MODEL 1
REMARK VINA RESULT:      -8.9      0.000      0.000
REMARK  Name = 
REMARK  8 active torsions:
REMARK  status: ('A' for Active; 'I' for Inactive)
REMARK    1  A    between atoms: C_2  and  C_13
REMARK    2  A    between atoms: N_3  and  C_4
REMARK    3  A    between atoms: C_17  and  C_18
REMARK    4  A    between atoms: C_22  and  C_23
REMARK    5  A    between atoms: N_25  and  C_26
REMARK    6  A    between atoms: C_26  and  P_27
REMARK    7  A    between atoms: P_27  and  O_29
REMARK    8  A    between atoms: P_27  and  O_30
REMARK                            x       y       z     vdW  Elec       q    Type
REMARK                         _______ _______ _______ _____ _____    ______ ____
ROOT
ATOM      1  C   UNL     1       0.526  10.050  20.914  0.00  0.00    +0.000 A 
ATOM      2  C   UNL     1       0.808  10.775  19.753  0.00  0.00    +0.000 A 
ATOM      3  C   UNL     1       1.360  10.125  18.655  0.00  0.00    +0.000 A 
ATOM      4  C   UNL     1       1.647   8.763  18.730  0.00  0.00    +0.000 A 
ATOM      5  C   UNL     1       1.435   8.035  19.917  0.00  0.00    +0.000 A 
ATOM      6  C   UNL     1       0.829   8.689  20.997  0.00  0.00    +0.000 A 
ENDROOT
BRANCH   5   7
ATOM      7  C   UNL     1       1.944   6.663  20.047  0.00  0.00    +0.000 A 
ATOM      8  C   UNL     1       1.141   5.627  20.535  0.00  0.00    +0.000 A 
ATOM      9  C   UNL     1       1.687   4.350  20.591  0.00  0.00    +0.000 A 
ATOM     10  C   UNL     1       3.054   4.114  20.195  0.00  0.00    +0.000 A 
ATOM     11  C   UNL     1       3.950   5.164  19.772  0.00  0.00    +0.000 A 
ATOM     12  C   UNL     1       3.307   6.398  19.669  0.00  0.00    +0.000 A 
BRANCH  11  13
ATOM     13  C   UNL     1       5.286   4.976  19.044  0.00  0.00    +0.000 A 
ATOM     14  C   UNL     1       5.437   5.758  17.934  0.00  0.00    +0.000 A 
ATOM     15  N   UNL     1       6.222   4.695  17.508  0.00  0.00    +0.000 N 
ATOM     16  C   UNL     1       7.572   4.841  17.815  0.00  0.00    +0.000 A 
ATOM     17  N   UNL     1       6.842   4.762  19.213  0.00  0.00    +0.000 NA
BRANCH  15  18
ATOM     18  C   UNL     1       5.819   4.088  16.232  0.00  0.00    +0.000 C 
BRANCH  18  19
ATOM     19  P   UNL     1       6.826   4.792  14.877  0.00  0.00    +0.000 P 
ATOM     20  O   UNL     1       6.333   3.742  13.878  0.00  0.00    +0.000 OA
BRANCH  19  21
ATOM     21  O   UNL     1       5.829   6.083  14.734  0.00  0.00    +0.000 OA
ATOM     22  H   UNL     1       6.313   6.923  14.627  0.00  0.00    +0.000 HD
ENDBRANCH  19  21
BRANCH  19  23
ATOM     23  O   UNL     1       7.778   5.458  13.594  0.00  0.00    +0.000 OA
ATOM     24  H   UNL     1       7.162   5.432  12.828  0.00  0.00    +0.000 HD
ENDBRANCH  19  23
ENDBRANCH  18  19
ENDBRANCH  15  18
ENDBRANCH  11  13
ENDBRANCH   5   7
BRANCH   1  26
ATOM     25  O   UNL     1       0.130  10.348  23.195  0.00  0.00    +0.000 OA
ATOM     26  C   UNL     1      -0.114  10.732  22.059  0.00  0.00    +0.000 C 
ATOM     27  N   UNL     1      -0.983  11.742  21.711  0.00  0.00    +0.000 N 
ATOM     28  H   UNL     1      -1.375  11.738  20.778  0.00  0.00    +0.000 HD
BRANCH  27  29
ATOM     29  C   UNL     1      -1.747  12.442  22.637  0.00  0.00    +0.000 A 
ATOM     30  N   UNL     1      -2.910  11.884  23.015  0.00  0.00    +0.000 NA
ATOM     31  C   UNL     1      -3.635  12.504  23.972  0.00  0.00    +0.000 A 
ATOM     32  N   UNL     1      -3.405  13.692  24.548  0.00  0.00    +0.000 NA
ATOM     33  C   UNL     1      -2.293  14.291  24.064  0.00  0.00    +0.000 A 
ATOM     34  N   UNL     1      -1.848  15.510  24.437  0.00  0.00    +0.000 NA
ATOM     35  C   UNL     1      -0.745  15.691  23.747  0.00  0.00    +0.000 A 
ATOM     36  N   UNL     1      -0.441  14.601  22.979  0.00  0.00    +0.000 N 
ATOM     37  C   UNL     1      -1.436  13.679  23.163  0.00  0.00    +0.000 A 
ATOM     38  H   UNL     1       0.367  14.492  22.381  0.00  0.00    +0.000 HD
ENDBRANCH  27  29
ENDBRANCH   1  26
TORSDOF 8
ENDMDL
MODEL 2
REMARK VINA RESULT:      -8.8      3.114      4.400
REMARK  Name = 
REMARK  8 active torsions:
REMARK  status: ('A' for Active; 'I' for Inactive)
REMARK    1  A    between atoms: C_2  and  C_13
REMARK    2  A    between atoms: N_3  and  C_4
REMARK    3  A    between atoms: C_17  and  C_18
REMARK    4  A    between atoms: C_22  and  C_23
REMARK    5  A    between atoms: N_25  and  C_26
REMARK    6  A    between atoms: C_26  and  P_27
REMARK    7  A    between atoms: P_27  and  O_29
REMARK    8  A    between atoms: P_27  and  O_30
REMARK                            x       y       z     vdW  Elec       q    Type
REMARK                         _______ _______ _______ _____ _____    ______ ____
ROOT
ATOM      1  C   UNL     1      -0.924  11.078  22.176  0.00  0.00    +0.000 A 
ATOM      2  C   UNL     1      -0.765  10.323  23.340  0.00  0.00    +0.000 A 
ATOM      3  C   UNL     1       0.148   9.273  23.359  0.00  0.00    +0.000 A 
ATOM      4  C   UNL     1       0.879   8.972  22.211  0.00  0.00    +0.000 A 
ATOM      5  C   UNL     1       0.677   9.678  21.010  0.00  0.00    +0.000 A 
ATOM      6  C   UNL     1      -0.205  10.766  21.018  0.00  0.00    +0.000 A 
ENDROOT
BRANCH   5   7
ATOM      7  C   UNL     1       1.291   9.208  19.760  0.00  0.00    +0.000 A 
ATOM      8  C   UNL     1       1.238   9.967  18.587  0.00  0.00    +0.000 A 
ATOM      9  C   UNL     1       1.877   9.468  17.458  0.00  0.00    +0.000 A 
ATOM     10  C   UNL     1       2.539   8.188  17.491  0.00  0.00    +0.000 A 
ATOM     11  C   UNL     1       2.544   7.327  18.650  0.00  0.00    +0.000 A 
ATOM     12  C   UNL     1       1.952   7.930  19.759  0.00  0.00    +0.000 A 
BRANCH  11  13
ATOM     13  C   UNL     1       3.468   6.124  18.881  0.00  0.00    +0.000 A 
ATOM     14  C   UNL     1       3.998   5.594  17.740  0.00  0.00    +0.000 A 
ATOM     15  N   UNL     1       3.973   4.422  18.482  0.00  0.00    +0.000 N 
ATOM     16  C   UNL     1       5.158   4.172  19.170  0.00  0.00    +0.000 A 
ATOM     17  N   UNL     1       4.596   5.507  19.798  0.00  0.00    +0.000 NA
BRANCH  15  18
ATOM     18  C   UNL     1       3.225   3.311  17.878  0.00  0.00    +0.000 C 
BRANCH  18  19
ATOM     19  P   UNL     1       1.703   3.004  18.845  0.00  0.00    +0.000 P 
ATOM     20  O   UNL     1       0.808   3.564  17.736  0.00  0.00    +0.000 OA
BRANCH  19  21
ATOM     21  O   UNL     1       1.806   1.389  18.597  0.00  0.00    +0.000 OA
ATOM     22  H   UNL     1       1.025   1.027  18.138  0.00  0.00    +0.000 HD
ENDBRANCH  19  21
BRANCH  19  23
ATOM     23  O   UNL     1       0.262   2.713  19.759  0.00  0.00    +0.000 OA
ATOM     24  H   UNL     1       0.324   1.754  19.967  0.00  0.00    +0.000 HD
ENDBRANCH  19  23
ENDBRANCH  18  19
ENDBRANCH  15  18
ENDBRANCH  11  13
ENDBRANCH   5   7
BRANCH   1  26
ATOM     25  O   UNL     1      -1.601  13.199  21.475  0.00  0.00    +0.000 OA
ATOM     26  C   UNL     1      -1.853  12.228  22.177  0.00  0.00    +0.000 C 
ATOM     27  N   UNL     1      -2.925  12.098  23.030  0.00  0.00    +0.000 N 
ATOM     28  H   UNL     1      -2.849  11.446  23.800  0.00  0.00    +0.000 HD
BRANCH  27  29
ATOM     29  C   UNL     1      -3.859  13.104  23.239  0.00  0.00    +0.000 A 
ATOM     30  N   UNL     1      -3.477  14.144  24.001  0.00  0.00    +0.000 NA
ATOM     31  C   UNL     1      -4.337  15.174  24.157  0.00  0.00    +0.000 A 
ATOM     32  N   UNL     1      -5.603  15.268  23.727  0.00  0.00    +0.000 NA
ATOM     33  C   UNL     1      -6.006  14.160  23.066  0.00  0.00    +0.000 A 
ATOM     34  N   UNL     1      -7.244  13.969  22.562  0.00  0.00    +0.000 NA
ATOM     35  C   UNL     1      -7.196  12.787  21.992  0.00  0.00    +0.000 A 
ATOM     36  N   UNL     1      -5.947  12.235  22.071  0.00  0.00    +0.000 N 
ATOM     37  C   UNL     1      -5.157  13.105  22.771  0.00  0.00    +0.000 A 
ATOM     38  H   UNL     1      -5.657  11.345  21.687  0.00  0.00    +0.000 HD
ENDBRANCH  27  29
ENDBRANCH   1  26
TORSDOF 8
ENDMDL
MODEL 3
REMARK VINA RESULT:      -8.6      3.162      4.300
REMARK  Name = 
REMARK  8 active torsions:
REMARK  status: ('A' for Active; 'I' for Inactive)
REMARK    1  A    between atoms: C_2  and  C_13
REMARK    2  A    between atoms: N_3  and  C_4
REMARK    3  A    between atoms: C_17  and  C_18
REMARK    4  A    between atoms: C_22  and  C_23
REMARK    5  A    between atoms: N_25  and  C_26
REMARK    6  A    between atoms: C_26  and  P_27
REMARK    7  A    between atoms: P_27  and  O_29
REMARK    8  A    between atoms: P_27  and  O_30
REMARK                            x       y       z     vdW  Elec       q    Type
REMARK                         _______ _______ _______ _____ _____    ______ ____
ROOT
ATOM      1  C   UNL     1       0.144   9.726  19.898  0.00  0.00    +0.000 A 
ATOM      2  C   UNL     1       0.291  10.301  21.162  0.00  0.00    +0.000 A 
ATOM      3  C   UNL     1       1.046   9.648  22.131  0.00  0.00    +0.000 A 
ATOM      4  C   UNL     1       1.630   8.417  21.838  0.00  0.00    +0.000 A 
ATOM      5  C   UNL     1       1.431   7.791  20.593  0.00  0.00    +0.000 A 
ATOM      6  C   UNL     1       0.713   8.483  19.608  0.00  0.00    +0.000 A 
ENDROOT
BRANCH   5   7
ATOM      7  C   UNL     1       1.867   6.404  20.381  0.00  0.00    +0.000 A 
ATOM      8  C   UNL     1       0.994   5.325  20.562  0.00  0.00    +0.000 A 
ATOM      9  C   UNL     1       1.476   4.047  20.303  0.00  0.00    +0.000 A 
ATOM     10  C   UNL     1       2.845   3.843  19.898  0.00  0.00    +0.000 A 
ATOM     11  C   UNL     1       3.807   4.912  19.784  0.00  0.00    +0.000 A 
ATOM     12  C   UNL     1       3.229   6.166  19.985  0.00  0.00    +0.000 A 
BRANCH  11  13
ATOM     13  C   UNL     1       5.162   4.840  19.070  0.00  0.00    +0.000 A 
ATOM     14  C   UNL     1       5.269   5.660  17.983  0.00  0.00    +0.000 A 
ATOM     15  N   UNL     1       6.133   4.668  17.540  0.00  0.00    +0.000 N 
ATOM     16  C   UNL     1       7.466   4.902  17.869  0.00  0.00    +0.000 A 
ATOM     17  N   UNL     1       6.726   4.733  19.254  0.00  0.00    +0.000 NA
BRANCH  15  18
ATOM     18  C   UNL     1       5.789   4.069  16.243  0.00  0.00    +0.000 C 
BRANCH  18  19
ATOM     19  P   UNL     1       6.823   4.817  14.932  0.00  0.00    +0.000 P 
ATOM     20  O   UNL     1       6.339   3.810  13.886  0.00  0.00    +0.000 OA
BRANCH  19  21
ATOM     21  O   UNL     1       5.838   6.120  14.824  0.00  0.00    +0.000 OA
ATOM     22  H   UNL     1       4.929   5.932  15.124  0.00  0.00    +0.000 HD
ENDBRANCH  19  21
BRANCH  19  23
ATOM     23  O   UNL     1       7.800   5.524  13.691  0.00  0.00    +0.000 OA
ATOM     24  H   UNL     1       8.562   4.906  13.634  0.00  0.00    +0.000 HD
ENDBRANCH  19  23
ENDBRANCH  18  19
ENDBRANCH  15  18
ENDBRANCH  11  13
ENDBRANCH   5   7
BRANCH   1  26
ATOM     25  O   UNL     1      -0.307  11.607  18.591  0.00  0.00    +0.000 OA
ATOM     26  C   UNL     1      -0.611  10.450  18.854  0.00  0.00    +0.000 C 
ATOM     27  N   UNL     1      -1.643   9.733  18.291  0.00  0.00    +0.000 N 
ATOM     28  H   UNL     1      -2.024   8.953  18.811  0.00  0.00    +0.000 HD
BRANCH  27  29
ATOM     29  C   UNL     1      -2.522  10.268  17.358  0.00  0.00    +0.000 A 
ATOM     30  N   UNL     1      -2.226  10.075  16.061  0.00  0.00    +0.000 NA
ATOM     31  C   UNL     1      -3.103  10.515  15.132  0.00  0.00    +0.000 A 
ATOM     32  N   UNL     1      -4.218  11.234  15.321  0.00  0.00    +0.000 NA
ATOM     33  C   UNL     1      -4.433  11.519  16.625  0.00  0.00    +0.000 A 
ATOM     34  N   UNL     1      -5.458  12.261  17.095  0.00  0.00    +0.000 NA
ATOM     35  C   UNL     1      -5.297  12.269  18.399  0.00  0.00    +0.000 A 
ATOM     36  N   UNL     1      -4.226  11.510  18.783  0.00  0.00    +0.000 N 
ATOM     37  C   UNL     1      -3.643  11.017  17.648  0.00  0.00    +0.000 A 
ATOM     38  H   UNL     1      -3.916  11.344  19.731  0.00  0.00    +0.000 HD
ENDBRANCH  27  29
ENDBRANCH   1  26
TORSDOF 8
ENDMDL
MODEL 4
REMARK VINA RESULT:      -8.5      0.928      1.584
REMARK  Name = 
REMARK  8 active torsions:
REMARK  status: ('A' for Active; 'I' for Inactive)
REMARK    1  A    between atoms: C_2  and  C_13
REMARK    2  A    between atoms: N_3  and  C_4
REMARK    3  A    between atoms: C_17  and  C_18
REMARK    4  A    between atoms: C_22  and  C_23
REMARK    5  A    between atoms: N_25  and  C_26
REMARK    6  A    between atoms: C_26  and  P_27
REMARK    7  A    between atoms: P_27  and  O_29
REMARK    8  A    between atoms: P_27  and  O_30
REMARK                            x       y       z     vdW  Elec       q    Type
REMARK                         _______ _______ _______ _____ _____    ______ ____
ROOT
ATOM      1  C   UNL     1       0.598  10.013  20.434  0.00  0.00    +0.000 A 
ATOM      2  C   UNL     1       0.966  10.687  19.267  0.00  0.00    +0.000 A 
ATOM      3  C   UNL     1       1.632  10.001  18.257  0.00  0.00    +0.000 A 
ATOM      4  C   UNL     1       1.944   8.653  18.428  0.00  0.00    +0.000 A 
ATOM      5  C   UNL     1       1.644   7.979  19.626  0.00  0.00    +0.000 A 
ATOM      6  C   UNL     1       0.927   8.666  20.614  0.00  0.00    +0.000 A 
ENDROOT
BRANCH   5   7
ATOM      7  C   UNL     1       2.173   6.630  19.873  0.00  0.00    +0.000 A 
ATOM      8  C   UNL     1       1.411   5.650  20.518  0.00  0.00    +0.000 A 
ATOM      9  C   UNL     1       1.972   4.389  20.677  0.00  0.00    +0.000 A 
ATOM     10  C   UNL     1       3.314   4.116  20.225  0.00  0.00    +0.000 A 
ATOM     11  C   UNL     1       4.172   5.116  19.636  0.00  0.00    +0.000 A 
ATOM     12  C   UNL     1       3.512   6.329  19.441  0.00  0.00    +0.000 A 
BRANCH  11  13
ATOM     13  C   UNL     1       5.463   4.854  18.851  0.00  0.00    +0.000 A 
ATOM     14  C   UNL     1       5.621   5.645  17.749  0.00  0.00    +0.000 A 
ATOM     15  N   UNL     1       6.315   4.541  17.274  0.00  0.00    +0.000 N 
ATOM     16  C   UNL     1       7.684   4.592  17.528  0.00  0.00    +0.000 A 
ATOM     17  N   UNL     1       7.006   4.534  18.953  0.00  0.00    +0.000 NA
BRANCH  15  18
ATOM     18  C   UNL     1       5.822   3.985  16.005  0.00  0.00    +0.000 C 
BRANCH  18  19
ATOM     19  P   UNL     1       6.768   4.707  14.616  0.00  0.00    +0.000 P 
ATOM     20  O   UNL     1       6.245   3.658  13.631  0.00  0.00    +0.000 OA
BRANCH  19  21
ATOM     21  O   UNL     1       5.755   5.989  14.521  0.00  0.00    +0.000 OA
ATOM     22  H   UNL     1       5.547   6.371  15.395  0.00  0.00    +0.000 HD
ENDBRANCH  19  21
BRANCH  19  23
ATOM     23  O   UNL     1       7.662   5.388  13.300  0.00  0.00    +0.000 OA
ATOM     24  H   UNL     1       7.978   6.243  13.669  0.00  0.00    +0.000 HD
ENDBRANCH  19  23
ENDBRANCH  18  19
ENDBRANCH  15  18
ENDBRANCH  11  13
ENDBRANCH   5   7
BRANCH   1  26
ATOM     25  O   UNL     1      -0.624  10.100  22.421  0.00  0.00    +0.000 OA
ATOM     26  C   UNL     1      -0.159  10.731  21.480  0.00  0.00    +0.000 C 
ATOM     27  N   UNL     1      -0.303  12.082  21.258  0.00  0.00    +0.000 N 
ATOM     28  H   UNL     1      -0.201  12.426  20.312  0.00  0.00    +0.000 HD
BRANCH  27  29
ATOM     29  C   UNL     1      -1.054  12.913  22.079  0.00  0.00    +0.000 A 
ATOM     30  N   UNL     1      -0.410  13.510  23.097  0.00  0.00    +0.000 NA
ATOM     31  C   UNL     1      -1.097  14.384  23.865  0.00  0.00    +0.000 A 
ATOM     32  N   UNL     1      -2.404  14.678  23.818  0.00  0.00    +0.000 NA
ATOM     33  C   UNL     1      -3.057  13.976  22.865  0.00  0.00    +0.000 A 
ATOM     34  N   UNL     1      -4.383  14.045  22.626  0.00  0.00    +0.000 NA
ATOM     35  C   UNL     1      -4.587  13.228  21.617  0.00  0.00    +0.000 A 
ATOM     36  N   UNL     1      -3.419  12.675  21.168  0.00  0.00    +0.000 N 
ATOM     37  C   UNL     1      -2.410  13.140  21.967  0.00  0.00    +0.000 A 
ATOM     38  H   UNL     1      -3.316  12.037  20.390  0.00  0.00    +0.000 HD
ENDBRANCH  27  29
ENDBRANCH   1  26
TORSDOF 8
ENDMDL
MODEL 5
REMARK VINA RESULT:      -8.5      3.359      4.377
REMARK  Name = 
REMARK  8 active torsions:
REMARK  status: ('A' for Active; 'I' for Inactive)
REMARK    1  A    between atoms: C_2  and  C_13
REMARK    2  A    between atoms: N_3  and  C_4
REMARK    3  A    between atoms: C_17  and  C_18
REMARK    4  A    between atoms: C_22  and  C_23
REMARK    5  A    between atoms: N_25  and  C_26
REMARK    6  A    between atoms: C_26  and  P_27
REMARK    7  A    between atoms: P_27  and  O_29
REMARK    8  A    between atoms: P_27  and  O_30
REMARK                            x       y       z     vdW  Elec       q    Type
REMARK                         _______ _______ _______ _____ _____    ______ ____
ROOT
ATOM      1  C   UNL     1      -1.139  11.106  22.243  0.00  0.00    +0.000 A 
ATOM      2  C   UNL     1      -0.927  10.394  23.426  0.00  0.00    +0.000 A 
ATOM      3  C   UNL     1       0.057   9.412  23.470  0.00  0.00    +0.000 A 
ATOM      4  C   UNL     1       0.807   9.134  22.328  0.00  0.00    +0.000 A 
ATOM      5  C   UNL     1       0.556   9.793  21.110  0.00  0.00    +0.000 A 
ATOM      6  C   UNL     1      -0.400  10.816  21.093  0.00  0.00    +0.000 A 
ENDROOT
BRANCH   5   7
ATOM      7  C   UNL     1       1.201   9.335  19.872  0.00  0.00    +0.000 A 
ATOM      8  C   UNL     1       1.271  10.151  18.737  0.00  0.00    +0.000 A 
ATOM      9  C   UNL     1       1.932   9.657  17.619  0.00  0.00    +0.000 A 
ATOM     10  C   UNL     1       2.493   8.328  17.621  0.00  0.00    +0.000 A 
ATOM     11  C   UNL     1       2.368   7.416  18.733  0.00  0.00    +0.000 A 
ATOM     12  C   UNL     1       1.762   8.011  19.839  0.00  0.00    +0.000 A 
BRANCH  11  13
ATOM     13  C   UNL     1       3.184   6.135  18.950  0.00  0.00    +0.000 A 
ATOM     14  C   UNL     1       3.157   5.266  17.897  0.00  0.00    +0.000 A 
ATOM     15  N   UNL     1       3.316   4.321  18.900  0.00  0.00    +0.000 N 
ATOM     16  C   UNL     1       4.646   3.998  19.156  0.00  0.00    +0.000 A 
ATOM     17  N   UNL     1       4.517   5.525  19.535  0.00  0.00    +0.000 NA
BRANCH  15  18
ATOM     18  C   UNL     1       2.283   3.277  18.951  0.00  0.00    +0.000 C 
BRANCH  18  19
ATOM     19  P   UNL     1       1.844   2.937  20.693  0.00  0.00    +0.000 P 
ATOM     20  O   UNL     1       3.248   2.418  21.013  0.00  0.00    +0.000 OA
BRANCH  19  21
ATOM     21  O   UNL     1       1.835   4.532  21.059  0.00  0.00    +0.000 OA
ATOM     22  H   UNL     1       1.701   4.700  22.011  0.00  0.00    +0.000 HD
ENDBRANCH  19  21
BRANCH  19  23
ATOM     23  O   UNL     1       1.429   2.615  22.343  0.00  0.00    +0.000 OA
ATOM     24  H   UNL     1       2.206   2.961  22.835  0.00  0.00    +0.000 HD
ENDBRANCH  19  23
ENDBRANCH  18  19
ENDBRANCH  15  18
ENDBRANCH  11  13
ENDBRANCH   5   7
BRANCH   1  26
ATOM     25  O   UNL     1      -1.961  13.159  21.493  0.00  0.00    +0.000 OA
ATOM     26  C   UNL     1      -2.146  12.188  22.217  0.00  0.00    +0.000 C 
ATOM     27  N   UNL     1      -3.209  12.003  23.073  0.00  0.00    +0.000 N 
ATOM     28  H   UNL     1      -3.089  11.376  23.857  0.00  0.00    +0.000 HD
BRANCH  27  29
ATOM     29  C   UNL     1      -4.211  12.946  23.257  0.00  0.00    +0.000 A 
ATOM     30  N   UNL     1      -5.438  12.629  22.807  0.00  0.00    +0.000 NA
ATOM     31  C   UNL     1      -6.449  13.493  23.043  0.00  0.00    +0.000 A 
ATOM     32  N   UNL     1      -6.385  14.714  23.592  0.00  0.00    +0.000 NA
ATOM     33  C   UNL     1      -5.122  15.062  23.927  0.00  0.00    +0.000 A 
ATOM     34  N   UNL     1      -4.763  16.249  24.460  0.00  0.00    +0.000 NA
ATOM     35  C   UNL     1      -3.466  16.157  24.645  0.00  0.00    +0.000 A 
ATOM     36  N   UNL     1      -2.989  14.923  24.295  0.00  0.00    +0.000 N 
ATOM     37  C   UNL     1      -4.045  14.195  23.818  0.00  0.00    +0.000 A 
ATOM     38  H   UNL     1      -2.032  14.605  24.369  0.00  0.00    +0.000 HD
ENDBRANCH  27  29
ENDBRANCH   1  26
TORSDOF 8
ENDMDL
MODEL 6
REMARK VINA RESULT:      -8.5      1.794      3.223
REMARK  Name = 
REMARK  8 active torsions:
REMARK  status: ('A' for Active; 'I' for Inactive)
REMARK    1  A    between atoms: C_2  and  C_13
REMARK    2  A    between atoms: N_3  and  C_4
REMARK    3  A    between atoms: C_17  and  C_18
REMARK    4  A    between atoms: C_22  and  C_23
REMARK    5  A    between atoms: N_25  and  C_26
REMARK    6  A    between atoms: C_26  and  P_27
REMARK    7  A    between atoms: P_27  and  O_29
REMARK    8  A    between atoms: P_27  and  O_30
REMARK                            x       y       z     vdW  Elec       q    Type
REMARK                         _______ _______ _______ _____ _____    ______ ____
ROOT
ATOM      1  C   UNL     1      -0.477  11.298  22.100  0.00  0.00    +0.000 A 
ATOM      2  C   UNL     1      -0.866  10.397  23.094  0.00  0.00    +0.000 A 
ATOM      3  C   UNL     1      -0.428   9.078  23.036  0.00  0.00    +0.000 A 
ATOM      4  C   UNL     1       0.378   8.664  21.977  0.00  0.00    +0.000 A 
ATOM      5  C   UNL     1       0.720   9.541  20.931  0.00  0.00    +0.000 A 
ATOM      6  C   UNL     1       0.316  10.880  21.028  0.00  0.00    +0.000 A 
ENDROOT
BRANCH   5   7
ATOM      7  C   UNL     1       1.381   9.033  19.721  0.00  0.00    +0.000 A 
ATOM      8  C   UNL     1       1.511   9.821  18.572  0.00  0.00    +0.000 A 
ATOM      9  C   UNL     1       2.184   9.278  17.483  0.00  0.00    +0.000 A 
ATOM     10  C   UNL     1       2.694   7.930  17.529  0.00  0.00    +0.000 A 
ATOM     11  C   UNL     1       2.506   7.048  18.656  0.00  0.00    +0.000 A 
ATOM     12  C   UNL     1       1.892   7.689  19.732  0.00  0.00    +0.000 A 
BRANCH  11  13
ATOM     13  C   UNL     1       3.266   5.743  18.923  0.00  0.00    +0.000 A 
ATOM     14  C   UNL     1       4.625   5.875  18.927  0.00  0.00    +0.000 A 
ATOM     15  N   UNL     1       4.578   4.562  18.481  0.00  0.00    +0.000 N 
ATOM     16  C   UNL     1       4.649   3.622  19.505  0.00  0.00    +0.000 A 
ATOM     17  N   UNL     1       3.304   4.408  19.765  0.00  0.00    +0.000 NA
BRANCH  15  18
ATOM     18  C   UNL     1       5.255   4.307  17.201  0.00  0.00    +0.000 C 
BRANCH  18  19
ATOM     19  P   UNL     1       6.487   5.623  16.890  0.00  0.00    +0.000 P 
ATOM     20  O   UNL     1       7.561   4.612  16.482  0.00  0.00    +0.000 OA
BRANCH  19  21
ATOM     21  O   UNL     1       5.727   6.086  15.517  0.00  0.00    +0.000 OA
ATOM     22  H   UNL     1       4.914   6.597  15.689  0.00  0.00    +0.000 HD
ENDBRANCH  19  21
BRANCH  19  23
ATOM     23  O   UNL     1       7.653   6.868  16.596  0.00  0.00    +0.000 OA
ATOM     24  H   UNL     1       8.102   6.559  15.778  0.00  0.00    +0.000 HD
ENDBRANCH  19  23
ENDBRANCH  18  19
ENDBRANCH  15  18
ENDBRANCH  11  13
ENDBRANCH   5   7
BRANCH   1  26
ATOM     25  O   UNL     1      -0.876  13.410  21.190  0.00  0.00    +0.000 OA
ATOM     26  C   UNL     1      -0.898  12.712  22.195  0.00  0.00    +0.000 C 
ATOM     27  N   UNL     1      -1.246  13.122  23.462  0.00  0.00    +0.000 N 
ATOM     28  H   UNL     1      -0.896  12.593  24.251  0.00  0.00    +0.000 HD
BRANCH  27  29
ATOM     29  C   UNL     1      -1.584  14.433  23.773  0.00  0.00    +0.000 A 
ATOM     30  N   UNL     1      -0.580  15.256  24.121  0.00  0.00    +0.000 NA
ATOM     31  C   UNL     1      -0.869  16.556  24.351  0.00  0.00    +0.000 A 
ATOM     32  N   UNL     1      -2.073  17.144  24.384  0.00  0.00    +0.000 NA
ATOM     33  C   UNL     1      -3.079  16.271  24.150  0.00  0.00    +0.000 A 
ATOM     34  N   UNL     1      -4.392  16.584  24.163  0.00  0.00    +0.000 NA
ATOM     35  C   UNL     1      -5.008  15.462  23.870  0.00  0.00    +0.000 A 
ATOM     36  N   UNL     1      -4.125  14.448  23.618  0.00  0.00    +0.000 N 
ATOM     37  C   UNL     1      -2.864  14.947  23.800  0.00  0.00    +0.000 A 
ATOM     38  H   UNL     1      -4.357  13.501  23.349  0.00  0.00    +0.000 HD
ENDBRANCH  27  29
ENDBRANCH   1  26
TORSDOF 8
ENDMDL
MODEL 7
REMARK VINA RESULT:      -8.5      3.378      4.639
REMARK  Name = 
REMARK  8 active torsions:
REMARK  status: ('A' for Active; 'I' for Inactive)
REMARK    1  A    between atoms: C_2  and  C_13
REMARK    2  A    between atoms: N_3  and  C_4
REMARK    3  A    between atoms: C_17  and  C_18
REMARK    4  A    between atoms: C_22  and  C_23
REMARK    5  A    between atoms: N_25  and  C_26
REMARK    6  A    between atoms: C_26  and  P_27
REMARK    7  A    between atoms: P_27  and  O_29
REMARK    8  A    between atoms: P_27  and  O_30
REMARK                            x       y       z     vdW  Elec       q    Type
REMARK                         _______ _______ _______ _____ _____    ______ ____
ROOT
ATOM      1  C   UNL     1      -1.002  11.235  22.304  0.00  0.00    +0.000 A 
ATOM      2  C   UNL     1      -0.911  10.427  23.439  0.00  0.00    +0.000 A 
ATOM      3  C   UNL     1      -0.050   9.333  23.437  0.00  0.00    +0.000 A 
ATOM      4  C   UNL     1       0.696   9.044  22.296  0.00  0.00    +0.000 A 
ATOM      5  C   UNL     1       0.561   9.806  21.121  0.00  0.00    +0.000 A 
ATOM      6  C   UNL     1      -0.267  10.935  21.153  0.00  0.00    +0.000 A 
ENDROOT
BRANCH   5   7
ATOM      7  C   UNL     1       1.186   9.357  19.869  0.00  0.00    +0.000 A 
ATOM      8  C   UNL     1       1.155  10.144  18.712  0.00  0.00    +0.000 A 
ATOM      9  C   UNL     1       1.803   9.663  17.580  0.00  0.00    +0.000 A 
ATOM     10  C   UNL     1       2.450   8.374  17.593  0.00  0.00    +0.000 A 
ATOM     11  C   UNL     1       2.432   7.488  18.731  0.00  0.00    +0.000 A 
ATOM     12  C   UNL     1       1.832   8.072  19.846  0.00  0.00    +0.000 A 
BRANCH  11  13
ATOM     13  C   UNL     1       3.339   6.270  18.947  0.00  0.00    +0.000 A 
ATOM     14  C   UNL     1       2.875   5.116  18.382  0.00  0.00    +0.000 A 
ATOM     15  N   UNL     1       3.557   4.532  19.440  0.00  0.00    +0.000 N 
ATOM     16  C   UNL     1       4.868   4.176  19.131  0.00  0.00    +0.000 A 
ATOM     17  N   UNL     1       4.829   5.750  19.000  0.00  0.00    +0.000 NA
BRANCH  15  18
ATOM     18  C   UNL     1       2.747   3.667  20.310  0.00  0.00    +0.000 C 
BRANCH  18  19
ATOM     19  P   UNL     1       1.485   2.802  19.307  0.00  0.00    +0.000 P 
ATOM     20  O   UNL     1       2.205   1.458  19.444  0.00  0.00    +0.000 OA
BRANCH  19  21
ATOM     21  O   UNL     1       0.390   2.877  20.521  0.00  0.00    +0.000 OA
ATOM     22  H   UNL     1      -0.525   2.973  20.198  0.00  0.00    +0.000 HD
ENDBRANCH  19  21
BRANCH  19  23
ATOM     23  O   UNL     1       0.292   1.983  18.358  0.00  0.00    +0.000 OA
ATOM     24  H   UNL     1       0.795   1.228  17.978  0.00  0.00    +0.000 HD
ENDBRANCH  19  23
ENDBRANCH  18  19
ENDBRANCH  15  18
ENDBRANCH  11  13
ENDBRANCH   5   7
BRANCH   1  26
ATOM     25  O   UNL     1      -1.518  13.414  22.964  0.00  0.00    +0.000 OA
ATOM     26  C   UNL     1      -1.873  12.428  22.329  0.00  0.00    +0.000 C 
ATOM     27  N   UNL     1      -3.058  12.288  21.642  0.00  0.00    +0.000 N 
ATOM     28  H   UNL     1      -3.403  11.353  21.468  0.00  0.00    +0.000 HD
BRANCH  27  29
ATOM     29  C   UNL     1      -4.047  13.263  21.622  0.00  0.00    +0.000 A 
ATOM     30  N   UNL     1      -3.880  14.284  20.765  0.00  0.00    +0.000 NA
ATOM     31  C   UNL     1      -4.863  15.206  20.667  0.00  0.00    +0.000 A 
ATOM     32  N   UNL     1      -5.979  15.308  21.402  0.00  0.00    +0.000 NA
ATOM     33  C   UNL     1      -6.068  14.338  22.340  0.00  0.00    +0.000 A 
ATOM     34  N   UNL     1      -7.066  14.225  23.242  0.00  0.00    +0.000 NA
ATOM     35  C   UNL     1      -6.772  13.149  23.936  0.00  0.00    +0.000 A 
ATOM     36  N   UNL     1      -5.640  12.538  23.471  0.00  0.00    +0.000 N 
ATOM     37  C   UNL     1      -5.159  13.295  22.438  0.00  0.00    +0.000 A 
ATOM     38  H   UNL     1      -5.228  11.685  23.825  0.00  0.00    +0.000 HD
ENDBRANCH  27  29
ENDBRANCH   1  26
TORSDOF 8
ENDMDL
MODEL 8
REMARK VINA RESULT:      -8.3      5.147     11.934
REMARK  Name = 
REMARK  8 active torsions:
REMARK  status: ('A' for Active; 'I' for Inactive)
REMARK    1  A    between atoms: C_2  and  C_13
REMARK    2  A    between atoms: N_3  and  C_4
REMARK    3  A    between atoms: C_17  and  C_18
REMARK    4  A    between atoms: C_22  and  C_23
REMARK    5  A    between atoms: N_25  and  C_26
REMARK    6  A    between atoms: C_26  and  P_27
REMARK    7  A    between atoms: P_27  and  O_29
REMARK    8  A    between atoms: P_27  and  O_30
REMARK                            x       y       z     vdW  Elec       q    Type
REMARK                         _______ _______ _______ _____ _____    ______ ____
ROOT
ATOM      1  C   UNL     1       1.127   9.184  18.844  0.00  0.00    +0.000 A 
ATOM      2  C   UNL     1       1.315   9.672  20.140  0.00  0.00    +0.000 A 
ATOM      3  C   UNL     1       0.285  10.364  20.770  0.00  0.00    +0.000 A 
ATOM      4  C   UNL     1      -0.915  10.581  20.095  0.00  0.00    +0.000 A 
ATOM      5  C   UNL     1      -1.093  10.159  18.764  0.00  0.00    +0.000 A 
ATOM      6  C   UNL     1      -0.069   9.417  18.160  0.00  0.00    +0.000 A 
ENDROOT
BRANCH   5   7
ATOM      7  C   UNL     1      -2.273  10.587  18.000  0.00  0.00    +0.000 A 
ATOM      8  C   UNL     1      -2.491  10.157  16.687  0.00  0.00    +0.000 A 
ATOM      9  C   UNL     1      -3.652  10.578  16.048  0.00  0.00    +0.000 A 
ATOM     10  C   UNL     1      -4.579  11.462  16.711  0.00  0.00    +0.000 A 
ATOM     11  C   UNL     1      -4.354  12.005  18.029  0.00  0.00    +0.000 A 
ATOM     12  C   UNL     1      -3.212  11.477  18.630  0.00  0.00    +0.000 A 
BRANCH  11  13
ATOM     13  C   UNL     1      -5.403  12.678  18.923  0.00  0.00    +0.000 A 
ATOM     14  C   UNL     1      -5.000  12.874  20.213  0.00  0.00    +0.000 A 
ATOM     15  N   UNL     1      -6.356  12.732  20.472  0.00  0.00    +0.000 N 
ATOM     16  C   UNL     1      -7.050  13.939  20.488  0.00  0.00    +0.000 A 
ATOM     17  N   UNL     1      -6.518  13.793  19.008  0.00  0.00    +0.000 NA
BRANCH  15  18
ATOM     18  C   UNL     1      -6.706  11.670  21.426  0.00  0.00    +0.000 C 
BRANCH  18  19
ATOM     19  P   UNL     1      -7.321  12.421  22.977  0.00  0.00    +0.000 P 
ATOM     20  O   UNL     1      -7.917  11.095  23.458  0.00  0.00    +0.000 OA
BRANCH  19  21
ATOM     21  O   UNL     1      -5.808  12.511  23.596  0.00  0.00    +0.000 OA
ATOM     22  H   UNL     1      -5.570  13.414  23.880  0.00  0.00    +0.000 HD
ENDBRANCH  19  21
BRANCH  19  23
ATOM     23  O   UNL     1      -7.903  13.130  24.444  0.00  0.00    +0.000 OA
ATOM     24  H   UNL     1      -8.680  12.571  24.665  0.00  0.00    +0.000 HD
ENDBRANCH  19  23
ENDBRANCH  18  19
ENDBRANCH  15  18
ENDBRANCH  11  13
ENDBRANCH   5   7
BRANCH   1  26
ATOM     25  O   UNL     1       2.703   8.814  17.163  0.00  0.00    +0.000 OA
ATOM     26  C   UNL     1       2.201   8.400  18.200  0.00  0.00    +0.000 C 
ATOM     27  N   UNL     1       2.511   7.220  18.838  0.00  0.00    +0.000 N 
ATOM     28  H   UNL     1       1.820   6.812  19.454  0.00  0.00    +0.000 HD
BRANCH  27  29
ATOM     29  C   UNL     1       3.430   6.304  18.341  0.00  0.00    +0.000 A 
ATOM     30  N   UNL     1       4.665   6.762  18.075  0.00  0.00    +0.000 NA
ATOM     31  C   UNL     1       5.601   5.878  17.665  0.00  0.00    +0.000 A 
ATOM     32  N   UNL     1       5.444   4.578  17.378  0.00  0.00    +0.000 NA
ATOM     33  C   UNL     1       4.166   4.166  17.539  0.00  0.00    +0.000 A 
ATOM     34  N   UNL     1       3.718   2.919  17.283  0.00  0.00    +0.000 NA
ATOM     35  C   UNL     1       2.441   2.950  17.589  0.00  0.00    +0.000 A 
ATOM     36  N   UNL     1       2.067   4.169  18.085  0.00  0.00    +0.000 N 
ATOM     37  C   UNL     1       3.169   4.980  18.056  0.00  0.00    +0.000 A 
ATOM     38  H   UNL     1       1.146   4.429  18.411  0.00  0.00    +0.000 HD
ENDBRANCH  27  29
ENDBRANCH   1  26
TORSDOF 8
ENDMDL
MODEL 9
REMARK VINA RESULT:      -8.3      2.823      3.777
REMARK  Name = 
REMARK  8 active torsions:
REMARK  status: ('A' for Active; 'I' for Inactive)
REMARK    1  A    between atoms: C_2  and  C_13
REMARK    2  A    between atoms: N_3  and  C_4
REMARK    3  A    between atoms: C_17  and  C_18
REMARK    4  A    between atoms: C_22  and  C_23
REMARK    5  A    between atoms: N_25  and  C_26
REMARK    6  A    between atoms: C_26  and  P_27
REMARK    7  A    between atoms: P_27  and  O_29
REMARK    8  A    between atoms: P_27  and  O_30
REMARK                            x       y       z     vdW  Elec       q    Type
REMARK                         _______ _______ _______ _____ _____    ______ ____
ROOT
ATOM      1  C   UNL     1       1.031   9.759  20.033  0.00  0.00    +0.000 A 
ATOM      2  C   UNL     1       0.006   9.934  20.966  0.00  0.00    +0.000 A 
ATOM      3  C   UNL     1      -0.371   8.871  21.781  0.00  0.00    +0.000 A 
ATOM      4  C   UNL     1       0.262   7.637  21.643  0.00  0.00    +0.000 A 
ATOM      5  C   UNL     1       1.246   7.425  20.658  0.00  0.00    +0.000 A 
ATOM      6  C   UNL     1       1.654   8.517  19.881  0.00  0.00    +0.000 A 
ENDROOT
BRANCH   5   7
ATOM      7  C   UNL     1       1.741   6.069  20.383  0.00  0.00    +0.000 A 
ATOM      8  C   UNL     1       0.914   4.948  20.504  0.00  0.00    +0.000 A 
ATOM      9  C   UNL     1       1.451   3.705  20.188  0.00  0.00    +0.000 A 
ATOM     10  C   UNL     1       2.829   3.578  19.784  0.00  0.00    +0.000 A 
ATOM     11  C   UNL     1       3.746   4.691  19.731  0.00  0.00    +0.000 A 
ATOM     12  C   UNL     1       3.115   5.909  19.987  0.00  0.00    +0.000 A 
BRANCH  11  13
ATOM     13  C   UNL     1       5.108   4.711  19.025  0.00  0.00    +0.000 A 
ATOM     14  C   UNL     1       5.176   5.560  17.958  0.00  0.00    +0.000 A 
ATOM     15  N   UNL     1       6.097   4.628  17.500  0.00  0.00    +0.000 N 
ATOM     16  C   UNL     1       7.412   4.928  17.844  0.00  0.00    +0.000 A 
ATOM     17  N   UNL     1       6.675   4.687  19.220  0.00  0.00    +0.000 NA
BRANCH  15  18
ATOM     18  C   UNL     1       5.796   4.039  16.187  0.00  0.00    +0.000 C 
BRANCH  18  19
ATOM     19  P   UNL     1       6.864   4.805  14.915  0.00  0.00    +0.000 P 
ATOM     20  O   UNL     1       6.384   3.834  13.834  0.00  0.00    +0.000 OA
BRANCH  19  21
ATOM     21  O   UNL     1       5.901   6.126  14.825  0.00  0.00    +0.000 OA
ATOM     22  H   UNL     1       6.387   6.958  14.978  0.00  0.00    +0.000 HD
ENDBRANCH  19  21
BRANCH  19  23
ATOM     23  O   UNL     1       7.875   5.530  13.711  0.00  0.00    +0.000 OA
ATOM     24  H   UNL     1       7.269   6.167  13.271  0.00  0.00    +0.000 HD
ENDBRANCH  19  23
ENDBRANCH  18  19
ENDBRANCH  15  18
ENDBRANCH  11  13
ENDBRANCH   5   7
BRANCH   1  26
ATOM     25  O   UNL     1       1.954  10.697  18.105  0.00  0.00    +0.000 OA
ATOM     26  C   UNL     1       1.467  10.906  19.210  0.00  0.00    +0.000 C 
ATOM     27  N   UNL     1       1.312  12.135  19.811  0.00  0.00    +0.000 N 
ATOM     28  H   UNL     1       1.244  12.170  20.819  0.00  0.00    +0.000 HD
BRANCH  27  29
ATOM     29  C   UNL     1       1.743  13.324  19.236  0.00  0.00    +0.000 A 
ATOM     30  N   UNL     1       3.026  13.380  18.839  0.00  0.00    +0.000 NA
ATOM     31  C   UNL     1       3.452  14.495  18.206  0.00  0.00    +0.000 A 
ATOM     32  N   UNL     1       2.782  15.637  17.999  0.00  0.00    +0.000 NA
ATOM     33  C   UNL     1       1.532  15.601  18.513  0.00  0.00    +0.000 A 
ATOM     34  N   UNL     1       0.654  16.626  18.482  0.00  0.00    +0.000 NA
ATOM     35  C   UNL     1      -0.427  16.161  19.065  0.00  0.00    +0.000 A 
ATOM     36  N   UNL     1      -0.286  14.849  19.424  0.00  0.00    +0.000 N 
ATOM     37  C   UNL     1       0.981  14.463  19.081  0.00  0.00    +0.000 A 
ATOM     38  H   UNL     1      -0.986  14.267  19.864  0.00  0.00    +0.000 HD
ENDBRANCH  27  29
ENDBRANCH   1  26
TORSDOF 8
ENDMDL
