MODEL 1
REMARK VINA RESULT:      -8.2      0.000      0.000
REMARK  Name = 
REMARK  7 active torsions:
REMARK  status: ('A' for Active; 'I' for Inactive)
REMARK    1  A    between atoms: C_2  and  C_3
REMARK    2  A    between atoms: C_3  and  N_4
REMARK    3  A    between atoms: C_8  and  C_10
REMARK    4  A    between atoms: N_21  and  C_22
REMARK    5  A    between atoms: C_22  and  C_23
REMARK    6  A    between atoms: C_23  and  C_24
REMARK    7  A    between atoms: C_24  and  C_25
REMARK                            x       y       z     vdW  Elec       q    Type
REMARK                         _______ _______ _______ _____ _____    ______ ____
ROOT
ATOM      1  O   UNL     1       2.066   5.874  21.204  0.00  0.00    +0.000 OA
ATOM      2  C   UNL     1       2.189   6.483  20.137  0.00  0.00    +0.000 C 
ATOM      3  N   UNL     1       1.836   7.825  20.038  0.00  0.00    +0.000 N 
ATOM      4  C   UNL     1       2.071   8.707  18.888  0.00  0.00    +0.000 C 
ATOM      5  C   UNL     1       0.787   9.473  18.521  0.00  0.00    +0.000 C 
ATOM      6  N   UNL     1       0.164  10.218  19.639  0.00  0.00    +0.000 NA
ATOM      7  C   UNL     1      -0.041   9.269  20.766  0.00  0.00    +0.000 C 
ATOM      8  C   UNL     1       1.225   8.491  21.192  0.00  0.00    +0.000 C 
ENDROOT
BRANCH   2   9
ATOM      9  C   UNL     1       2.674   5.791  18.834  0.00  0.00    +0.000 C 
BRANCH   9  10
ATOM     10  N   UNL     1       4.002   6.242  18.408  0.00  0.00    +0.000 NA
ATOM     11  C   UNL     1       5.147   5.532  19.030  0.00  0.00    +0.000 C 
ATOM     12  C   UNL     1       5.740   4.303  18.287  0.00  0.00    +0.000 C 
ATOM     13  N   UNL     1       5.778   4.469  16.839  0.00  0.00    +0.000 N 
ATOM     14  C   UNL     1       7.005   4.369  16.150  0.00  0.00    +0.000 C 
ATOM     15  O   UNL     1       8.068   4.146  16.748  0.00  0.00    +0.000 OA
ATOM     16  C   UNL     1       4.515   4.957  16.289  0.00  0.00    +0.000 C 
ATOM     17  C   UNL     1       4.138   6.291  16.945  0.00  0.00    +0.000 C 
BRANCH  14  18
ATOM     18  C   UNL     1       7.066   4.482  14.678  0.00  0.00    +0.000 A 
ATOM     19  C   UNL     1       6.295   3.587  13.925  0.00  0.00    +0.000 A 
ATOM     20  C   UNL     1       6.354   3.616  12.530  0.00  0.00    +0.000 A 
ATOM     21  C   UNL     1       7.193   4.523  11.884  0.00  0.00    +0.000 A 
ATOM     22  C   UNL     1       7.930   5.441  12.627  0.00  0.00    +0.000 A 
ATOM     23  C   UNL     1       7.836   5.448  14.021  0.00  0.00    +0.000 A 
ENDBRANCH  14  18
ENDBRANCH   9  10
ENDBRANCH   2   9
BRANCH   6  24
ATOM     24  C   UNL     1       0.943  11.391  20.089  0.00  0.00    +0.000 C 
BRANCH  24  25
ATOM     25  C   UNL     1       0.122  12.687  20.098  0.00  0.00    +0.000 C 
BRANCH  25  26
ATOM     26  C   UNL     1      -0.812  12.847  18.908  0.00  0.00    +0.000 C 
BRANCH  26  27
ATOM     27  C   UNL     1      -2.238  12.430  19.078  0.00  0.00    +0.000 A 
ATOM     28  C   UNL     1      -2.913  11.697  18.118  0.00  0.00    +0.000 A 
ATOM     29  N   UNL     1      -4.226  12.021  18.280  0.00  0.00    +0.000 N 
ATOM     30  C   UNL     1      -4.446  12.305  19.605  0.00  0.00    +0.000 A 
ATOM     31  C   UNL     1      -5.643  12.340  20.327  0.00  0.00    +0.000 A 
ATOM     32  C   UNL     1      -5.564  12.705  21.665  0.00  0.00    +0.000 A 
ATOM     33  C   UNL     1      -4.360  13.124  22.217  0.00  0.00    +0.000 A 
ATOM     34  C   UNL     1      -3.176  13.146  21.454  0.00  0.00    +0.000 A 
ATOM     35  C   UNL     1      -3.198  12.665  20.133  0.00  0.00    +0.000 A 
ATOM     36  H   UNL     1      -4.929  12.014  17.552  0.00  0.00    +0.000 HD
ENDBRANCH  26  27
ENDBRANCH  25  26
ENDBRANCH  24  25
ENDBRANCH   6  24
TORSDOF 7
ENDMDL
MODEL 2
REMARK VINA RESULT:      -8.1      2.635     12.293
REMARK  Name = 
REMARK  7 active torsions:
REMARK  status: ('A' for Active; 'I' for Inactive)
REMARK    1  A    between atoms: C_2  and  C_3
REMARK    2  A    between atoms: C_3  and  N_4
REMARK    3  A    between atoms: C_8  and  C_10
REMARK    4  A    between atoms: N_21  and  C_22
REMARK    5  A    between atoms: C_22  and  C_23
REMARK    6  A    between atoms: C_23  and  C_24
REMARK    7  A    between atoms: C_24  and  C_25
REMARK                            x       y       z     vdW  Elec       q    Type
REMARK                         _______ _______ _______ _____ _____    ______ ____
ROOT
ATOM      1  O   UNL     1       1.657   9.903  17.419  0.00  0.00    +0.000 OA
ATOM      2  C   UNL     1       1.513   9.335  18.504  0.00  0.00    +0.000 C 
ATOM      3  N   UNL     1       2.214   8.168  18.796  0.00  0.00    +0.000 N 
ATOM      4  C   UNL     1       2.259   7.478  20.091  0.00  0.00    +0.000 C 
ATOM      5  C   UNL     1       1.992   5.972  19.913  0.00  0.00    +0.000 C 
ATOM      6  N   UNL     1       2.865   5.297  18.923  0.00  0.00    +0.000 NA
ATOM      7  C   UNL     1       2.773   6.049  17.643  0.00  0.00    +0.000 C 
ATOM      8  C   UNL     1       3.058   7.563  17.762  0.00  0.00    +0.000 C 
ENDROOT
BRANCH   2   9
ATOM      9  C   UNL     1       0.509   9.832  19.580  0.00  0.00    +0.000 C 
BRANCH   9  10
ATOM     10  N   UNL     1       0.766  11.211  20.006  0.00  0.00    +0.000 NA
ATOM     11  C   UNL     1       0.306  12.265  19.069  0.00  0.00    +0.000 C 
ATOM     12  C   UNL     1      -1.113  12.863  19.275  0.00  0.00    +0.000 C 
ATOM     13  N   UNL     1      -1.468  13.033  20.680  0.00  0.00    +0.000 N 
ATOM     14  C   UNL     1      -1.818  14.309  21.170  0.00  0.00    +0.000 C 
ATOM     15  O   UNL     1      -1.831  15.305  20.432  0.00  0.00    +0.000 OA
ATOM     16  C   UNL     1      -1.189  11.845  21.483  0.00  0.00    +0.000 C 
ATOM     17  C   UNL     1       0.295  11.474  21.374  0.00  0.00    +0.000 C 
BRANCH  14  18
ATOM     18  C   UNL     1      -2.232  14.501  22.575  0.00  0.00    +0.000 A 
ATOM     19  C   UNL     1      -1.263  14.945  23.483  0.00  0.00    +0.000 A 
ATOM     20  C   UNL     1      -1.586  15.095  24.833  0.00  0.00    +0.000 A 
ATOM     21  C   UNL     1      -2.869  14.785  25.284  0.00  0.00    +0.000 A 
ATOM     22  C   UNL     1      -3.847  14.382  24.378  0.00  0.00    +0.000 A 
ATOM     23  C   UNL     1      -3.540  14.279  23.019  0.00  0.00    +0.000 A 
ENDBRANCH  14  18
ENDBRANCH   9  10
ENDBRANCH   2   9
BRANCH   6  24
ATOM     24  C   UNL     1       4.274   5.174  19.349  0.00  0.00    +0.000 C 
BRANCH  24  25
ATOM     25  C   UNL     1       4.972   3.941  18.763  0.00  0.00    +0.000 C 
BRANCH  25  26
ATOM     26  C   UNL     1       4.779   3.764  17.264  0.00  0.00    +0.000 C 
BRANCH  26  27
ATOM     27  C   UNL     1       5.884   4.209  16.360  0.00  0.00    +0.000 A 
ATOM     28  C   UNL     1       7.007   4.864  16.834  0.00  0.00    +0.000 A 
ATOM     29  N   UNL     1       7.445   5.621  15.789  0.00  0.00    +0.000 N 
ATOM     30  C   UNL     1       7.129   4.977  14.619  0.00  0.00    +0.000 A 
ATOM     31  C   UNL     1       7.651   5.146  13.334  0.00  0.00    +0.000 A 
ATOM     32  C   UNL     1       7.100   4.372  12.319  0.00  0.00    +0.000 A 
ATOM     33  C   UNL     1       6.004   3.555  12.566  0.00  0.00    +0.000 A 
ATOM     34  C   UNL     1       5.448   3.449  13.856  0.00  0.00    +0.000 A 
ATOM     35  C   UNL     1       6.060   4.123  14.927  0.00  0.00    +0.000 A 
ATOM     36  H   UNL     1       7.954   6.492  15.865  0.00  0.00    +0.000 HD
ENDBRANCH  26  27
ENDBRANCH  25  26
ENDBRANCH  24  25
ENDBRANCH   6  24
TORSDOF 7
ENDMDL
MODEL 3
REMARK VINA RESULT:      -8.1      1.393      1.962
REMARK  Name = 
REMARK  7 active torsions:
REMARK  status: ('A' for Active; 'I' for Inactive)
REMARK    1  A    between atoms: C_2  and  C_3
REMARK    2  A    between atoms: C_3  and  N_4
REMARK    3  A    between atoms: C_8  and  C_10
REMARK    4  A    between atoms: N_21  and  C_22
REMARK    5  A    between atoms: C_22  and  C_23
REMARK    6  A    between atoms: C_23  and  C_24
REMARK    7  A    between atoms: C_24  and  C_25
REMARK                            x       y       z     vdW  Elec       q    Type
REMARK                         _______ _______ _______ _____ _____    ______ ____
ROOT
ATOM      1  O   UNL     1       2.172   8.862  17.358  0.00  0.00    +0.000 OA
ATOM      2  C   UNL     1       2.157   8.247  18.428  0.00  0.00    +0.000 C 
ATOM      3  N   UNL     1       1.437   8.729  19.517  0.00  0.00    +0.000 N 
ATOM      4  C   UNL     1       1.204   8.032  20.787  0.00  0.00    +0.000 C 
ATOM      5  C   UNL     1       1.517   8.956  21.979  0.00  0.00    +0.000 C 
ATOM      6  N   UNL     1       0.816  10.261  21.956  0.00  0.00    +0.000 NA
ATOM      7  C   UNL     1       1.091  10.907  20.645  0.00  0.00    +0.000 C 
ATOM      8  C   UNL     1       0.770  10.030  19.414  0.00  0.00    +0.000 C 
ENDROOT
BRANCH   2   9
ATOM      9  C   UNL     1       2.977   6.948  18.655  0.00  0.00    +0.000 C 
BRANCH   9  10
ATOM     10  N   UNL     1       4.373   7.071  18.224  0.00  0.00    +0.000 NA
ATOM     11  C   UNL     1       5.330   6.154  18.890  0.00  0.00    +0.000 C 
ATOM     12  C   UNL     1       5.634   4.791  18.211  0.00  0.00    +0.000 C 
ATOM     13  N   UNL     1       5.710   4.875  16.757  0.00  0.00    +0.000 N 
ATOM     14  C   UNL     1       6.884   4.472  16.087  0.00  0.00    +0.000 C 
ATOM     15  O   UNL     1       7.869   4.046  16.706  0.00  0.00    +0.000 OA
ATOM     16  C   UNL     1       4.588   5.606  16.172  0.00  0.00    +0.000 C 
ATOM     17  C   UNL     1       4.517   7.020  16.762  0.00  0.00    +0.000 C 
BRANCH  14  18
ATOM     18  C   UNL     1       6.969   4.499  14.613  0.00  0.00    +0.000 A 
ATOM     19  C   UNL     1       6.192   3.578  13.899  0.00  0.00    +0.000 A 
ATOM     20  C   UNL     1       6.272   3.525  12.506  0.00  0.00    +0.000 A 
ATOM     21  C   UNL     1       7.139   4.377  11.823  0.00  0.00    +0.000 A 
ATOM     22  C   UNL     1       7.883   5.322  12.525  0.00  0.00    +0.000 A 
ATOM     23  C   UNL     1       7.768   5.411  13.914  0.00  0.00    +0.000 A 
ENDBRANCH  14  18
ENDBRANCH   9  10
ENDBRANCH   2   9
BRANCH   6  24
ATOM     24  C   UNL     1      -0.641  10.166  22.188  0.00  0.00    +0.000 C 
BRANCH  24  25
ATOM     25  C   UNL     1      -1.163  11.231  23.161  0.00  0.00    +0.000 C 
BRANCH  25  26
ATOM     26  C   UNL     1      -1.518  12.558  22.506  0.00  0.00    +0.000 C 
BRANCH  26  27
ATOM     27  C   UNL     1      -2.654  12.576  21.534  0.00  0.00    +0.000 A 
ATOM     28  C   UNL     1      -2.465  12.410  20.173  0.00  0.00    +0.000 A 
ATOM     29  N   UNL     1      -3.506  13.064  19.587  0.00  0.00    +0.000 N 
ATOM     30  C   UNL     1      -4.593  12.995  20.423  0.00  0.00    +0.000 A 
ATOM     31  C   UNL     1      -5.949  13.186  20.146  0.00  0.00    +0.000 A 
ATOM     32  C   UNL     1      -6.833  13.095  21.215  0.00  0.00    +0.000 A 
ATOM     33  C   UNL     1      -6.363  12.933  22.512  0.00  0.00    +0.000 A 
ATOM     34  C   UNL     1      -4.985  12.810  22.779  0.00  0.00    +0.000 A 
ATOM     35  C   UNL     1      -4.076  12.775  21.707  0.00  0.00    +0.000 A 
ATOM     36  H   UNL     1      -3.491  13.493  18.671  0.00  0.00    +0.000 HD
ENDBRANCH  26  27
ENDBRANCH  25  26
ENDBRANCH  24  25
ENDBRANCH   6  24
TORSDOF 7
ENDMDL
MODEL 4
REMARK VINA RESULT:      -8.0      1.992      2.879
REMARK  Name = 
REMARK  7 active torsions:
REMARK  status: ('A' for Active; 'I' for Inactive)
REMARK    1  A    between atoms: C_2  and  C_3
REMARK    2  A    between atoms: C_3  and  N_4
REMARK    3  A    between atoms: C_8  and  C_10
REMARK    4  A    between atoms: N_21  and  C_22
REMARK    5  A    between atoms: C_22  and  C_23
REMARK    6  A    between atoms: C_23  and  C_24
REMARK    7  A    between atoms: C_24  and  C_25
REMARK                            x       y       z     vdW  Elec       q    Type
REMARK                         _______ _______ _______ _____ _____    ______ ____
ROOT
ATOM      1  O   UNL     1       1.803   8.354  17.522  0.00  0.00    +0.000 OA
ATOM      2  C   UNL     1       1.942   7.905  18.662  0.00  0.00    +0.000 C 
ATOM      3  N   UNL     1       1.294   8.493  19.744  0.00  0.00    +0.000 N 
ATOM      4  C   UNL     1       1.244   7.978  21.117  0.00  0.00    +0.000 C 
ATOM      5  C   UNL     1       1.592   9.088  22.127  0.00  0.00    +0.000 C 
ATOM      6  N   UNL     1       0.786  10.324  21.996  0.00  0.00    +0.000 NA
ATOM      7  C   UNL     1       0.878  10.785  20.585  0.00  0.00    +0.000 C 
ATOM      8  C   UNL     1       0.513   9.716  19.532  0.00  0.00    +0.000 C 
ENDROOT
BRANCH   2   9
ATOM      9  C   UNL     1       2.886   6.713  18.980  0.00  0.00    +0.000 C 
BRANCH   9  10
ATOM     10  N   UNL     1       4.255   6.926  18.501  0.00  0.00    +0.000 NA
ATOM     11  C   UNL     1       5.299   6.110  19.168  0.00  0.00    +0.000 C 
ATOM     12  C   UNL     1       5.688   4.748  18.529  0.00  0.00    +0.000 C 
ATOM     13  N   UNL     1       5.714   4.783  17.071  0.00  0.00    +0.000 N 
ATOM     14  C   UNL     1       6.896   4.445  16.379  0.00  0.00    +0.000 C 
ATOM     15  O   UNL     1       7.929   4.119  16.981  0.00  0.00    +0.000 OA
ATOM     16  C   UNL     1       4.523   5.404  16.496  0.00  0.00    +0.000 C 
ATOM     17  C   UNL     1       4.361   6.830  17.038  0.00  0.00    +0.000 C 
BRANCH  14  18
ATOM     18  C   UNL     1       6.936   4.423  14.903  0.00  0.00    +0.000 A 
ATOM     19  C   UNL     1       7.833   5.288  14.263  0.00  0.00    +0.000 A 
ATOM     20  C   UNL     1       7.876   5.344  12.868  0.00  0.00    +0.000 A 
ATOM     21  C   UNL     1       7.016   4.551  12.109  0.00  0.00    +0.000 A 
ATOM     22  C   UNL     1       6.151   3.660  12.740  0.00  0.00    +0.000 A 
ATOM     23  C   UNL     1       6.141   3.566  14.134  0.00  0.00    +0.000 A 
ENDBRANCH  14  18
ENDBRANCH   9  10
ENDBRANCH   2   9
BRANCH   6  24
ATOM     24  C   UNL     1      -0.628  10.165  22.395  0.00  0.00    +0.000 C 
BRANCH  24  25
ATOM     25  C   UNL     1      -1.210  11.422  23.053  0.00  0.00    +0.000 C 
BRANCH  25  26
ATOM     26  C   UNL     1      -2.400  12.021  22.318  0.00  0.00    +0.000 C 
BRANCH  26  27
ATOM     27  C   UNL     1      -3.589  12.429  23.128  0.00  0.00    +0.000 A 
ATOM     28  C   UNL     1      -3.628  12.290  24.504  0.00  0.00    +0.000 A 
ATOM     29  N   UNL     1      -4.948  12.157  24.812  0.00  0.00    +0.000 N 
ATOM     30  C   UNL     1      -5.684  12.867  23.895  0.00  0.00    +0.000 A 
ATOM     31  C   UNL     1      -7.000  13.331  23.969  0.00  0.00    +0.000 A 
ATOM     32  C   UNL     1      -7.502  13.993  22.854  0.00  0.00    +0.000 A 
ATOM     33  C   UNL     1      -6.755  14.082  21.686  0.00  0.00    +0.000 A 
ATOM     34  C   UNL     1      -5.454  13.547  21.609  0.00  0.00    +0.000 A 
ATOM     35  C   UNL     1      -4.873  12.981  22.757  0.00  0.00    +0.000 A 
ATOM     36  H   UNL     1      -5.321  11.654  25.606  0.00  0.00    +0.000 HD
ENDBRANCH  26  27
ENDBRANCH  25  26
ENDBRANCH  24  25
ENDBRANCH   6  24
TORSDOF 7
ENDMDL
MODEL 5
REMARK VINA RESULT:      -7.9      0.868      1.366
REMARK  Name = 
REMARK  7 active torsions:
REMARK  status: ('A' for Active; 'I' for Inactive)
REMARK    1  A    between atoms: C_2  and  C_3
REMARK    2  A    between atoms: C_3  and  N_4
REMARK    3  A    between atoms: C_8  and  C_10
REMARK    4  A    between atoms: N_21  and  C_22
REMARK    5  A    between atoms: C_22  and  C_23
REMARK    6  A    between atoms: C_23  and  C_24
REMARK    7  A    between atoms: C_24  and  C_25
REMARK                            x       y       z     vdW  Elec       q    Type
REMARK                         _______ _______ _______ _____ _____    ______ ____
ROOT
ATOM      1  O   UNL     1       2.088   5.775  21.058  0.00  0.00    +0.000 OA
ATOM      2  C   UNL     1       2.138   6.527  20.081  0.00  0.00    +0.000 C 
ATOM      3  N   UNL     1       1.768   7.864  20.192  0.00  0.00    +0.000 N 
ATOM      4  C   UNL     1       1.923   8.901  19.164  0.00  0.00    +0.000 C 
ATOM      5  C   UNL     1       0.611   9.689  18.987  0.00  0.00    +0.000 C 
ATOM      6  N   UNL     1       0.053  10.260  20.234  0.00  0.00    +0.000 NA
ATOM      7  C   UNL     1      -0.071   9.160  21.228  0.00  0.00    +0.000 C 
ATOM      8  C   UNL     1       1.225   8.353  21.463  0.00  0.00    +0.000 C 
ENDROOT
BRANCH   2   9
ATOM      9  C   UNL     1       2.546   6.032  18.667  0.00  0.00    +0.000 C 
BRANCH   9  10
ATOM     10  N   UNL     1       3.908   6.425  18.295  0.00  0.00    +0.000 NA
ATOM     11  C   UNL     1       4.996   5.668  18.963  0.00  0.00    +0.000 C 
ATOM     12  C   UNL     1       5.565   4.413  18.246  0.00  0.00    +0.000 C 
ATOM     13  N   UNL     1       5.669   4.573  16.799  0.00  0.00    +0.000 N 
ATOM     14  C   UNL     1       6.917   4.419  16.161  0.00  0.00    +0.000 C 
ATOM     15  O   UNL     1       7.944   4.152  16.801  0.00  0.00    +0.000 OA
ATOM     16  C   UNL     1       4.451   5.113  16.199  0.00  0.00    +0.000 C 
ATOM     17  C   UNL     1       4.105   6.465  16.839  0.00  0.00    +0.000 C 
BRANCH  14  18
ATOM     18  C   UNL     1       7.042   4.525  14.693  0.00  0.00    +0.000 A 
ATOM     19  C   UNL     1       6.296   3.635  13.910  0.00  0.00    +0.000 A 
ATOM     20  C   UNL     1       6.414   3.658  12.519  0.00  0.00    +0.000 A 
ATOM     21  C   UNL     1       7.288   4.555  11.906  0.00  0.00    +0.000 A 
ATOM     22  C   UNL     1       8.002   5.469  12.677  0.00  0.00    +0.000 A 
ATOM     23  C   UNL     1       7.848   5.482  14.066  0.00  0.00    +0.000 A 
ENDBRANCH  14  18
ENDBRANCH   9  10
ENDBRANCH   2   9
BRANCH   6  24
ATOM     24  C   UNL     1       0.849  11.373  20.794  0.00  0.00    +0.000 C 
BRANCH  24  25
ATOM     25  C   UNL     1       0.394  12.748  20.289  0.00  0.00    +0.000 C 
BRANCH  25  26
ATOM     26  C   UNL     1      -0.860  12.717  19.428  0.00  0.00    +0.000 C 
BRANCH  26  27
ATOM     27  C   UNL     1      -2.175  12.949  20.101  0.00  0.00    +0.000 A 
ATOM     28  C   UNL     1      -2.300  13.752  21.221  0.00  0.00    +0.000 A 
ATOM     29  N   UNL     1      -3.387  13.270  21.885  0.00  0.00    +0.000 N 
ATOM     30  C   UNL     1      -4.269  12.756  20.967  0.00  0.00    +0.000 A 
ATOM     31  C   UNL     1      -5.633  12.480  21.091  0.00  0.00    +0.000 A 
ATOM     32  C   UNL     1      -6.268  11.915  19.992  0.00  0.00    +0.000 A 
ATOM     33  C   UNL     1      -5.542  11.542  18.868  0.00  0.00    +0.000 A 
ATOM     34  C   UNL     1      -4.153  11.766  18.788  0.00  0.00    +0.000 A 
ATOM     35  C   UNL     1      -3.505  12.448  19.832  0.00  0.00    +0.000 A 
ATOM     36  H   UNL     1      -3.538  13.320  22.885  0.00  0.00    +0.000 HD
ENDBRANCH  26  27
ENDBRANCH  25  26
ENDBRANCH  24  25
ENDBRANCH   6  24
TORSDOF 7
ENDMDL
MODEL 6
REMARK VINA RESULT:      -7.8      2.567     12.009
REMARK  Name = 
REMARK  7 active torsions:
REMARK  status: ('A' for Active; 'I' for Inactive)
REMARK    1  A    between atoms: C_2  and  C_3
REMARK    2  A    between atoms: C_3  and  N_4
REMARK    3  A    between atoms: C_8  and  C_10
REMARK    4  A    between atoms: N_21  and  C_22
REMARK    5  A    between atoms: C_22  and  C_23
REMARK    6  A    between atoms: C_23  and  C_24
REMARK    7  A    between atoms: C_24  and  C_25
REMARK                            x       y       z     vdW  Elec       q    Type
REMARK                         _______ _______ _______ _____ _____    ______ ____
ROOT
ATOM      1  O   UNL     1       1.036   9.694  22.180  0.00  0.00    +0.000 OA
ATOM      2  C   UNL     1       1.138   9.933  20.974  0.00  0.00    +0.000 C 
ATOM      3  N   UNL     1       1.318   8.903  20.056  0.00  0.00    +0.000 N 
ATOM      4  C   UNL     1       1.299   9.024  18.593  0.00  0.00    +0.000 C 
ATOM      5  C   UNL     1       2.518   8.314  17.974  0.00  0.00    +0.000 C 
ATOM      6  N   UNL     1       2.692   6.901  18.386  0.00  0.00    +0.000 NA
ATOM      7  C   UNL     1       2.697   6.853  19.872  0.00  0.00    +0.000 C 
ATOM      8  C   UNL     1       1.481   7.530  20.544  0.00  0.00    +0.000 C 
ENDROOT
BRANCH   2   9
ATOM      9  C   UNL     1       1.140  11.379  20.408  0.00  0.00    +0.000 C 
BRANCH   9  10
ATOM     10  N   UNL     1       0.514  12.347  21.312  0.00  0.00    +0.000 NA
ATOM     11  C   UNL     1       0.347  13.717  20.765  0.00  0.00    +0.000 C 
ATOM     12  C   UNL     1      -0.995  14.069  20.065  0.00  0.00    +0.000 C 
ATOM     13  N   UNL     1      -2.158  13.476  20.716  0.00  0.00    +0.000 N 
ATOM     14  C   UNL     1      -3.201  14.301  21.186  0.00  0.00    +0.000 C 
ATOM     15  O   UNL     1      -3.157  15.534  21.064  0.00  0.00    +0.000 OA
ATOM     16  C   UNL     1      -1.982  12.055  21.006  0.00  0.00    +0.000 C 
ATOM     17  C   UNL     1      -0.743  11.848  21.888  0.00  0.00    +0.000 C 
BRANCH  14  18
ATOM     18  C   UNL     1      -4.413  13.724  21.802  0.00  0.00    +0.000 A 
ATOM     19  C   UNL     1      -5.382  13.183  20.948  0.00  0.00    +0.000 A 
ATOM     20  C   UNL     1      -6.570  12.669  21.474  0.00  0.00    +0.000 A 
ATOM     21  C   UNL     1      -6.801  12.710  22.848  0.00  0.00    +0.000 A 
ATOM     22  C   UNL     1      -5.823  13.210  23.705  0.00  0.00    +0.000 A 
ATOM     23  C   UNL     1      -4.614  13.679  23.186  0.00  0.00    +0.000 A 
ENDBRANCH  14  18
ENDBRANCH   9  10
ENDBRANCH   2   9
BRANCH   6  24
ATOM     24  C   UNL     1       1.665   5.986  17.844  0.00  0.00    +0.000 C 
BRANCH  24  25
ATOM     25  C   UNL     1       1.638   4.628  18.555  0.00  0.00    +0.000 C 
BRANCH  25  26
ATOM     26  C   UNL     1       2.514   3.564  17.909  0.00  0.00    +0.000 C 
BRANCH  26  27
ATOM     27  C   UNL     1       3.998   3.731  18.001  0.00  0.00    +0.000 A 
ATOM     28  C   UNL     1       4.692   3.532  19.182  0.00  0.00    +0.000 A 
ATOM     29  N   UNL     1       5.799   4.319  19.081  0.00  0.00    +0.000 N 
ATOM     30  C   UNL     1       6.156   4.404  17.757  0.00  0.00    +0.000 A 
ATOM     31  C   UNL     1       7.373   4.776  17.180  0.00  0.00    +0.000 A 
ATOM     32  C   UNL     1       7.430   4.812  15.791  0.00  0.00    +0.000 A 
ATOM     33  C   UNL     1       6.290   4.596  15.028  0.00  0.00    +0.000 A 
ATOM     34  C   UNL     1       5.055   4.288  15.633  0.00  0.00    +0.000 A 
ATOM     35  C   UNL     1       4.992   4.123  17.027  0.00  0.00    +0.000 A 
ATOM     36  H   UNL     1       6.299   4.736  19.855  0.00  0.00    +0.000 HD
ENDBRANCH  26  27
ENDBRANCH  25  26
ENDBRANCH  24  25
ENDBRANCH   6  24
TORSDOF 7
ENDMDL
MODEL 7
REMARK VINA RESULT:      -7.8      2.690     11.097
REMARK  Name = 
REMARK  7 active torsions:
REMARK  status: ('A' for Active; 'I' for Inactive)
REMARK    1  A    between atoms: C_2  and  C_3
REMARK    2  A    between atoms: C_3  and  N_4
REMARK    3  A    between atoms: C_8  and  C_10
REMARK    4  A    between atoms: N_21  and  C_22
REMARK    5  A    between atoms: C_22  and  C_23
REMARK    6  A    between atoms: C_23  and  C_24
REMARK    7  A    between atoms: C_24  and  C_25
REMARK                            x       y       z     vdW  Elec       q    Type
REMARK                         _______ _______ _______ _____ _____    ______ ____
ROOT
ATOM      1  O   UNL     1       2.208   8.162  17.978  0.00  0.00    +0.000 OA
ATOM      2  C   UNL     1       2.063   7.577  19.055  0.00  0.00    +0.000 C 
ATOM      3  N   UNL     1       2.113   6.188  19.123  0.00  0.00    +0.000 N 
ATOM      4  C   UNL     1       2.111   5.373  20.344  0.00  0.00    +0.000 C 
ATOM      5  C   UNL     1       1.077   4.237  20.237  0.00  0.00    +0.000 C 
ATOM      6  N   UNL     1       1.210   3.384  19.033  0.00  0.00    +0.000 NA
ATOM      7  C   UNL     1       1.209   4.272  17.839  0.00  0.00    +0.000 C 
ATOM      8  C   UNL     1       2.247   5.415  17.885  0.00  0.00    +0.000 C 
ENDROOT
BRANCH   2   9
ATOM      9  C   UNL     1       1.751   8.329  20.378  0.00  0.00    +0.000 C 
BRANCH   9  10
ATOM     10  N   UNL     1       0.374   8.825  20.442  0.00  0.00    +0.000 NA
ATOM     11  C   UNL     1      -0.348   8.544  21.708  0.00  0.00    +0.000 C 
ATOM     12  C   UNL     1      -0.307   9.617  22.830  0.00  0.00    +0.000 C 
ATOM     13  N   UNL     1      -0.378  10.983  22.324  0.00  0.00    +0.000 N 
ATOM     14  C   UNL     1      -1.411  11.842  22.753  0.00  0.00    +0.000 C 
ATOM     15  O   UNL     1      -2.276  11.464  23.557  0.00  0.00    +0.000 OA
ATOM     16  C   UNL     1       0.547  11.227  21.219  0.00  0.00    +0.000 C 
ATOM     17  C   UNL     1       0.269  10.244  20.075  0.00  0.00    +0.000 C 
BRANCH  14  18
ATOM     18  C   UNL     1      -1.477  13.245  22.297  0.00  0.00    +0.000 A 
ATOM     19  C   UNL     1      -0.797  14.208  23.053  0.00  0.00    +0.000 A 
ATOM     20  C   UNL     1      -0.867  15.556  22.696  0.00  0.00    +0.000 A 
ATOM     21  C   UNL     1      -1.629  15.949  21.596  0.00  0.00    +0.000 A 
ATOM     22  C   UNL     1      -2.274  14.991  20.817  0.00  0.00    +0.000 A 
ATOM     23  C   UNL     1      -2.165  13.637  21.143  0.00  0.00    +0.000 A 
ENDBRANCH  14  18
ENDBRANCH   9  10
ENDBRANCH   2   9
BRANCH   6  24
ATOM     24  C   UNL     1       2.412   2.525  19.035  0.00  0.00    +0.000 C 
BRANCH  24  25
ATOM     25  C   UNL     1       3.414   2.898  20.134  0.00  0.00    +0.000 C 
BRANCH  25  26
ATOM     26  C   UNL     1       4.867   2.896  19.684  0.00  0.00    +0.000 C 
BRANCH  26  27
ATOM     27  C   UNL     1       5.344   4.048  18.858  0.00  0.00    +0.000 A 
ATOM     28  C   UNL     1       5.873   5.195  19.425  0.00  0.00    +0.000 A 
ATOM     29  N   UNL     1       5.621   6.185  18.525  0.00  0.00    +0.000 N 
ATOM     30  C   UNL     1       5.631   5.643  17.263  0.00  0.00    +0.000 A 
ATOM     31  C   UNL     1       5.778   6.266  16.021  0.00  0.00    +0.000 A 
ATOM     32  C   UNL     1       5.703   5.457  14.894  0.00  0.00    +0.000 A 
ATOM     33  C   UNL     1       5.383   4.110  15.007  0.00  0.00    +0.000 A 
ATOM     34  C   UNL     1       5.172   3.513  16.266  0.00  0.00    +0.000 A 
ATOM     35  C   UNL     1       5.362   4.277  17.431  0.00  0.00    +0.000 A 
ATOM     36  H   UNL     1       5.490   7.164  18.746  0.00  0.00    +0.000 HD
ENDBRANCH  26  27
ENDBRANCH  25  26
ENDBRANCH  24  25
ENDBRANCH   6  24
TORSDOF 7
ENDMDL
MODEL 8
REMARK VINA RESULT:      -7.8      6.511     11.496
REMARK  Name = 
REMARK  7 active torsions:
REMARK  status: ('A' for Active; 'I' for Inactive)
REMARK    1  A    between atoms: C_2  and  C_3
REMARK    2  A    between atoms: C_3  and  N_4
REMARK    3  A    between atoms: C_8  and  C_10
REMARK    4  A    between atoms: N_21  and  C_22
REMARK    5  A    between atoms: C_22  and  C_23
REMARK    6  A    between atoms: C_23  and  C_24
REMARK    7  A    between atoms: C_24  and  C_25
REMARK                            x       y       z     vdW  Elec       q    Type
REMARK                         _______ _______ _______ _____ _____    ______ ____
ROOT
ATOM      1  O   UNL     1       4.021  13.759  22.058  0.00  0.00    +0.000 OA
ATOM      2  C   UNL     1       3.917  14.276  20.943  0.00  0.00    +0.000 C 
ATOM      3  N   UNL     1       4.992  14.946  20.366  0.00  0.00    +0.000 N 
ATOM      4  C   UNL     1       5.060  15.470  18.996  0.00  0.00    +0.000 C 
ATOM      5  C   UNL     1       5.566  16.925  18.996  0.00  0.00    +0.000 C 
ATOM      6  N   UNL     1       6.847  17.140  19.708  0.00  0.00    +0.000 NA
ATOM      7  C   UNL     1       6.707  16.584  21.081  0.00  0.00    +0.000 C 
ATOM      8  C   UNL     1       6.226  15.117  21.137  0.00  0.00    +0.000 C 
ENDROOT
BRANCH   2   9
ATOM      9  C   UNL     1       2.586  14.275  20.143  0.00  0.00    +0.000 C 
BRANCH   9  10
ATOM     10  N   UNL     1       1.716  13.145  20.482  0.00  0.00    +0.000 NA
ATOM     11  C   UNL     1       0.560  13.468  21.354  0.00  0.00    +0.000 C 
ATOM     12  C   UNL     1      -0.793  13.821  20.678  0.00  0.00    +0.000 C 
ATOM     13  N   UNL     1      -1.070  13.021  19.491  0.00  0.00    +0.000 N 
ATOM     14  C   UNL     1      -2.245  12.243  19.422  0.00  0.00    +0.000 C 
ATOM     15  O   UNL     1      -3.059  12.215  20.357  0.00  0.00    +0.000 OA
ATOM     16  C   UNL     1       0.065  12.955  18.573  0.00  0.00    +0.000 C 
ATOM     17  C   UNL     1       1.292  12.386  19.297  0.00  0.00    +0.000 C 
BRANCH  14  18
ATOM     18  C   UNL     1      -2.576  11.464  18.212  0.00  0.00    +0.000 A 
ATOM     19  C   UNL     1      -3.782  11.752  17.562  0.00  0.00    +0.000 A 
ATOM     20  C   UNL     1      -4.169  11.011  16.443  0.00  0.00    +0.000 A 
ATOM     21  C   UNL     1      -3.362   9.972  15.980  0.00  0.00    +0.000 A 
ATOM     22  C   UNL     1      -2.142   9.709  16.598  0.00  0.00    +0.000 A 
ATOM     23  C   UNL     1      -1.731  10.480  17.687  0.00  0.00    +0.000 A 
ENDBRANCH  14  18
ENDBRANCH   9  10
ENDBRANCH   2   9
BRANCH   6  24
ATOM     24  C   UNL     1       8.019  16.549  19.030  0.00  0.00    +0.000 C 
BRANCH  24  25
ATOM     25  C   UNL     1       9.224  16.373  19.962  0.00  0.00    +0.000 C 
BRANCH  25  26
ATOM     26  C   UNL     1      10.487  15.882  19.269  0.00  0.00    +0.000 C 
BRANCH  26  27
ATOM     27  C   UNL     1      10.472  14.506  18.684  0.00  0.00    +0.000 A 
ATOM     28  C   UNL     1      10.873  14.251  17.384  0.00  0.00    +0.000 A 
ATOM     29  N   UNL     1      10.188  13.134  17.012  0.00  0.00    +0.000 N 
ATOM     30  C   UNL     1       9.981  12.357  18.125  0.00  0.00    +0.000 A 
ATOM     31  C   UNL     1       9.659  11.000  18.223  0.00  0.00    +0.000 A 
ATOM     32  C   UNL     1       9.465  10.486  19.500  0.00  0.00    +0.000 A 
ATOM     33  C   UNL     1       9.481  11.320  20.611  0.00  0.00    +0.000 A 
ATOM     34  C   UNL     1       9.741  12.699  20.484  0.00  0.00    +0.000 A 
ATOM     35  C   UNL     1      10.063  13.227  19.221  0.00  0.00    +0.000 A 
ATOM     36  H   UNL     1       9.914  12.898  16.067  0.00  0.00    +0.000 HD
ENDBRANCH  26  27
ENDBRANCH  25  26
ENDBRANCH  24  25
ENDBRANCH   6  24
TORSDOF 7
ENDMDL
MODEL 9
REMARK VINA RESULT:      -7.8      2.624     11.631
REMARK  Name = 
REMARK  7 active torsions:
REMARK  status: ('A' for Active; 'I' for Inactive)
REMARK    1  A    between atoms: C_2  and  C_3
REMARK    2  A    between atoms: C_3  and  N_4
REMARK    3  A    between atoms: C_8  and  C_10
REMARK    4  A    between atoms: N_21  and  C_22
REMARK    5  A    between atoms: C_22  and  C_23
REMARK    6  A    between atoms: C_23  and  C_24
REMARK    7  A    between atoms: C_24  and  C_25
REMARK                            x       y       z     vdW  Elec       q    Type
REMARK                         _______ _______ _______ _____ _____    ______ ____
ROOT
ATOM      1  O   UNL     1       2.081   8.398  18.170  0.00  0.00    +0.000 OA
ATOM      2  C   UNL     1       2.020   7.720  19.199  0.00  0.00    +0.000 C 
ATOM      3  N   UNL     1       2.262   6.350  19.165  0.00  0.00    +0.000 N 
ATOM      4  C   UNL     1       2.376   5.454  20.322  0.00  0.00    +0.000 C 
ATOM      5  C   UNL     1       1.508   4.197  20.122  0.00  0.00    +0.000 C 
ATOM      6  N   UNL     1       1.756   3.463  18.859  0.00  0.00    +0.000 NA
ATOM      7  C   UNL     1       1.630   4.428  17.735  0.00  0.00    +0.000 C 
ATOM      8  C   UNL     1       2.500   5.697  17.874  0.00  0.00    +0.000 C 
ENDROOT
BRANCH   2   9
ATOM      9  C   UNL     1       1.610   8.320  20.571  0.00  0.00    +0.000 C 
BRANCH   9  10
ATOM     10  N   UNL     1       0.266   8.907  20.559  0.00  0.00    +0.000 NA
ATOM     11  C   UNL     1      -0.562   8.629  21.758  0.00  0.00    +0.000 C 
ATOM     12  C   UNL     1      -0.533   9.654  22.925  0.00  0.00    +0.000 C 
ATOM     13  N   UNL     1      -0.477  11.040  22.473  0.00  0.00    +0.000 N 
ATOM     14  C   UNL     1      -1.481  11.951  22.864  0.00  0.00    +0.000 C 
ATOM     15  O   UNL     1      -2.425  11.603  23.588  0.00  0.00    +0.000 OA
ATOM     16  C   UNL     1       0.540  11.261  21.447  0.00  0.00    +0.000 C 
ATOM     17  C   UNL     1       0.282  10.343  20.245  0.00  0.00    +0.000 C 
BRANCH  14  18
ATOM     18  C   UNL     1      -1.421  13.371  22.463  0.00  0.00    +0.000 A 
ATOM     19  C   UNL     1      -1.000  14.301  23.422  0.00  0.00    +0.000 A 
ATOM     20  C   UNL     1      -0.973  15.663  23.113  0.00  0.00    +0.000 A 
ATOM     21  C   UNL     1      -1.381  16.101  21.854  0.00  0.00    +0.000 A 
ATOM     22  C   UNL     1      -1.761  15.178  20.884  0.00  0.00    +0.000 A 
ATOM     23  C   UNL     1      -1.742  13.812  21.174  0.00  0.00    +0.000 A 
ENDBRANCH  14  18
ENDBRANCH   9  10
ENDBRANCH   2   9
BRANCH   6  24
ATOM     24  C   UNL     1       3.066   2.780  18.808  0.00  0.00    +0.000 C 
BRANCH  24  25
ATOM     25  C   UNL     1       3.943   3.253  17.642  0.00  0.00    +0.000 C 
BRANCH  25  26
ATOM     26  C   UNL     1       5.155   4.072  18.061  0.00  0.00    +0.000 C 
BRANCH  26  27
ATOM     27  C   UNL     1       6.123   4.482  16.997  0.00  0.00    +0.000 A 
ATOM     28  C   UNL     1       7.265   5.211  17.279  0.00  0.00    +0.000 A 
ATOM     29  N   UNL     1       7.540   5.897  16.135  0.00  0.00    +0.000 N 
ATOM     30  C   UNL     1       7.115   5.151  15.064  0.00  0.00    +0.000 A 
ATOM     31  C   UNL     1       7.472   5.235  13.715  0.00  0.00    +0.000 A 
ATOM     32  C   UNL     1       6.838   4.364  12.837  0.00  0.00    +0.000 A 
ATOM     33  C   UNL     1       5.816   3.531  13.277  0.00  0.00    +0.000 A 
ATOM     34  C   UNL     1       5.424   3.509  14.630  0.00  0.00    +0.000 A 
ATOM     35  C   UNL     1       6.130   4.288  15.564  0.00  0.00    +0.000 A 
ATOM     36  H   UNL     1       8.016   6.788  16.082  0.00  0.00    +0.000 HD
ENDBRANCH  26  27
ENDBRANCH  25  26
ENDBRANCH  24  25
ENDBRANCH   6  24
TORSDOF 7
ENDMDL
