MODEL 1
REMARK VINA RESULT:      -6.6      0.000      0.000
REMARK  Name = 
REMARK  10 active torsions:
REMARK  status: ('A' for Active; 'I' for Inactive)
REMARK    1  A    between atoms: C_1  and  C_2
REMARK    2  A    between atoms: C_5  and  C_6
REMARK    3  A    between atoms: C_7  and  C_8
REMARK    4  A    between atoms: C_8  and  C_9
REMARK    5  A    between atoms: N_11  and  C_12
REMARK    6  A    between atoms: C_17  and  S_18
REMARK    7  A    between atoms: S_18  and  C_19
REMARK    8  A    between atoms: C_19  and  C_20
REMARK    9  A    between atoms: C_20  and  C_21
REMARK   10  A    between atoms: C_21  and  O_22
REMARK                            x       y       z     vdW  Elec       q    Type
REMARK                         _______ _______ _______ _____ _____    ______ ____
ROOT
ATOM      1  C   UNL     1       6.098   4.311  18.974  0.00  0.00    +0.000 C 
ATOM      2  O   UNL     1       6.278   4.976  19.997  0.00  0.00    +0.000 OA
ATOM      3  N   UNL     1       5.045   3.429  18.802  0.00  0.00    +0.000 N 
ATOM      4  H   UNL     1       5.240   2.590  18.263  0.00  0.00    +0.000 HD
ENDROOT
BRANCH   3   5
ATOM      5  C   UNL     1       3.975   3.348  19.732  0.00  0.00    +0.000 A 
ATOM      6  C   UNL     1       4.013   2.466  20.812  0.00  0.00    +0.000 A 
ATOM      7  N   UNL     1       3.036   2.352  21.745  0.00  0.00    +0.000 NA
ATOM      8  C   UNL     1       1.945   3.124  21.573  0.00  0.00    +0.000 A 
ATOM      9  C   UNL     1       1.805   4.032  20.535  0.00  0.00    +0.000 A 
ATOM     10  C   UNL     1       2.849   4.178  19.613  0.00  0.00    +0.000 A 
BRANCH  10  11
ATOM     11  S   UNL     1       2.672   5.261  18.189  0.00  0.00    +0.000 S 
BRANCH  11  12
ATOM     12  C   UNL     1       2.374   6.885  18.967  0.00  0.00    +0.000 C 
BRANCH  12  13
ATOM     13  C   UNL     1       2.577   8.018  17.971  0.00  0.00    +0.000 C 
BRANCH  13  14
ATOM     14  C   UNL     1       1.801   9.258  18.394  0.00  0.00    +0.000 C 
BRANCH  14  15
ATOM     15  O   UNL     1       1.796  10.206  17.336  0.00  0.00    +0.000 OA
ATOM     16  H   UNL     1       2.028   9.738  16.515  0.00  0.00    +0.000 HD
ENDBRANCH  14  15
ENDBRANCH  13  14
ENDBRANCH  12  13
ENDBRANCH  11  12
ENDBRANCH  10  11
ENDBRANCH   3   5
BRANCH   1  17
ATOM     17  C   UNL     1       7.015   4.457  17.774  0.00  0.00    +0.000 C 
BRANCH  17  24
ATOM     18  C   UNL     1       6.169   3.289  12.929  0.00  0.00    +0.000 C 
ATOM     19  C   UNL     1       5.983   4.230  14.080  0.00  0.00    +0.000 A 
ATOM     20  C   UNL     1       5.407   5.489  13.881  0.00  0.00    +0.000 A 
ATOM     21  C   UNL     1       5.337   6.400  14.929  0.00  0.00    +0.000 A 
ATOM     22  C   UNL     1       5.839   6.079  16.202  0.00  0.00    +0.000 A 
ATOM     23  C   UNL     1       5.869   7.166  17.244  0.00  0.00    +0.000 C 
ATOM     24  C   UNL     1       6.379   4.792  16.438  0.00  0.00    +0.000 A 
ATOM     25  C   UNL     1       6.456   3.891  15.358  0.00  0.00    +0.000 A 
ENDBRANCH  17  24
ENDBRANCH   1  17
TORSDOF 8
ENDMDL
MODEL 2
REMARK VINA RESULT:      -6.5      2.808      7.099
REMARK  Name = 
REMARK  10 active torsions:
REMARK  status: ('A' for Active; 'I' for Inactive)
REMARK    1  A    between atoms: C_1  and  C_2
REMARK    2  A    between atoms: C_5  and  C_6
REMARK    3  A    between atoms: C_7  and  C_8
REMARK    4  A    between atoms: C_8  and  C_9
REMARK    5  A    between atoms: N_11  and  C_12
REMARK    6  A    between atoms: C_17  and  S_18
REMARK    7  A    between atoms: S_18  and  C_19
REMARK    8  A    between atoms: C_19  and  C_20
REMARK    9  A    between atoms: C_20  and  C_21
REMARK   10  A    between atoms: C_21  and  O_22
REMARK                            x       y       z     vdW  Elec       q    Type
REMARK                         _______ _______ _______ _____ _____    ______ ____
ROOT
ATOM      1  C   UNL     1       2.060   8.433  18.324  0.00  0.00    +0.000 C 
ATOM      2  O   UNL     1       2.331   8.926  17.226  0.00  0.00    +0.000 OA
ATOM      3  N   UNL     1       2.499   7.188  18.740  0.00  0.00    +0.000 N 
ATOM      4  H   UNL     1       1.859   6.652  19.321  0.00  0.00    +0.000 HD
ENDROOT
BRANCH   3   5
ATOM      5  C   UNL     1       3.454   6.443  17.999  0.00  0.00    +0.000 A 
ATOM      6  C   UNL     1       4.689   6.988  17.647  0.00  0.00    +0.000 A 
ATOM      7  N   UNL     1       5.652   6.326  16.959  0.00  0.00    +0.000 NA
ATOM      8  C   UNL     1       5.356   5.073  16.562  0.00  0.00    +0.000 A 
ATOM      9  C   UNL     1       4.159   4.438  16.858  0.00  0.00    +0.000 A 
ATOM     10  C   UNL     1       3.200   5.116  17.619  0.00  0.00    +0.000 A 
BRANCH  10  11
ATOM     11  S   UNL     1       1.591   4.379  17.936  0.00  0.00    +0.000 S 
BRANCH  11  12
ATOM     12  C   UNL     1       1.995   3.054  19.125  0.00  0.00    +0.000 C 
BRANCH  12  13
ATOM     13  C   UNL     1       1.243   3.243  20.436  0.00  0.00    +0.000 C 
BRANCH  13  14
ATOM     14  C   UNL     1       2.155   3.829  21.505  0.00  0.00    +0.000 C 
BRANCH  14  15
ATOM     15  O   UNL     1       2.393   5.203  21.234  0.00  0.00    +0.000 OA
ATOM     16  H   UNL     1       3.114   5.259  20.583  0.00  0.00    +0.000 HD
ENDBRANCH  14  15
ENDBRANCH  13  14
ENDBRANCH  12  13
ENDBRANCH  11  12
ENDBRANCH  10  11
ENDBRANCH   3   5
BRANCH   1  17
ATOM     17  C   UNL     1       1.247   9.202  19.349  0.00  0.00    +0.000 C 
BRANCH  17  24
ATOM     18  C   UNL     1      -2.735   9.922  16.318  0.00  0.00    +0.000 C 
ATOM     19  C   UNL     1      -1.787  10.452  17.350  0.00  0.00    +0.000 A 
ATOM     20  C   UNL     1      -1.796  11.809  17.691  0.00  0.00    +0.000 A 
ATOM     21  C   UNL     1      -0.843  12.317  18.567  0.00  0.00    +0.000 A 
ATOM     22  C   UNL     1       0.142  11.485  19.127  0.00  0.00    +0.000 A 
ATOM     23  C   UNL     1       1.230  12.130  19.943  0.00  0.00    +0.000 C 
ATOM     24  C   UNL     1       0.137  10.099  18.836  0.00  0.00    +0.000 A 
ATOM     25  C   UNL     1      -0.826   9.610  17.932  0.00  0.00    +0.000 A 
ENDBRANCH  17  24
ENDBRANCH   1  17
TORSDOF 8
ENDMDL
MODEL 3
REMARK VINA RESULT:      -6.4      4.253      6.754
REMARK  Name = 
REMARK  10 active torsions:
REMARK  status: ('A' for Active; 'I' for Inactive)
REMARK    1  A    between atoms: C_1  and  C_2
REMARK    2  A    between atoms: C_5  and  C_6
REMARK    3  A    between atoms: C_7  and  C_8
REMARK    4  A    between atoms: C_8  and  C_9
REMARK    5  A    between atoms: N_11  and  C_12
REMARK    6  A    between atoms: C_17  and  S_18
REMARK    7  A    between atoms: S_18  and  C_19
REMARK    8  A    between atoms: C_19  and  C_20
REMARK    9  A    between atoms: C_20  and  C_21
REMARK   10  A    between atoms: C_21  and  O_22
REMARK                            x       y       z     vdW  Elec       q    Type
REMARK                         _______ _______ _______ _____ _____    ______ ____
ROOT
ATOM      1  C   UNL     1       1.904   8.620  18.433  0.00  0.00    +0.000 C 
ATOM      2  O   UNL     1       2.118   8.945  17.262  0.00  0.00    +0.000 OA
ATOM      3  N   UNL     1       0.916   9.182  19.222  0.00  0.00    +0.000 N 
ATOM      4  H   UNL     1       1.131   9.291  20.209  0.00  0.00    +0.000 HD
ENDROOT
BRANCH   3   5
ATOM      5  C   UNL     1      -0.060  10.065  18.687  0.00  0.00    +0.000 A 
ATOM      6  C   UNL     1      -0.916   9.668  17.659  0.00  0.00    +0.000 A 
ATOM      7  N   UNL     1      -1.880  10.452  17.117  0.00  0.00    +0.000 NA
ATOM      8  C   UNL     1      -1.971  11.710  17.590  0.00  0.00    +0.000 A 
ATOM      9  C   UNL     1      -1.170  12.205  18.608  0.00  0.00    +0.000 A 
ATOM     10  C   UNL     1      -0.218  11.363  19.195  0.00  0.00    +0.000 A 
BRANCH  10  11
ATOM     11  S   UNL     1       0.917  11.989  20.441  0.00  0.00    +0.000 S 
BRANCH  11  12
ATOM     12  C   UNL     1      -0.180  12.245  21.877  0.00  0.00    +0.000 C 
BRANCH  12  13
ATOM     13  C   UNL     1      -0.898  10.958  22.258  0.00  0.00    +0.000 C 
BRANCH  13  14
ATOM     14  C   UNL     1       0.101   9.857  22.589  0.00  0.00    +0.000 C 
BRANCH  14  15
ATOM     15  O   UNL     1       0.139   9.650  23.993  0.00  0.00    +0.000 OA
ATOM     16  H   UNL     1      -0.361  10.370  24.415  0.00  0.00    +0.000 HD
ENDBRANCH  14  15
ENDBRANCH  13  14
ENDBRANCH  12  13
ENDBRANCH  11  12
ENDBRANCH  10  11
ENDBRANCH   3   5
BRANCH   1  17
ATOM     17  C   UNL     1       2.699   7.510  19.095  0.00  0.00    +0.000 C 
BRANCH  17  24
ATOM     18  C   UNL     1       0.992   2.779  18.584  0.00  0.00    +0.000 C 
ATOM     19  C   UNL     1       1.933   3.863  18.156  0.00  0.00    +0.000 A 
ATOM     20  C   UNL     1       2.976   3.587  17.267  0.00  0.00    +0.000 A 
ATOM     21  C   UNL     1       3.912   4.569  16.959  0.00  0.00    +0.000 A 
ATOM     22  C   UNL     1       3.830   5.851  17.529  0.00  0.00    +0.000 A 
ATOM     23  C   UNL     1       4.960   6.812  17.271  0.00  0.00    +0.000 C 
ATOM     24  C   UNL     1       2.753   6.167  18.392  0.00  0.00    +0.000 A 
ATOM     25  C   UNL     1       1.827   5.152  18.704  0.00  0.00    +0.000 A 
ENDBRANCH  17  24
ENDBRANCH   1  17
TORSDOF 8
ENDMDL
MODEL 4
REMARK VINA RESULT:      -6.3      2.769      6.565
REMARK  Name = 
REMARK  10 active torsions:
REMARK  status: ('A' for Active; 'I' for Inactive)
REMARK    1  A    between atoms: C_1  and  C_2
REMARK    2  A    between atoms: C_5  and  C_6
REMARK    3  A    between atoms: C_7  and  C_8
REMARK    4  A    between atoms: C_8  and  C_9
REMARK    5  A    between atoms: N_11  and  C_12
REMARK    6  A    between atoms: C_17  and  S_18
REMARK    7  A    between atoms: S_18  and  C_19
REMARK    8  A    between atoms: C_19  and  C_20
REMARK    9  A    between atoms: C_20  and  C_21
REMARK   10  A    between atoms: C_21  and  O_22
REMARK                            x       y       z     vdW  Elec       q    Type
REMARK                         _______ _______ _______ _____ _____    ______ ____
ROOT
ATOM      1  C   UNL     1       2.282   7.306  19.102  0.00  0.00    +0.000 C 
ATOM      2  O   UNL     1       1.956   6.876  20.211  0.00  0.00    +0.000 OA
ATOM      3  N   UNL     1       2.739   6.507  18.068  0.00  0.00    +0.000 N 
ATOM      4  H   UNL     1       3.451   6.909  17.465  0.00  0.00    +0.000 HD
ENDROOT
BRANCH   3   5
ATOM      5  C   UNL     1       2.701   5.089  18.143  0.00  0.00    +0.000 A 
ATOM      6  C   UNL     1       1.530   4.377  17.881  0.00  0.00    +0.000 A 
ATOM      7  N   UNL     1       1.430   3.025  17.915  0.00  0.00    +0.000 NA
ATOM      8  C   UNL     1       2.538   2.348  18.271  0.00  0.00    +0.000 A 
ATOM      9  C   UNL     1       3.751   2.957  18.552  0.00  0.00    +0.000 A 
ATOM     10  C   UNL     1       3.852   4.350  18.455  0.00  0.00    +0.000 A 
BRANCH  10  11
ATOM     11  S   UNL     1       5.370   5.195  18.915  0.00  0.00    +0.000 S 
BRANCH  11  12
ATOM     12  C   UNL     1       6.207   5.400  17.306  0.00  0.00    +0.000 C 
BRANCH  12  13
ATOM     13  C   UNL     1       7.241   6.516  17.361  0.00  0.00    +0.000 C 
BRANCH  13  14
ATOM     14  C   UNL     1       7.953   6.531  18.707  0.00  0.00    +0.000 C 
BRANCH  14  15
ATOM     15  O   UNL     1       8.602   7.780  18.893  0.00  0.00    +0.000 OA
ATOM     16  H   UNL     1       8.165   8.432  18.318  0.00  0.00    +0.000 HD
ENDBRANCH  14  15
ENDBRANCH  13  14
ENDBRANCH  12  13
ENDBRANCH  11  12
ENDBRANCH  10  11
ENDBRANCH   3   5
BRANCH   1  17
ATOM     17  C   UNL     1       2.152   8.780  18.764  0.00  0.00    +0.000 C 
BRANCH  17  24
ATOM     18  C   UNL     1      -2.126  10.354  16.579  0.00  0.00    +0.000 C 
ATOM     19  C   UNL     1      -1.294  10.189  17.814  0.00  0.00    +0.000 A 
ATOM     20  C   UNL     1      -1.686  10.782  19.018  0.00  0.00    +0.000 A 
ATOM     21  C   UNL     1      -0.856  10.719  20.132  0.00  0.00    +0.000 A 
ATOM     22  C   UNL     1       0.384  10.062  20.075  0.00  0.00    +0.000 A 
ATOM     23  C   UNL     1       1.295  10.165  21.269  0.00  0.00    +0.000 C 
ATOM     24  C   UNL     1       0.777   9.410  18.880  0.00  0.00    +0.000 A 
ATOM     25  C   UNL     1      -0.070   9.502  17.759  0.00  0.00    +0.000 A 
ENDBRANCH  17  24
ENDBRANCH   1  17
TORSDOF 8
ENDMDL
MODEL 5
REMARK VINA RESULT:      -6.3      2.945      6.769
REMARK  Name = 
REMARK  10 active torsions:
REMARK  status: ('A' for Active; 'I' for Inactive)
REMARK    1  A    between atoms: C_1  and  C_2
REMARK    2  A    between atoms: C_5  and  C_6
REMARK    3  A    between atoms: C_7  and  C_8
REMARK    4  A    between atoms: C_8  and  C_9
REMARK    5  A    between atoms: N_11  and  C_12
REMARK    6  A    between atoms: C_17  and  S_18
REMARK    7  A    between atoms: S_18  and  C_19
REMARK    8  A    between atoms: C_19  and  C_20
REMARK    9  A    between atoms: C_20  and  C_21
REMARK   10  A    between atoms: C_21  and  O_22
REMARK                            x       y       z     vdW  Elec       q    Type
REMARK                         _______ _______ _______ _____ _____    ______ ____
ROOT
ATOM      1  C   UNL     1       2.269   7.605  18.910  0.00  0.00    +0.000 C 
ATOM      2  O   UNL     1       2.001   7.138  20.021  0.00  0.00    +0.000 OA
ATOM      3  N   UNL     1       2.730   6.850  17.846  0.00  0.00    +0.000 N 
ATOM      4  H   UNL     1       3.401   7.298  17.229  0.00  0.00    +0.000 HD
ENDROOT
BRANCH   3   5
ATOM      5  C   UNL     1       2.764   5.431  17.893  0.00  0.00    +0.000 A 
ATOM      6  C   UNL     1       1.600   4.670  17.780  0.00  0.00    +0.000 A 
ATOM      7  N   UNL     1       1.564   3.315  17.797  0.00  0.00    +0.000 NA
ATOM      8  C   UNL     1       2.739   2.683  17.978  0.00  0.00    +0.000 A 
ATOM      9  C   UNL     1       3.952   3.342  18.102  0.00  0.00    +0.000 A 
ATOM     10  C   UNL     1       3.978   4.740  18.024  0.00  0.00    +0.000 A 
BRANCH  10  11
ATOM     11  S   UNL     1       5.508   5.646  18.288  0.00  0.00    +0.000 S 
BRANCH  11  12
ATOM     12  C   UNL     1       5.966   6.143  16.592  0.00  0.00    +0.000 C 
BRANCH  12  13
ATOM     13  C   UNL     1       6.704   5.023  15.871  0.00  0.00    +0.000 C 
BRANCH  13  14
ATOM     14  C   UNL     1       6.033   4.697  14.544  0.00  0.00    +0.000 C 
BRANCH  14  15
ATOM     15  O   UNL     1       6.323   3.356  14.176  0.00  0.00    +0.000 OA
ATOM     16  H   UNL     1       5.963   2.772  14.866  0.00  0.00    +0.000 HD
ENDBRANCH  14  15
ENDBRANCH  13  14
ENDBRANCH  12  13
ENDBRANCH  11  12
ENDBRANCH  10  11
ENDBRANCH   3   5
BRANCH   1  17
ATOM     17  C   UNL     1       2.056   9.077  18.608  0.00  0.00    +0.000 C 
BRANCH  17  24
ATOM     18  C   UNL     1      -2.357  10.013  16.326  0.00  0.00    +0.000 C 
ATOM     19  C   UNL     1      -1.501  10.078  17.553  0.00  0.00    +0.000 A 
ATOM     20  C   UNL     1      -1.925  10.795  18.677  0.00  0.00    +0.000 A 
ATOM     21  C   UNL     1      -1.080  10.946  19.772  0.00  0.00    +0.000 A 
ATOM     22  C   UNL     1       0.207  10.383  19.775  0.00  0.00    +0.000 A 
ATOM     23  C   UNL     1       1.120  10.714  20.926  0.00  0.00    +0.000 C 
ATOM     24  C   UNL     1       0.637   9.609  18.669  0.00  0.00    +0.000 A 
ATOM     25  C   UNL     1      -0.227   9.486  17.564  0.00  0.00    +0.000 A 
ENDBRANCH  17  24
ENDBRANCH   1  17
TORSDOF 8
ENDMDL
MODEL 6
REMARK VINA RESULT:      -6.2      2.736      6.858
REMARK  Name = 
REMARK  10 active torsions:
REMARK  status: ('A' for Active; 'I' for Inactive)
REMARK    1  A    between atoms: C_1  and  C_2
REMARK    2  A    between atoms: C_5  and  C_6
REMARK    3  A    between atoms: C_7  and  C_8
REMARK    4  A    between atoms: C_8  and  C_9
REMARK    5  A    between atoms: N_11  and  C_12
REMARK    6  A    between atoms: C_17  and  S_18
REMARK    7  A    between atoms: S_18  and  C_19
REMARK    8  A    between atoms: C_19  and  C_20
REMARK    9  A    between atoms: C_20  and  C_21
REMARK   10  A    between atoms: C_21  and  O_22
REMARK                            x       y       z     vdW  Elec       q    Type
REMARK                         _______ _______ _______ _____ _____    ______ ____
ROOT
ATOM      1  C   UNL     1       3.210   6.157  19.048  0.00  0.00    +0.000 C 
ATOM      2  O   UNL     1       4.048   5.800  19.881  0.00  0.00    +0.000 OA
ATOM      3  N   UNL     1       3.461   6.244  17.690  0.00  0.00    +0.000 N 
ATOM      4  H   UNL     1       2.996   6.997  17.190  0.00  0.00    +0.000 HD
ENDROOT
BRANCH   3   5
ATOM      5  C   UNL     1       4.664   5.753  17.117  0.00  0.00    +0.000 A 
ATOM      6  C   UNL     1       5.757   6.591  16.889  0.00  0.00    +0.000 A 
ATOM      7  N   UNL     1       6.939   6.184  16.364  0.00  0.00    +0.000 NA
ATOM      8  C   UNL     1       7.026   4.889  16.006  0.00  0.00    +0.000 A 
ATOM      9  C   UNL     1       6.001   3.973  16.187  0.00  0.00    +0.000 A 
ATOM     10  C   UNL     1       4.808   4.397  16.784  0.00  0.00    +0.000 A 
BRANCH  10  11
ATOM     11  S   UNL     1       3.410   3.277  16.941  0.00  0.00    +0.000 S 
BRANCH  11  12
ATOM     12  C   UNL     1       3.712   2.500  18.565  0.00  0.00    +0.000 C 
BRANCH  12  13
ATOM     13  C   UNL     1       2.436   2.443  19.393  0.00  0.00    +0.000 C 
BRANCH  13  14
ATOM     14  C   UNL     1       1.240   2.920  18.580  0.00  0.00    +0.000 C 
BRANCH  14  15
ATOM     15  O   UNL     1       0.317   1.853  18.413  0.00  0.00    +0.000 OA
ATOM     16  H   UNL     1      -0.212   1.786  19.227  0.00  0.00    +0.000 HD
ENDBRANCH  14  15
ENDBRANCH  13  14
ENDBRANCH  12  13
ENDBRANCH  11  12
ENDBRANCH  10  11
ENDBRANCH   3   5
BRANCH   1  17
ATOM     17  C   UNL     1       1.787   6.485  19.460  0.00  0.00    +0.000 C 
BRANCH  17  24
ATOM     18  C   UNL     1       0.285   9.448  23.270  0.00  0.00    +0.000 C 
ATOM     19  C   UNL     1       0.770   9.308  21.860  0.00  0.00    +0.000 A 
ATOM     20  C   UNL     1       0.783  10.412  21.002  0.00  0.00    +0.000 A 
ATOM     21  C   UNL     1       1.129  10.254  19.664  0.00  0.00    +0.000 A 
ATOM     22  C   UNL     1       1.472   8.993  19.148  0.00  0.00    +0.000 A 
ATOM     23  C   UNL     1       1.685   8.871  17.663  0.00  0.00    +0.000 C 
ATOM     24  C   UNL     1       1.516   7.871  20.012  0.00  0.00    +0.000 A 
ATOM     25  C   UNL     1       1.144   8.050  21.359  0.00  0.00    +0.000 A 
ENDBRANCH  17  24
ENDBRANCH   1  17
TORSDOF 8
ENDMDL
MODEL 7
REMARK VINA RESULT:      -6.2      3.808      5.778
REMARK  Name = 
REMARK  10 active torsions:
REMARK  status: ('A' for Active; 'I' for Inactive)
REMARK    1  A    between atoms: C_1  and  C_2
REMARK    2  A    between atoms: C_5  and  C_6
REMARK    3  A    between atoms: C_7  and  C_8
REMARK    4  A    between atoms: C_8  and  C_9
REMARK    5  A    between atoms: N_11  and  C_12
REMARK    6  A    between atoms: C_17  and  S_18
REMARK    7  A    between atoms: S_18  and  C_19
REMARK    8  A    between atoms: C_19  and  C_20
REMARK    9  A    between atoms: C_20  and  C_21
REMARK   10  A    between atoms: C_21  and  O_22
REMARK                            x       y       z     vdW  Elec       q    Type
REMARK                         _______ _______ _______ _____ _____    ______ ____
ROOT
ATOM      1  C   UNL     1       1.956   7.440  19.931  0.00  0.00    +0.000 C 
ATOM      2  O   UNL     1       1.589   6.637  20.793  0.00  0.00    +0.000 OA
ATOM      3  N   UNL     1       1.554   8.764  19.890  0.00  0.00    +0.000 N 
ATOM      4  H   UNL     1       1.426   9.170  18.967  0.00  0.00    +0.000 HD
ENDROOT
BRANCH   3   5
ATOM      5  C   UNL     1       0.818   9.358  20.949  0.00  0.00    +0.000 A 
ATOM      6  C   UNL     1       1.111   9.081  22.285  0.00  0.00    +0.000 A 
ATOM      7  N   UNL     1       0.462   9.628  23.342  0.00  0.00    +0.000 NA
ATOM      8  C   UNL     1      -0.559  10.459  23.058  0.00  0.00    +0.000 A 
ATOM      9  C   UNL     1      -0.934  10.800  21.768  0.00  0.00    +0.000 A 
ATOM     10  C   UNL     1      -0.215  10.272  20.689  0.00  0.00    +0.000 A 
BRANCH  10  11
ATOM     11  S   UNL     1      -0.728  10.596  18.997  0.00  0.00    +0.000 S 
BRANCH  11  12
ATOM     12  C   UNL     1      -0.496  12.401  18.856  0.00  0.00    +0.000 C 
BRANCH  12  13
ATOM     13  C   UNL     1       0.958  12.788  19.090  0.00  0.00    +0.000 C 
BRANCH  13  14
ATOM     14  C   UNL     1       1.894  11.888  18.295  0.00  0.00    +0.000 C 
BRANCH  14  15
ATOM     15  O   UNL     1       2.643  12.667  17.374  0.00  0.00    +0.000 OA
ATOM     16  H   UNL     1       3.361  12.110  17.026  0.00  0.00    +0.000 HD
ENDBRANCH  14  15
ENDBRANCH  13  14
ENDBRANCH  12  13
ENDBRANCH  11  12
ENDBRANCH  10  11
ENDBRANCH   3   5
BRANCH   1  17
ATOM     17  C   UNL     1       2.945   7.036  18.854  0.00  0.00    +0.000 C 
BRANCH  17  24
ATOM     18  C   UNL     1       0.726   2.494  18.846  0.00  0.00    +0.000 C 
ATOM     19  C   UNL     1       1.763   3.423  18.294  0.00  0.00    +0.000 A 
ATOM     20  C   UNL     1       2.741   2.951  17.413  0.00  0.00    +0.000 A 
ATOM     21  C   UNL     1       3.767   3.791  16.990  0.00  0.00    +0.000 A 
ATOM     22  C   UNL     1       3.842   5.122  17.434  0.00  0.00    +0.000 A 
ATOM     23  C   UNL     1       5.059   5.924  17.058  0.00  0.00    +0.000 C 
ATOM     24  C   UNL     1       2.833   5.635  18.285  0.00  0.00    +0.000 A 
ATOM     25  C   UNL     1       1.814   4.762  18.715  0.00  0.00    +0.000 A 
ENDBRANCH  17  24
ENDBRANCH   1  17
TORSDOF 8
ENDMDL
MODEL 8
REMARK VINA RESULT:      -6.2      2.710      6.803
REMARK  Name = 
REMARK  10 active torsions:
REMARK  status: ('A' for Active; 'I' for Inactive)
REMARK    1  A    between atoms: C_1  and  C_2
REMARK    2  A    between atoms: C_5  and  C_6
REMARK    3  A    between atoms: C_7  and  C_8
REMARK    4  A    between atoms: C_8  and  C_9
REMARK    5  A    between atoms: N_11  and  C_12
REMARK    6  A    between atoms: C_17  and  S_18
REMARK    7  A    between atoms: S_18  and  C_19
REMARK    8  A    between atoms: C_19  and  C_20
REMARK    9  A    between atoms: C_20  and  C_21
REMARK   10  A    between atoms: C_21  and  O_22
REMARK                            x       y       z     vdW  Elec       q    Type
REMARK                         _______ _______ _______ _____ _____    ______ ____
ROOT
ATOM      1  C   UNL     1       1.958   8.161  19.397  0.00  0.00    +0.000 C 
ATOM      2  O   UNL     1       1.705   8.163  20.605  0.00  0.00    +0.000 OA
ATOM      3  N   UNL     1       2.439   7.059  18.711  0.00  0.00    +0.000 N 
ATOM      4  H   UNL     1       3.096   7.245  17.958  0.00  0.00    +0.000 HD
ENDROOT
BRANCH   3   5
ATOM      5  C   UNL     1       2.514   5.775  19.313  0.00  0.00    +0.000 A 
ATOM      6  C   UNL     1       1.833   5.483  20.495  0.00  0.00    +0.000 A 
ATOM      7  N   UNL     1       1.846   4.275  21.110  0.00  0.00    +0.000 NA
ATOM      8  C   UNL     1       2.611   3.320  20.547  0.00  0.00    +0.000 A 
ATOM      9  C   UNL     1       3.328   3.505  19.375  0.00  0.00    +0.000 A 
ATOM     10  C   UNL     1       3.256   4.741  18.721  0.00  0.00    +0.000 A 
BRANCH  10  11
ATOM     11  S   UNL     1       4.252   5.067  17.261  0.00  0.00    +0.000 S 
BRANCH  11  12
ATOM     12  C   UNL     1       5.645   6.030  17.944  0.00  0.00    +0.000 C 
BRANCH  12  13
ATOM     13  C   UNL     1       6.296   5.302  19.112  0.00  0.00    +0.000 C 
BRANCH  13  14
ATOM     14  C   UNL     1       7.757   5.706  19.257  0.00  0.00    +0.000 C 
BRANCH  14  15
ATOM     15  O   UNL     1       8.182   5.500  20.596  0.00  0.00    +0.000 OA
ATOM     16  H   UNL     1       8.431   4.564  20.690  0.00  0.00    +0.000 HD
ENDBRANCH  14  15
ENDBRANCH  13  14
ENDBRANCH  12  13
ENDBRANCH  11  12
ENDBRANCH  10  11
ENDBRANCH   3   5
BRANCH   1  17
ATOM     17  C   UNL     1       1.701   9.387  18.541  0.00  0.00    +0.000 C 
BRANCH  17  24
ATOM     18  C   UNL     1      -2.885   9.909  16.481  0.00  0.00    +0.000 C 
ATOM     19  C   UNL     1      -1.912  10.257  17.565  0.00  0.00    +0.000 A 
ATOM     20  C   UNL     1      -2.204  11.272  18.481  0.00  0.00    +0.000 A 
ATOM     21  C   UNL     1      -1.253  11.666  19.417  0.00  0.00    +0.000 A 
ATOM     22  C   UNL     1       0.013  11.057  19.462  0.00  0.00    +0.000 A 
ATOM     23  C   UNL     1       1.042  11.636  20.396  0.00  0.00    +0.000 C 
ATOM     24  C   UNL     1       0.311   9.992  18.577  0.00  0.00    +0.000 A 
ATOM     25  C   UNL     1      -0.661   9.622  17.626  0.00  0.00    +0.000 A 
ENDBRANCH  17  24
ENDBRANCH   1  17
TORSDOF 8
ENDMDL
MODEL 9
REMARK VINA RESULT:      -6.2      4.849      7.558
REMARK  Name = 
REMARK  10 active torsions:
REMARK  status: ('A' for Active; 'I' for Inactive)
REMARK    1  A    between atoms: C_1  and  C_2
REMARK    2  A    between atoms: C_5  and  C_6
REMARK    3  A    between atoms: C_7  and  C_8
REMARK    4  A    between atoms: C_8  and  C_9
REMARK    5  A    between atoms: N_11  and  C_12
REMARK    6  A    between atoms: C_17  and  S_18
REMARK    7  A    between atoms: S_18  and  C_19
REMARK    8  A    between atoms: C_19  and  C_20
REMARK    9  A    between atoms: C_20  and  C_21
REMARK   10  A    between atoms: C_21  and  O_22
REMARK                            x       y       z     vdW  Elec       q    Type
REMARK                         _______ _______ _______ _____ _____    ______ ____
ROOT
ATOM      1  C   UNL     1       0.484   8.697  21.175  0.00  0.00    +0.000 C 
ATOM      2  O   UNL     1      -0.555   8.079  21.425  0.00  0.00    +0.000 OA
ATOM      3  N   UNL     1       0.554  10.075  21.071  0.00  0.00    +0.000 N 
ATOM      4  H   UNL     1       1.204  10.444  20.381  0.00  0.00    +0.000 HD
ENDROOT
BRANCH   3   5
ATOM      5  C   UNL     1      -0.538  10.911  21.422  0.00  0.00    +0.000 A 
ATOM      6  C   UNL     1      -0.976  11.022  22.742  0.00  0.00    +0.000 A 
ATOM      7  N   UNL     1      -1.998  11.816  23.148  0.00  0.00    +0.000 NA
ATOM      8  C   UNL     1      -2.647  12.501  22.187  0.00  0.00    +0.000 A 
ATOM      9  C   UNL     1      -2.295  12.461  20.847  0.00  0.00    +0.000 A 
ATOM     10  C   UNL     1      -1.200  11.682  20.454  0.00  0.00    +0.000 A 
BRANCH  10  11
ATOM     11  S   UNL     1      -0.771  11.510  18.716  0.00  0.00    +0.000 S 
BRANCH  11  12
ATOM     12  C   UNL     1      -2.177  10.549  18.059  0.00  0.00    +0.000 C 
BRANCH  12  13
ATOM     13  C   UNL     1      -3.163  11.447  17.325  0.00  0.00    +0.000 C 
BRANCH  13  14
ATOM     14  C   UNL     1      -3.736  10.741  16.104  0.00  0.00    +0.000 C 
BRANCH  14  15
ATOM     15  O   UNL     1      -2.686  10.402  15.209  0.00  0.00    +0.000 OA
ATOM     16  H   UNL     1      -2.827  10.896  14.382  0.00  0.00    +0.000 HD
ENDBRANCH  14  15
ENDBRANCH  13  14
ENDBRANCH  12  13
ENDBRANCH  11  12
ENDBRANCH  10  11
ENDBRANCH   3   5
BRANCH   1  17
ATOM     17  C   UNL     1       1.806   7.972  21.012  0.00  0.00    +0.000 C 
BRANCH  17  24
ATOM     18  C   UNL     1       1.560   2.933  20.700  0.00  0.00    +0.000 C 
ATOM     19  C   UNL     1       1.715   4.260  20.024  0.00  0.00    +0.000 A 
ATOM     20  C   UNL     1       2.065   4.330  18.672  0.00  0.00    +0.000 A 
ATOM     21  C   UNL     1       2.316   5.562  18.076  0.00  0.00    +0.000 A 
ATOM     22  C   UNL     1       2.222   6.755  18.814  0.00  0.00    +0.000 A 
ATOM     23  C   UNL     1       2.655   8.033  18.147  0.00  0.00    +0.000 C 
ATOM     24  C   UNL     1       1.818   6.710  20.171  0.00  0.00    +0.000 A 
ATOM     25  C   UNL     1       1.588   5.450  20.758  0.00  0.00    +0.000 A 
ENDBRANCH  17  24
ENDBRANCH   1  17
TORSDOF 8
ENDMDL
