MODEL 1
REMARK VINA RESULT:      -9.0      0.000      0.000
REMARK  Name = 
REMARK  7 active torsions:
REMARK  status: ('A' for Active; 'I' for Inactive)
REMARK    1  A    between atoms: C_1  and  O_2
REMARK    2  A    between atoms: O_2  and  C_3
REMARK    3  A    between atoms: C_6  and  N_7
REMARK    4  A    between atoms: N_10  and  C_11
REMARK    5  A    between atoms: C_11  and  C_12
REMARK    6  A    between atoms: C_15  and  C_16
REMARK    7  A    between atoms: C_21  and  C_22
REMARK                            x       y       z     vdW  Elec       q    Type
REMARK                         _______ _______ _______ _____ _____    ______ ____
ROOT
ATOM      1  C   UNL     1       1.139   9.831  18.935  0.00  0.00    +0.000 A 
ATOM      2  C   UNL     1       1.726   9.300  17.779  0.00  0.00    +0.000 A 
ATOM      3  C   UNL     1       2.356   8.057  17.823  0.00  0.00    +0.000 A 
ATOM      4  C   UNL     1       2.407   7.333  19.022  0.00  0.00    +0.000 A 
ATOM      5  C   UNL     1       1.850   7.881  20.181  0.00  0.00    +0.000 A 
ATOM      6  C   UNL     1       1.181   9.102  20.128  0.00  0.00    +0.000 A 
ENDROOT
BRANCH   4   7
ATOM      7  C   UNL     1       3.166   6.056  19.023  0.00  0.00    +0.000 C 
ATOM      8  O   UNL     1       2.789   5.193  19.816  0.00  0.00    +0.000 OA
ATOM      9  N   UNL     1       4.262   5.866  18.175  0.00  0.00    +0.000 N 
ATOM     10  C   UNL     1       4.754   4.501  18.031  0.00  0.00    +0.000 C 
ATOM     11  C   UNL     1       6.278   4.442  17.946  0.00  0.00    +0.000 C 
ATOM     12  C   UNL     1       6.852   5.377  16.864  0.00  0.00    +0.000 C 
ATOM     13  C   UNL     1       6.322   6.795  17.147  0.00  0.00    +0.000 C 
ATOM     14  C   UNL     1       4.800   6.843  17.227  0.00  0.00    +0.000 C 
BRANCH  12  15
ATOM     15  C   UNL     1       6.673   4.932  15.413  0.00  0.00    +0.000 A 
ATOM     16  C   UNL     1       5.670   4.039  15.004  0.00  0.00    +0.000 A 
ATOM     17  C   UNL     1       5.564   3.620  13.674  0.00  0.00    +0.000 A 
ATOM     18  C   UNL     1       6.476   4.069  12.726  0.00  0.00    +0.000 A 
ATOM     19  C   UNL     1       7.492   4.939  13.108  0.00  0.00    +0.000 A 
ATOM     20  C   UNL     1       7.591   5.362  14.437  0.00  0.00    +0.000 A 
ENDBRANCH  12  15
ENDBRANCH   4   7
BRANCH   1  21
ATOM     21  C   UNL     1       0.549  11.207  18.919  0.00  0.00    +0.000 C 
BRANCH  21  25
ATOM     22  N   UNL     1       2.843  13.752  17.788  0.00  0.00    +0.000 N 
ATOM     23  C   UNL     1       2.117  12.981  18.665  0.00  0.00    +0.000 C 
ATOM     24  O   UNL     1       2.189  13.012  19.890  0.00  0.00    +0.000 OA
ATOM     25  N   UNL     1       1.238  12.123  18.040  0.00  0.00    +0.000 N 
ATOM     26  H   UNL     1       2.612  13.666  16.810  0.00  0.00    +0.000 HD
ATOM     27  H   UNL     1       1.458  11.807  17.107  0.00  0.00    +0.000 HD
BRANCH  22  31
ATOM     28  C   UNL     1       5.772  16.637  18.782  0.00  0.00    +0.000 A 
ATOM     29  C   UNL     1       4.429  16.918  18.992  0.00  0.00    +0.000 A 
ATOM     30  C   UNL     1       3.453  15.969  18.691  0.00  0.00    +0.000 A 
ATOM     31  C   UNL     1       3.798  14.730  18.147  0.00  0.00    +0.000 A 
ATOM     32  C   UNL     1       5.153  14.451  17.935  0.00  0.00    +0.000 A 
ATOM     33  C   UNL     1       6.137  15.401  18.252  0.00  0.00    +0.000 A 
BRANCH  28  35
ATOM     34  C   UNL     1       7.980  17.472  18.734  0.00  0.00    +0.000 C 
ATOM     35  O   UNL     1       6.619  17.662  19.089  0.00  0.00    +0.000 OA
ENDBRANCH  28  35
ENDBRANCH  22  31
ENDBRANCH  21  25
ENDBRANCH   1  21
TORSDOF 6
ENDMDL
MODEL 2
REMARK VINA RESULT:      -8.9      0.603      1.044
REMARK  Name = 
REMARK  7 active torsions:
REMARK  status: ('A' for Active; 'I' for Inactive)
REMARK    1  A    between atoms: C_1  and  O_2
REMARK    2  A    between atoms: O_2  and  C_3
REMARK    3  A    between atoms: C_6  and  N_7
REMARK    4  A    between atoms: N_10  and  C_11
REMARK    5  A    between atoms: C_11  and  C_12
REMARK    6  A    between atoms: C_15  and  C_16
REMARK    7  A    between atoms: C_21  and  C_22
REMARK                            x       y       z     vdW  Elec       q    Type
REMARK                         _______ _______ _______ _____ _____    ______ ____
ROOT
ATOM      1  C   UNL     1       1.105   9.645  19.063  0.00  0.00    +0.000 A 
ATOM      2  C   UNL     1       1.270   8.823  20.186  0.00  0.00    +0.000 A 
ATOM      3  C   UNL     1       1.984   7.630  20.081  0.00  0.00    +0.000 A 
ATOM      4  C   UNL     1       2.539   7.244  18.853  0.00  0.00    +0.000 A 
ATOM      5  C   UNL     1       2.343   8.049  17.727  0.00  0.00    +0.000 A 
ATOM      6  C   UNL     1       1.669   9.264  17.841  0.00  0.00    +0.000 A 
ENDROOT
BRANCH   4   7
ATOM      7  C   UNL     1       3.213   5.924  18.786  0.00  0.00    +0.000 C 
ATOM      8  O   UNL     1       2.751   5.033  19.499  0.00  0.00    +0.000 OA
ATOM      9  N   UNL     1       4.327   5.722  17.965  0.00  0.00    +0.000 N 
ATOM     10  C   UNL     1       4.736   4.340  17.737  0.00  0.00    +0.000 C 
ATOM     11  C   UNL     1       6.255   4.186  17.700  0.00  0.00    +0.000 C 
ATOM     12  C   UNL     1       6.930   5.155  16.711  0.00  0.00    +0.000 C 
ATOM     13  C   UNL     1       6.481   6.581  17.080  0.00  0.00    +0.000 C 
ATOM     14  C   UNL     1       4.964   6.725  17.110  0.00  0.00    +0.000 C 
BRANCH  12  15
ATOM     15  C   UNL     1       6.780   4.829  15.226  0.00  0.00    +0.000 A 
ATOM     16  C   UNL     1       5.830   3.919  14.733  0.00  0.00    +0.000 A 
ATOM     17  C   UNL     1       5.751   3.612  13.372  0.00  0.00    +0.000 A 
ATOM     18  C   UNL     1       6.639   4.192  12.473  0.00  0.00    +0.000 A 
ATOM     19  C   UNL     1       7.604   5.080  12.937  0.00  0.00    +0.000 A 
ATOM     20  C   UNL     1       7.675   5.392  14.298  0.00  0.00    +0.000 A 
ENDBRANCH  12  15
ENDBRANCH   4   7
BRANCH   1  21
ATOM     21  C   UNL     1       0.256  10.875  19.145  0.00  0.00    +0.000 C 
BRANCH  21  25
ATOM     22  N   UNL     1       2.133  13.759  18.059  0.00  0.00    +0.000 N 
ATOM     23  C   UNL     1       1.617  12.816  18.916  0.00  0.00    +0.000 C 
ATOM     24  O   UNL     1       1.875  12.701  20.111  0.00  0.00    +0.000 OA
ATOM     25  N   UNL     1       0.724  11.958  18.311  0.00  0.00    +0.000 N 
ATOM     26  H   UNL     1       1.762  13.772  17.122  0.00  0.00    +0.000 HD
ATOM     27  H   UNL     1       0.822  11.784  17.322  0.00  0.00    +0.000 HD
BRANCH  22  31
ATOM     28  C   UNL     1       4.945  16.769  19.021  0.00  0.00    +0.000 A 
ATOM     29  C   UNL     1       3.604  16.954  19.331  0.00  0.00    +0.000 A 
ATOM     30  C   UNL     1       2.669  15.961  19.042  0.00  0.00    +0.000 A 
ATOM     31  C   UNL     1       3.050  14.776  18.410  0.00  0.00    +0.000 A 
ATOM     32  C   UNL     1       4.402  14.594  18.096  0.00  0.00    +0.000 A 
ATOM     33  C   UNL     1       5.347  15.587  18.401  0.00  0.00    +0.000 A 
BRANCH  28  35
ATOM     34  C   UNL     1       6.680  17.618  20.379  0.00  0.00    +0.000 C 
ATOM     35  O   UNL     1       5.747  17.829  19.329  0.00  0.00    +0.000 OA
ENDBRANCH  28  35
ENDBRANCH  22  31
ENDBRANCH  21  25
ENDBRANCH   1  21
TORSDOF 6
ENDMDL
MODEL 3
REMARK VINA RESULT:      -8.9      0.647      1.347
REMARK  Name = 
REMARK  7 active torsions:
REMARK  status: ('A' for Active; 'I' for Inactive)
REMARK    1  A    between atoms: C_1  and  O_2
REMARK    2  A    between atoms: O_2  and  C_3
REMARK    3  A    between atoms: C_6  and  N_7
REMARK    4  A    between atoms: N_10  and  C_11
REMARK    5  A    between atoms: C_11  and  C_12
REMARK    6  A    between atoms: C_15  and  C_16
REMARK    7  A    between atoms: C_21  and  C_22
REMARK                            x       y       z     vdW  Elec       q    Type
REMARK                         _______ _______ _______ _____ _____    ______ ____
ROOT
ATOM      1  C   UNL     1       1.119   9.478  18.986  0.00  0.00    +0.000 A 
ATOM      2  C   UNL     1       1.735   8.980  17.830  0.00  0.00    +0.000 A 
ATOM      3  C   UNL     1       2.452   7.785  17.880  0.00  0.00    +0.000 A 
ATOM      4  C   UNL     1       2.563   7.077  19.084  0.00  0.00    +0.000 A 
ATOM      5  C   UNL     1       1.976   7.594  20.243  0.00  0.00    +0.000 A 
ATOM      6  C   UNL     1       1.221   8.765  20.185  0.00  0.00    +0.000 A 
ENDROOT
BRANCH   4   7
ATOM      7  C   UNL     1       3.410   5.858  19.091  0.00  0.00    +0.000 C 
ATOM      8  O   UNL     1       3.117   4.989  19.913  0.00  0.00    +0.000 OA
ATOM      9  N   UNL     1       4.493   5.726  18.216  0.00  0.00    +0.000 N 
ATOM     10  C   UNL     1       5.078   4.396  18.087  0.00  0.00    +0.000 C 
ATOM     11  C   UNL     1       6.599   4.442  17.959  0.00  0.00    +0.000 C 
ATOM     12  C   UNL     1       7.075   5.390  16.841  0.00  0.00    +0.000 C 
ATOM     13  C   UNL     1       6.453   6.773  17.109  0.00  0.00    +0.000 C 
ATOM     14  C   UNL     1       4.935   6.716  17.232  0.00  0.00    +0.000 C 
BRANCH  12  15
ATOM     15  C   UNL     1       6.888   4.901  15.405  0.00  0.00    +0.000 A 
ATOM     16  C   UNL     1       7.618   5.412  14.321  0.00  0.00    +0.000 A 
ATOM     17  C   UNL     1       7.388   4.971  13.014  0.00  0.00    +0.000 A 
ATOM     18  C   UNL     1       6.404   4.024  12.760  0.00  0.00    +0.000 A 
ATOM     19  C   UNL     1       5.652   3.516  13.814  0.00  0.00    +0.000 A 
ATOM     20  C   UNL     1       5.889   3.953  15.120  0.00  0.00    +0.000 A 
ENDBRANCH  12  15
ENDBRANCH   4   7
BRANCH   1  21
ATOM     21  C   UNL     1       0.433  10.809  18.963  0.00  0.00    +0.000 C 
BRANCH  21  25
ATOM     22  N   UNL     1       2.480  13.539  17.792  0.00  0.00    +0.000 N 
ATOM     23  C   UNL     1       1.816  12.726  18.680  0.00  0.00    +0.000 C 
ATOM     24  O   UNL     1       1.854  12.805  19.904  0.00  0.00    +0.000 OA
ATOM     25  N   UNL     1       1.045  11.762  18.067  0.00  0.00    +0.000 N 
ATOM     26  H   UNL     1       2.284  13.397  16.812  0.00  0.00    +0.000 HD
ATOM     27  H   UNL     1       1.320  11.440  17.151  0.00  0.00    +0.000 HD
BRANCH  22  31
ATOM     28  C   UNL     1       4.916  16.816  18.896  0.00  0.00    +0.000 A 
ATOM     29  C   UNL     1       5.504  15.639  18.453  0.00  0.00    +0.000 A 
ATOM     30  C   UNL     1       4.714  14.558  18.063  0.00  0.00    +0.000 A 
ATOM     31  C   UNL     1       3.321  14.622  18.136  0.00  0.00    +0.000 A 
ATOM     32  C   UNL     1       2.732  15.808  18.586  0.00  0.00    +0.000 A 
ATOM     33  C   UNL     1       3.527  16.903  18.963  0.00  0.00    +0.000 A 
BRANCH  28  35
ATOM     34  C   UNL     1       5.935  17.991  20.673  0.00  0.00    +0.000 C 
ATOM     35  O   UNL     1       5.802  17.782  19.274  0.00  0.00    +0.000 OA
ENDBRANCH  28  35
ENDBRANCH  22  31
ENDBRANCH  21  25
ENDBRANCH   1  21
TORSDOF 6
ENDMDL
MODEL 4
REMARK VINA RESULT:      -8.5      4.097      5.822
REMARK  Name = 
REMARK  7 active torsions:
REMARK  status: ('A' for Active; 'I' for Inactive)
REMARK    1  A    between atoms: C_1  and  O_2
REMARK    2  A    between atoms: O_2  and  C_3
REMARK    3  A    between atoms: C_6  and  N_7
REMARK    4  A    between atoms: N_10  and  C_11
REMARK    5  A    between atoms: C_11  and  C_12
REMARK    6  A    between atoms: C_15  and  C_16
REMARK    7  A    between atoms: C_21  and  C_22
REMARK                            x       y       z     vdW  Elec       q    Type
REMARK                         _______ _______ _______ _____ _____    ______ ____
ROOT
ATOM      1  C   UNL     1       1.045   9.632  18.992  0.00  0.00    +0.000 A 
ATOM      2  C   UNL     1       1.146   8.799  20.114  0.00  0.00    +0.000 A 
ATOM      3  C   UNL     1       1.926   7.644  20.060  0.00  0.00    +0.000 A 
ATOM      4  C   UNL     1       2.612   7.309  18.885  0.00  0.00    +0.000 A 
ATOM      5  C   UNL     1       2.482   8.123  17.757  0.00  0.00    +0.000 A 
ATOM      6  C   UNL     1       1.739   9.301  17.823  0.00  0.00    +0.000 A 
ENDROOT
BRANCH   4   7
ATOM      7  C   UNL     1       3.355   6.024  18.865  0.00  0.00    +0.000 C 
ATOM      8  O   UNL     1       2.976   5.156  19.652  0.00  0.00    +0.000 OA
ATOM      9  N   UNL     1       4.441   5.831  18.004  0.00  0.00    +0.000 N 
ATOM     10  C   UNL     1       4.916   4.462  17.840  0.00  0.00    +0.000 C 
ATOM     11  C   UNL     1       6.438   4.386  17.738  0.00  0.00    +0.000 C 
ATOM     12  C   UNL     1       7.012   5.326  16.662  0.00  0.00    +0.000 C 
ATOM     13  C   UNL     1       6.501   6.747  16.966  0.00  0.00    +0.000 C 
ATOM     14  C   UNL     1       4.981   6.812  17.061  0.00  0.00    +0.000 C 
BRANCH  12  15
ATOM     15  C   UNL     1       6.813   4.901  15.207  0.00  0.00    +0.000 A 
ATOM     16  C   UNL     1       5.859   3.950  14.811  0.00  0.00    +0.000 A 
ATOM     17  C   UNL     1       5.736   3.552  13.476  0.00  0.00    +0.000 A 
ATOM     18  C   UNL     1       6.583   4.082  12.510  0.00  0.00    +0.000 A 
ATOM     19  C   UNL     1       7.551   5.010  12.878  0.00  0.00    +0.000 A 
ATOM     20  C   UNL     1       7.666   5.412  14.212  0.00  0.00    +0.000 A 
ENDBRANCH  12  15
ENDBRANCH   4   7
BRANCH   1  21
ATOM     21  C   UNL     1       0.132  10.817  19.009  0.00  0.00    +0.000 C 
BRANCH  21  25
ATOM     22  N   UNL     1      -1.214  12.509  21.898  0.00  0.00    +0.000 N 
ATOM     23  C   UNL     1      -1.165  11.991  20.626  0.00  0.00    +0.000 C 
ATOM     24  O   UNL     1      -2.088  11.961  19.817  0.00  0.00    +0.000 OA
ATOM     25  N   UNL     1       0.072  11.485  20.289  0.00  0.00    +0.000 N 
ATOM     26  H   UNL     1      -0.347  12.531  22.413  0.00  0.00    +0.000 HD
ATOM     27  H   UNL     1       0.667  11.142  21.028  0.00  0.00    +0.000 HD
BRANCH  22  31
ATOM     28  C   UNL     1      -4.590  14.392  23.615  0.00  0.00    +0.000 A 
ATOM     29  C   UNL     1      -4.412  13.023  23.768  0.00  0.00    +0.000 A 
ATOM     30  C   UNL     1      -3.292  12.392  23.228  0.00  0.00    +0.000 A 
ATOM     31  C   UNL     1      -2.343  13.111  22.499  0.00  0.00    +0.000 A 
ATOM     32  C   UNL     1      -2.527  14.489  22.344  0.00  0.00    +0.000 A 
ATOM     33  C   UNL     1      -3.647  15.128  22.901  0.00  0.00    +0.000 A 
BRANCH  28  35
ATOM     34  C   UNL     1      -6.810  15.113  23.262  0.00  0.00    +0.000 C 
ATOM     35  O   UNL     1      -5.741  14.876  24.165  0.00  0.00    +0.000 OA
ENDBRANCH  28  35
ENDBRANCH  22  31
ENDBRANCH  21  25
ENDBRANCH   1  21
TORSDOF 6
ENDMDL
MODEL 5
REMARK VINA RESULT:      -8.5      3.817      6.441
REMARK  Name = 
REMARK  7 active torsions:
REMARK  status: ('A' for Active; 'I' for Inactive)
REMARK    1  A    between atoms: C_1  and  O_2
REMARK    2  A    between atoms: O_2  and  C_3
REMARK    3  A    between atoms: C_6  and  N_7
REMARK    4  A    between atoms: N_10  and  C_11
REMARK    5  A    between atoms: C_11  and  C_12
REMARK    6  A    between atoms: C_15  and  C_16
REMARK    7  A    between atoms: C_21  and  C_22
REMARK                            x       y       z     vdW  Elec       q    Type
REMARK                         _______ _______ _______ _____ _____    ______ ____
ROOT
ATOM      1  C   UNL     1       1.350   9.887  18.984  0.00  0.00    +0.000 A 
ATOM      2  C   UNL     1       1.403   8.991  20.060  0.00  0.00    +0.000 A 
ATOM      3  C   UNL     1       1.891   7.699  19.871  0.00  0.00    +0.000 A 
ATOM      4  C   UNL     1       2.331   7.288  18.605  0.00  0.00    +0.000 A 
ATOM      5  C   UNL     1       2.245   8.173  17.526  0.00  0.00    +0.000 A 
ATOM      6  C   UNL     1       1.800   9.479  17.724  0.00  0.00    +0.000 A 
ENDROOT
BRANCH   4   7
ATOM      7  C   UNL     1       2.759   5.875  18.451  0.00  0.00    +0.000 C 
ATOM      8  O   UNL     1       2.026   5.020  18.948  0.00  0.00    +0.000 OA
ATOM      9  N   UNL     1       3.947   5.549  17.788  0.00  0.00    +0.000 N 
ATOM     10  C   UNL     1       4.137   4.148  17.427  0.00  0.00    +0.000 C 
ATOM     11  C   UNL     1       5.586   3.698  17.600  0.00  0.00    +0.000 C 
ATOM     12  C   UNL     1       6.588   4.618  16.877  0.00  0.00    +0.000 C 
ATOM     13  C   UNL     1       6.342   6.054  17.377  0.00  0.00    +0.000 C 
ATOM     14  C   UNL     1       4.895   6.495  17.196  0.00  0.00    +0.000 C 
BRANCH  12  15
ATOM     15  C   UNL     1       6.647   4.499  15.354  0.00  0.00    +0.000 A 
ATOM     16  C   UNL     1       7.556   5.222  14.565  0.00  0.00    +0.000 A 
ATOM     17  C   UNL     1       7.552   5.121  13.170  0.00  0.00    +0.000 A 
ATOM     18  C   UNL     1       6.620   4.311  12.532  0.00  0.00    +0.000 A 
ATOM     19  C   UNL     1       5.695   3.601  13.289  0.00  0.00    +0.000 A 
ATOM     20  C   UNL     1       5.706   3.697  14.684  0.00  0.00    +0.000 A 
ENDBRANCH  12  15
ENDBRANCH   4   7
BRANCH   1  21
ATOM     21  C   UNL     1       0.735  11.241  19.156  0.00  0.00    +0.000 C 
BRANCH  21  25
ATOM     22  N   UNL     1      -2.742  11.859  18.418  0.00  0.00    +0.000 N 
ATOM     23  C   UNL     1      -1.624  11.565  19.162  0.00  0.00    +0.000 C 
ATOM     24  O   UNL     1      -1.580  11.417  20.379  0.00  0.00    +0.000 OA
ATOM     25  N   UNL     1      -0.483  11.424  18.402  0.00  0.00    +0.000 N 
ATOM     26  H   UNL     1      -2.630  11.870  17.415  0.00  0.00    +0.000 HD
ATOM     27  H   UNL     1      -0.426  11.924  17.526  0.00  0.00    +0.000 HD
BRANCH  22  31
ATOM     28  C   UNL     1      -6.683  12.290  19.895  0.00  0.00    +0.000 A 
ATOM     29  C   UNL     1      -5.617  12.826  20.606  0.00  0.00    +0.000 A 
ATOM     30  C   UNL     1      -4.316  12.713  20.120  0.00  0.00    +0.000 A 
ATOM     31  C   UNL     1      -4.048  12.035  18.929  0.00  0.00    +0.000 A 
ATOM     32  C   UNL     1      -5.124  11.494  18.216  0.00  0.00    +0.000 A 
ATOM     33  C   UNL     1      -6.437  11.621  18.697  0.00  0.00    +0.000 A 
BRANCH  28  35
ATOM     34  C   UNL     1      -7.909  13.217  21.687  0.00  0.00    +0.000 C 
ATOM     35  O   UNL     1      -7.898  12.444  20.496  0.00  0.00    +0.000 OA
ENDBRANCH  28  35
ENDBRANCH  22  31
ENDBRANCH  21  25
ENDBRANCH   1  21
TORSDOF 6
ENDMDL
MODEL 6
REMARK VINA RESULT:      -8.5      4.128      5.267
REMARK  Name = 
REMARK  7 active torsions:
REMARK  status: ('A' for Active; 'I' for Inactive)
REMARK    1  A    between atoms: C_1  and  O_2
REMARK    2  A    between atoms: O_2  and  C_3
REMARK    3  A    between atoms: C_6  and  N_7
REMARK    4  A    between atoms: N_10  and  C_11
REMARK    5  A    between atoms: C_11  and  C_12
REMARK    6  A    between atoms: C_15  and  C_16
REMARK    7  A    between atoms: C_21  and  C_22
REMARK                            x       y       z     vdW  Elec       q    Type
REMARK                         _______ _______ _______ _____ _____    ______ ____
ROOT
ATOM      1  C   UNL     1       1.203   9.260  19.142  0.00  0.00    +0.000 A 
ATOM      2  C   UNL     1       1.417   8.403  20.229  0.00  0.00    +0.000 A 
ATOM      3  C   UNL     1       2.203   7.262  20.076  0.00  0.00    +0.000 A 
ATOM      4  C   UNL     1       2.783   6.965  18.836  0.00  0.00    +0.000 A 
ATOM      5  C   UNL     1       2.540   7.803  17.744  0.00  0.00    +0.000 A 
ATOM      6  C   UNL     1       1.791   8.968  17.907  0.00  0.00    +0.000 A 
ENDROOT
BRANCH   4   7
ATOM      7  C   UNL     1       3.538   5.692  18.716  0.00  0.00    +0.000 C 
ATOM      8  O   UNL     1       3.183   4.770  19.451  0.00  0.00    +0.000 OA
ATOM      9  N   UNL     1       4.609   5.568  17.824  0.00  0.00    +0.000 N 
ATOM     10  C   UNL     1       5.094   4.218  17.560  0.00  0.00    +0.000 C 
ATOM     11  C   UNL     1       6.614   4.166  17.425  0.00  0.00    +0.000 C 
ATOM     12  C   UNL     1       7.158   5.182  16.402  0.00  0.00    +0.000 C 
ATOM     13  C   UNL     1       6.639   6.574  16.810  0.00  0.00    +0.000 C 
ATOM     14  C   UNL     1       5.121   6.616  16.938  0.00  0.00    +0.000 C 
BRANCH  12  15
ATOM     15  C   UNL     1       6.934   4.852  14.927  0.00  0.00    +0.000 A 
ATOM     16  C   UNL     1       6.017   3.883  14.489  0.00  0.00    +0.000 A 
ATOM     17  C   UNL     1       5.872   3.576  13.133  0.00  0.00    +0.000 A 
ATOM     18  C   UNL     1       6.660   4.216  12.184  0.00  0.00    +0.000 A 
ATOM     19  C   UNL     1       7.592   5.165  12.592  0.00  0.00    +0.000 A 
ATOM     20  C   UNL     1       7.729   5.476  13.949  0.00  0.00    +0.000 A 
ENDBRANCH  12  15
ENDBRANCH   4   7
BRANCH   1  21
ATOM     21  C   UNL     1       0.279  10.431  19.272  0.00  0.00    +0.000 C 
BRANCH  21  25
ATOM     22  N   UNL     1      -0.301  12.571  22.118  0.00  0.00    +0.000 N 
ATOM     23  C   UNL     1      -0.561  11.903  20.945  0.00  0.00    +0.000 C 
ATOM     24  O   UNL     1      -1.636  11.861  20.356  0.00  0.00    +0.000 OA
ATOM     25  N   UNL     1       0.540  11.249  20.433  0.00  0.00    +0.000 N 
ATOM     26  H   UNL     1       0.656  12.576  22.436  0.00  0.00    +0.000 HD
ATOM     27  H   UNL     1       1.257  10.944  21.075  0.00  0.00    +0.000 HD
BRANCH  22  31
ATOM     28  C   UNL     1      -3.124  14.781  24.363  0.00  0.00    +0.000 A 
ATOM     29  C   UNL     1      -1.965  15.399  23.913  0.00  0.00    +0.000 A 
ATOM     30  C   UNL     1      -1.037  14.691  23.152  0.00  0.00    +0.000 A 
ATOM     31  C   UNL     1      -1.233  13.341  22.850  0.00  0.00    +0.000 A 
ATOM     32  C   UNL     1      -2.400  12.721  23.308  0.00  0.00    +0.000 A 
ATOM     33  C   UNL     1      -3.344  13.438  24.061  0.00  0.00    +0.000 A 
BRANCH  28  35
ATOM     34  C   UNL     1      -3.828  16.974  24.884  0.00  0.00    +0.000 C 
ATOM     35  O   UNL     1      -3.931  15.578  25.121  0.00  0.00    +0.000 OA
ENDBRANCH  28  35
ENDBRANCH  22  31
ENDBRANCH  21  25
ENDBRANCH   1  21
TORSDOF 6
ENDMDL
MODEL 7
REMARK VINA RESULT:      -8.4      4.021      5.492
REMARK  Name = 
REMARK  7 active torsions:
REMARK  status: ('A' for Active; 'I' for Inactive)
REMARK    1  A    between atoms: C_1  and  O_2
REMARK    2  A    between atoms: O_2  and  C_3
REMARK    3  A    between atoms: C_6  and  N_7
REMARK    4  A    between atoms: N_10  and  C_11
REMARK    5  A    between atoms: C_11  and  C_12
REMARK    6  A    between atoms: C_15  and  C_16
REMARK    7  A    between atoms: C_21  and  C_22
REMARK                            x       y       z     vdW  Elec       q    Type
REMARK                         _______ _______ _______ _____ _____    ______ ____
ROOT
ATOM      1  C   UNL     1       1.357   9.234  19.020  0.00  0.00    +0.000 A 
ATOM      2  C   UNL     1       2.065   8.904  17.856  0.00  0.00    +0.000 A 
ATOM      3  C   UNL     1       2.810   7.727  17.802  0.00  0.00    +0.000 A 
ATOM      4  C   UNL     1       2.857   6.867  18.907  0.00  0.00    +0.000 A 
ATOM      5  C   UNL     1       2.177   7.216  20.078  0.00  0.00    +0.000 A 
ATOM      6  C   UNL     1       1.396   8.370  20.119  0.00  0.00    +0.000 A 
ENDROOT
BRANCH   4   7
ATOM      7  C   UNL     1       3.735   5.674  18.816  0.00  0.00    +0.000 C 
ATOM      8  O   UNL     1       3.545   4.786  19.646  0.00  0.00    +0.000 OA
ATOM      9  N   UNL     1       4.736   5.587  17.842  0.00  0.00    +0.000 N 
ATOM     10  C   UNL     1       5.344   4.277  17.638  0.00  0.00    +0.000 C 
ATOM     11  C   UNL     1       6.844   4.370  17.371  0.00  0.00    +0.000 C 
ATOM     12  C   UNL     1       7.188   5.347  16.230  0.00  0.00    +0.000 C 
ATOM     13  C   UNL     1       6.554   6.707  16.578  0.00  0.00    +0.000 C 
ATOM     14  C   UNL     1       5.056   6.603  16.839  0.00  0.00    +0.000 C 
BRANCH  12  15
ATOM     15  C   UNL     1       6.883   4.872  14.810  0.00  0.00    +0.000 A 
ATOM     16  C   UNL     1       5.810   4.022  14.501  0.00  0.00    +0.000 A 
ATOM     17  C   UNL     1       5.588   3.572  13.195  0.00  0.00    +0.000 A 
ATOM     18  C   UNL     1       6.451   3.946  12.173  0.00  0.00    +0.000 A 
ATOM     19  C   UNL     1       7.535   4.770  12.455  0.00  0.00    +0.000 A 
ATOM     20  C   UNL     1       7.750   5.225  13.760  0.00  0.00    +0.000 A 
ENDBRANCH  12  15
ENDBRANCH   4   7
BRANCH   1  21
ATOM     21  C   UNL     1       0.637  10.542  19.122  0.00  0.00    +0.000 C 
BRANCH  21  25
ATOM     22  N   UNL     1      -0.640  12.147  22.090  0.00  0.00    +0.000 N 
ATOM     23  C   UNL     1      -0.568  11.766  20.771  0.00  0.00    +0.000 C 
ATOM     24  O   UNL     1      -1.401  12.000  19.900  0.00  0.00    +0.000 OA
ATOM     25  N   UNL     1       0.582  11.070  20.465  0.00  0.00    +0.000 N 
ATOM     26  H   UNL     1       0.164  11.948  22.664  0.00  0.00    +0.000 HD
ATOM     27  H   UNL     1       1.032  10.543  21.199  0.00  0.00    +0.000 HD
BRANCH  22  31
ATOM     28  C   UNL     1      -3.743  14.461  23.795  0.00  0.00    +0.000 A 
ATOM     29  C   UNL     1      -3.957  13.117  23.522  0.00  0.00    +0.000 A 
ATOM     30  C   UNL     1      -2.936  12.335  22.982  0.00  0.00    +0.000 A 
ATOM     31  C   UNL     1      -1.691  12.889  22.676  0.00  0.00    +0.000 A 
ATOM     32  C   UNL     1      -1.480  14.245  22.950  0.00  0.00    +0.000 A 
ATOM     33  C   UNL     1      -2.503  15.029  23.509  0.00  0.00    +0.000 A 
BRANCH  28  35
ATOM     34  C   UNL     1      -6.083  14.766  23.721  0.00  0.00    +0.000 C 
ATOM     35  O   UNL     1      -4.832  15.116  24.293  0.00  0.00    +0.000 OA
ENDBRANCH  28  35
ENDBRANCH  22  31
ENDBRANCH  21  25
ENDBRANCH   1  21
TORSDOF 6
ENDMDL
MODEL 8
REMARK VINA RESULT:      -8.4      4.687      6.609
REMARK  Name = 
REMARK  7 active torsions:
REMARK  status: ('A' for Active; 'I' for Inactive)
REMARK    1  A    between atoms: C_1  and  O_2
REMARK    2  A    between atoms: O_2  and  C_3
REMARK    3  A    between atoms: C_6  and  N_7
REMARK    4  A    between atoms: N_10  and  C_11
REMARK    5  A    between atoms: C_11  and  C_12
REMARK    6  A    between atoms: C_15  and  C_16
REMARK    7  A    between atoms: C_21  and  C_22
REMARK                            x       y       z     vdW  Elec       q    Type
REMARK                         _______ _______ _______ _____ _____    ______ ____
ROOT
ATOM      1  C   UNL     1       8.644   9.105  18.534  0.00  0.00    +0.000 A 
ATOM      2  C   UNL     1       7.779   9.111  17.432  0.00  0.00    +0.000 A 
ATOM      3  C   UNL     1       7.120   7.943  17.053  0.00  0.00    +0.000 A 
ATOM      4  C   UNL     1       7.319   6.755  17.770  0.00  0.00    +0.000 A 
ATOM      5  C   UNL     1       8.208   6.744  18.849  0.00  0.00    +0.000 A 
ATOM      6  C   UNL     1       8.833   7.922  19.256  0.00  0.00    +0.000 A 
ENDROOT
BRANCH   4   7
ATOM      7  C   UNL     1       6.655   5.527  17.266  0.00  0.00    +0.000 C 
ATOM      8  O   UNL     1       7.334   4.789  16.552  0.00  0.00    +0.000 OA
ATOM      9  N   UNL     1       5.321   5.246  17.579  0.00  0.00    +0.000 N 
ATOM     10  C   UNL     1       4.848   3.896  17.295  0.00  0.00    +0.000 C 
ATOM     11  C   UNL     1       3.413   3.883  16.772  0.00  0.00    +0.000 C 
ATOM     12  C   UNL     1       2.439   4.653  17.684  0.00  0.00    +0.000 C 
ATOM     13  C   UNL     1       2.999   6.077  17.865  0.00  0.00    +0.000 C 
ATOM     14  C   UNL     1       4.430   6.077  18.390  0.00  0.00    +0.000 C 
BRANCH  12  15
ATOM     15  C   UNL     1       2.052   3.975  18.997  0.00  0.00    +0.000 A 
ATOM     16  C   UNL     1       2.180   4.598  20.248  0.00  0.00    +0.000 A 
ATOM     17  C   UNL     1       1.857   3.929  21.433  0.00  0.00    +0.000 A 
ATOM     18  C   UNL     1       1.420   2.610  21.393  0.00  0.00    +0.000 A 
ATOM     19  C   UNL     1       1.304   1.962  20.168  0.00  0.00    +0.000 A 
ATOM     20  C   UNL     1       1.620   2.636  18.984  0.00  0.00    +0.000 A 
ENDBRANCH  12  15
ENDBRANCH   4   7
BRANCH   1  21
ATOM     21  C   UNL     1       9.431  10.329  18.886  0.00  0.00    +0.000 C 
BRANCH  21  25
ATOM     22  N   UNL     1       9.180  11.959  22.094  0.00  0.00    +0.000 N 
ATOM     23  C   UNL     1       9.176  11.817  20.727  0.00  0.00    +0.000 C 
ATOM     24  O   UNL     1       8.895  12.686  19.907  0.00  0.00    +0.000 OA
ATOM     25  N   UNL     1       9.544  10.557  20.307  0.00  0.00    +0.000 N 
ATOM     26  H   UNL     1       9.512  11.173  22.631  0.00  0.00    +0.000 HD
ATOM     27  H   UNL     1       9.375   9.778  20.926  0.00  0.00    +0.000 HD
BRANCH  22  31
ATOM     28  C   UNL     1       8.208  15.439  24.294  0.00  0.00    +0.000 A 
ATOM     29  C   UNL     1       9.223  15.483  23.347  0.00  0.00    +0.000 A 
ATOM     30  C   UNL     1       9.539  14.351  22.598  0.00  0.00    +0.000 A 
ATOM     31  C   UNL     1       8.867  13.143  22.800  0.00  0.00    +0.000 A 
ATOM     32  C   UNL     1       7.847  13.102  23.756  0.00  0.00    +0.000 A 
ATOM     33  C   UNL     1       7.517  14.247  24.500  0.00  0.00    +0.000 A 
BRANCH  28  35
ATOM     34  C   UNL     1       7.527  16.478  26.301  0.00  0.00    +0.000 C 
ATOM     35  O   UNL     1       8.022  16.606  24.977  0.00  0.00    +0.000 OA
ENDBRANCH  28  35
ENDBRANCH  22  31
ENDBRANCH  21  25
ENDBRANCH   1  21
TORSDOF 6
ENDMDL
MODEL 9
REMARK VINA RESULT:      -8.3      0.883      1.251
REMARK  Name = 
REMARK  7 active torsions:
REMARK  status: ('A' for Active; 'I' for Inactive)
REMARK    1  A    between atoms: C_1  and  O_2
REMARK    2  A    between atoms: O_2  and  C_3
REMARK    3  A    between atoms: C_6  and  N_7
REMARK    4  A    between atoms: N_10  and  C_11
REMARK    5  A    between atoms: C_11  and  C_12
REMARK    6  A    between atoms: C_15  and  C_16
REMARK    7  A    between atoms: C_21  and  C_22
REMARK                            x       y       z     vdW  Elec       q    Type
REMARK                         _______ _______ _______ _____ _____    ______ ____
ROOT
ATOM      1  C   UNL     1       1.082   9.698  18.873  0.00  0.00    +0.000 A 
ATOM      2  C   UNL     1       1.701   9.151  17.741  0.00  0.00    +0.000 A 
ATOM      3  C   UNL     1       2.391   7.944  17.836  0.00  0.00    +0.000 A 
ATOM      4  C   UNL     1       2.472   7.270  19.062  0.00  0.00    +0.000 A 
ATOM      5  C   UNL     1       1.883   7.835  20.197  0.00  0.00    +0.000 A 
ATOM      6  C   UNL     1       1.154   9.019  20.094  0.00  0.00    +0.000 A 
ENDROOT
BRANCH   4   7
ATOM      7  C   UNL     1       3.293   6.034  19.116  0.00  0.00    +0.000 C 
ATOM      8  O   UNL     1       2.965   5.192  19.952  0.00  0.00    +0.000 OA
ATOM      9  N   UNL     1       4.391   5.859  18.267  0.00  0.00    +0.000 N 
ATOM     10  C   UNL     1       4.950   4.514  18.183  0.00  0.00    +0.000 C 
ATOM     11  C   UNL     1       6.474   4.526  18.086  0.00  0.00    +0.000 C 
ATOM     12  C   UNL     1       6.993   5.436  16.957  0.00  0.00    +0.000 C 
ATOM     13  C   UNL     1       6.395   6.838  17.179  0.00  0.00    +0.000 C 
ATOM     14  C   UNL     1       4.874   6.815  17.270  0.00  0.00    +0.000 C 
BRANCH  12  15
ATOM     15  C   UNL     1       6.826   4.916  15.530  0.00  0.00    +0.000 A 
ATOM     16  C   UNL     1       7.593   5.382  14.450  0.00  0.00    +0.000 A 
ATOM     17  C   UNL     1       7.381   4.914  13.149  0.00  0.00    +0.000 A 
ATOM     18  C   UNL     1       6.379   3.985  12.896  0.00  0.00    +0.000 A 
ATOM     19  C   UNL     1       5.591   3.523  13.944  0.00  0.00    +0.000 A 
ATOM     20  C   UNL     1       5.810   3.986  15.245  0.00  0.00    +0.000 A 
ENDBRANCH  12  15
ENDBRANCH   4   7
BRANCH   1  21
ATOM     21  C   UNL     1       0.425  11.041  18.802  0.00  0.00    +0.000 C 
BRANCH  21  25
ATOM     22  N   UNL     1       2.373  13.816  20.034  0.00  0.00    +0.000 N 
ATOM     23  C   UNL     1       1.952  12.830  19.174  0.00  0.00    +0.000 C 
ATOM     24  O   UNL     1       2.360  12.638  18.033  0.00  0.00    +0.000 OA
ATOM     25  N   UNL     1       0.986  12.009  19.715  0.00  0.00    +0.000 N 
ATOM     26  H   UNL     1       1.997  13.794  20.970  0.00  0.00    +0.000 HD
ATOM     27  H   UNL     1       0.384  12.386  20.432  0.00  0.00    +0.000 HD
BRANCH  22  31
ATOM     28  C   UNL     1       5.424  16.638  19.240  0.00  0.00    +0.000 A 
ATOM     29  C   UNL     1       4.276  16.625  18.459  0.00  0.00    +0.000 A 
ATOM     30  C   UNL     1       3.252  15.717  18.723  0.00  0.00    +0.000 A 
ATOM     31  C   UNL     1       3.366  14.783  19.755  0.00  0.00    +0.000 A 
ATOM     32  C   UNL     1       4.525  14.796  20.538  0.00  0.00    +0.000 A 
ATOM     33  C   UNL     1       5.551  15.721  20.283  0.00  0.00    +0.000 A 
BRANCH  28  35
ATOM     34  C   UNL     1       7.634  17.034  18.511  0.00  0.00    +0.000 C 
ATOM     35  O   UNL     1       6.359  17.554  18.857  0.00  0.00    +0.000 OA
ENDBRANCH  28  35
ENDBRANCH  22  31
ENDBRANCH  21  25
ENDBRANCH   1  21
TORSDOF 6
ENDMDL
