MODEL 1
REMARK VINA RESULT:      -7.4      0.000      0.000
REMARK  Name = 
REMARK  16 active torsions:
REMARK  status: ('A' for Active; 'I' for Inactive)
REMARK    1  A    between atoms: C_1  and  C_2
REMARK    2  A    between atoms: C_2  and  C_3
REMARK    3  A    between atoms: C_3  and  C_4
REMARK    4  A    between atoms: C_7  and  C_8
REMARK    5  A    between atoms: C_8  and  O_9
REMARK    6  A    between atoms: O_9  and  C_10
REMARK    7  A    between atoms: N_12  and  CA_13
REMARK    8  A    between atoms: CA_13  and  CB_14
REMARK    9  A    between atoms: CA_13  and  C_18
REMARK   10  A    between atoms: CB_14  and  CG_15
REMARK   11  A    between atoms: CG_15  and  CD1_16
REMARK   12  A    between atoms: CG_15  and  CD2_17
REMARK   13  A    between atoms: N_20  and  C_21
REMARK   14  A    between atoms: C_21  and  C_22
REMARK   15  A    between atoms: C_21  and  C_24
REMARK   16  A    between atoms: C_24  and  C_25
REMARK                            x       y       z     vdW  Elec       q    Type
REMARK                         _______ _______ _______ _____ _____    ______ ____
ROOT
ATOM      1  CA  LEU A   1       3.232   5.917  18.499  0.00  0.00    +0.000 C 
ENDROOT
BRANCH   1   4
ATOM      2  C   UNK A   0       5.631   5.608  19.128  0.00  0.00    +0.000 C 
ATOM      3  O   UNK A   0       6.341   4.920  19.849  0.00  0.00    +0.000 OA
ATOM      4  N   LEU A   1       4.341   5.887  19.449  0.00  0.00    +0.000 N 
ATOM      5  H   LEU A   1       4.092   5.579  20.381  0.00  0.00    +0.000 HD
BRANCH   2   6
ATOM      6  O   UNK A   0       6.069   6.318  18.061  0.00  0.00    +0.000 OA
BRANCH   6   7
ATOM      7  C   UNK A   0       6.969   5.541  17.256  0.00  0.00    +0.000 C 
BRANCH   7  11
ATOM      8  C   UNK A   0       6.083   3.623  13.416  0.00  0.00    +0.000 C 
ATOM      9  C   UNK A   0       7.133   4.745  13.460  0.00  0.00    +0.000 C 
ATOM     10  C   UNK A   0       7.631   5.026  14.873  0.00  0.00    +0.000 C 
ATOM     11  C   UNK A   0       6.474   5.340  15.825  0.00  0.00    +0.000 C 
ATOM     12  C   UNK A   0       5.442   4.200  15.801  0.00  0.00    +0.000 C 
ATOM     13  C   UNK A   0       4.932   3.923  14.389  0.00  0.00    +0.000 C 
BRANCH   8  14
ATOM     14  C   UNK A   0       5.525   3.412  11.995  0.00  0.00    +0.000 C 
BRANCH  14  16
ATOM     15  C   UNK A   0       7.173   1.712  11.121  0.00  0.00    +0.000 C 
ATOM     16  C   UNK A   0       5.722   1.985  11.479  0.00  0.00    +0.000 C 
ENDBRANCH  14  16
ENDBRANCH   8  14
ENDBRANCH   7  11
ENDBRANCH   6   7
ENDBRANCH   2   6
ENDBRANCH   1   4
BRANCH   1  17
ATOM     17  C   LEU A   1       2.825   7.405  18.387  0.00  0.00    +0.000 C 
ATOM     18  O   LEU A   1       3.357   8.174  17.587  0.00  0.00    +0.000 OA
ATOM     19  N   UNK A   2       1.881   7.826  19.297  0.00  0.00    +0.000 N 
ATOM     20  H   UNK A   2       1.450   7.120  19.882  0.00  0.00    +0.000 HD
BRANCH  19  21
ATOM     21  C   UNK A   2       1.399   9.205  19.356  0.00  0.00    +0.000 C 
BRANCH  21  22
ATOM     22  C   UNK A   2       0.980   9.539  20.778  0.00  0.00    +0.000 C 
ATOM     23  O   UNK A   2       1.003   8.731  21.714  0.00  0.00    +0.000 OA
ENDBRANCH  21  22
BRANCH  21  24
ATOM     24  C   UNK A   2       0.382   9.562  18.259  0.00  0.00    +0.000 C 
BRANCH  24  25
ATOM     25  C   UNK A   2      -0.912  10.318  18.591  0.00  0.00    +0.000 C 
ATOM     26  C   UNK A   2      -2.148   9.989  17.745  0.00  0.00    +0.000 C 
ATOM     27  C   UNK A   2      -2.259  11.119  16.742  0.00  0.00    +0.000 C 
ATOM     28  N   UNK A   2      -1.593  12.211  17.385  0.00  0.00    +0.000 N 
ATOM     29  C   UNK A   2      -0.789  11.814  18.425  0.00  0.00    +0.000 C 
ATOM     30  O   UNK A   2      -0.024  12.556  19.016  0.00  0.00    +0.000 OA
ATOM     31  H   UNK A   2      -1.633  13.179  17.091  0.00  0.00    +0.000 HD
ENDBRANCH  24  25
ENDBRANCH  21  24
ENDBRANCH  19  21
ENDBRANCH   1  17
BRANCH   1  32
ATOM     32  CB  LEU A   1       2.089   5.071  19.097  0.00  0.00    +0.000 C 
BRANCH  32  33
ATOM     33  CG  LEU A   1       2.032   3.572  18.761  0.00  0.00    +0.000 C 
ATOM     34  CD1 LEU A   1       2.321   3.253  17.296  0.00  0.00    +0.000 C 
ATOM     35  CD2 LEU A   1       3.042   2.827  19.648  0.00  0.00    +0.000 C 
ENDBRANCH  32  33
ENDBRANCH   1  32
TORSDOF 13
ENDMDL
MODEL 2
REMARK VINA RESULT:      -7.3      2.735      9.824
REMARK  Name = 
REMARK  16 active torsions:
REMARK  status: ('A' for Active; 'I' for Inactive)
REMARK    1  A    between atoms: C_1  and  C_2
REMARK    2  A    between atoms: C_2  and  C_3
REMARK    3  A    between atoms: C_3  and  C_4
REMARK    4  A    between atoms: C_7  and  C_8
REMARK    5  A    between atoms: C_8  and  O_9
REMARK    6  A    between atoms: O_9  and  C_10
REMARK    7  A    between atoms: N_12  and  CA_13
REMARK    8  A    between atoms: CA_13  and  CB_14
REMARK    9  A    between atoms: CA_13  and  C_18
REMARK   10  A    between atoms: CB_14  and  CG_15
REMARK   11  A    between atoms: CG_15  and  CD1_16
REMARK   12  A    between atoms: CG_15  and  CD2_17
REMARK   13  A    between atoms: N_20  and  C_21
REMARK   14  A    between atoms: C_21  and  C_22
REMARK   15  A    between atoms: C_21  and  C_24
REMARK   16  A    between atoms: C_24  and  C_25
REMARK                            x       y       z     vdW  Elec       q    Type
REMARK                         _______ _______ _______ _____ _____    ______ ____
ROOT
ATOM      1  CA  LEU A   1       2.998   5.908  18.753  0.00  0.00    +0.000 C 
ENDROOT
BRANCH   1   4
ATOM      2  C   UNK A   0       1.975   8.164  18.420  0.00  0.00    +0.000 C 
ATOM      3  O   UNK A   0       1.664   8.942  17.527  0.00  0.00    +0.000 OA
ATOM      4  N   LEU A   1       3.006   7.291  18.282  0.00  0.00    +0.000 N 
ATOM      5  H   LEU A   1       3.545   7.449  17.439  0.00  0.00    +0.000 HD
BRANCH   2   6
ATOM      6  O   UNK A   0       1.486   8.199  19.683  0.00  0.00    +0.000 OA
BRANCH   6   7
ATOM      7  C   UNK A   0       1.663   9.498  20.270  0.00  0.00    +0.000 C 
BRANCH   7  11
ATOM      8  C   UNK A   0      -1.038  11.921  22.728  0.00  0.00    +0.000 C 
ATOM      9  C   UNK A   0      -0.964  10.406  22.980  0.00  0.00    +0.000 C 
ATOM     10  C   UNK A   0       0.278   9.770  22.364  0.00  0.00    +0.000 C 
ATOM     11  C   UNK A   0       0.377  10.067  20.866  0.00  0.00    +0.000 C 
ATOM     12  C   UNK A   0       0.334  11.585  20.622  0.00  0.00    +0.000 C 
ATOM     13  C   UNK A   0      -0.913  12.224  21.227  0.00  0.00    +0.000 C 
BRANCH   8  14
ATOM     14  C   UNK A   0      -2.341  12.533  23.278  0.00  0.00    +0.000 C 
BRANCH  14  16
ATOM     15  C   UNK A   0      -4.531  13.549  22.541  0.00  0.00    +0.000 C 
ATOM     16  C   UNK A   0      -3.503  12.460  22.286  0.00  0.00    +0.000 C 
ENDBRANCH  14  16
ENDBRANCH   8  14
ENDBRANCH   7  11
ENDBRANCH   6   7
ENDBRANCH   2   6
ENDBRANCH   1   4
BRANCH   1  17
ATOM     17  C   LEU A   1       4.479   5.462  18.745  0.00  0.00    +0.000 C 
ATOM     18  O   LEU A   1       5.053   5.069  19.760  0.00  0.00    +0.000 OA
ATOM     19  N   UNK A   2       5.131   5.609  17.540  0.00  0.00    +0.000 N 
ATOM     20  H   UNK A   2       4.574   5.883  16.740  0.00  0.00    +0.000 HD
BRANCH  19  21
ATOM     21  C   UNK A   2       6.539   5.265  17.357  0.00  0.00    +0.000 C 
BRANCH  21  22
ATOM     22  C   UNK A   2       7.402   6.484  17.634  0.00  0.00    +0.000 C 
ATOM     23  O   UNK A   2       7.829   7.244  16.758  0.00  0.00    +0.000 OA
ENDBRANCH  21  22
BRANCH  21  24
ATOM     24  C   UNK A   2       6.838   4.520  16.044  0.00  0.00    +0.000 C 
BRANCH  24  25
ATOM     25  C   UNK A   2       6.327   5.047  14.697  0.00  0.00    +0.000 C 
ATOM     26  C   UNK A   2       5.239   4.227  13.995  0.00  0.00    +0.000 C 
ATOM     27  C   UNK A   2       5.961   3.441  12.920  0.00  0.00    +0.000 C 
ATOM     28  N   UNK A   2       7.128   4.225  12.652  0.00  0.00    +0.000 N 
ATOM     29  C   UNK A   2       7.405   5.135  13.643  0.00  0.00    +0.000 C 
ATOM     30  O   UNK A   2       8.423   5.802  13.689  0.00  0.00    +0.000 OA
ATOM     31  H   UNK A   2       7.748   4.104  11.861  0.00  0.00    +0.000 HD
ENDBRANCH  24  25
ENDBRANCH  21  24
ENDBRANCH  19  21
ENDBRANCH   1  17
BRANCH   1  32
ATOM     32  CB  LEU A   1       2.164   5.084  17.752  0.00  0.00    +0.000 C 
BRANCH  32  33
ATOM     33  CG  LEU A   1       1.563   3.749  18.221  0.00  0.00    +0.000 C 
ATOM     34  CD1 LEU A   1       2.441   2.535  17.924  0.00  0.00    +0.000 C 
ATOM     35  CD2 LEU A   1       1.305   3.826  19.734  0.00  0.00    +0.000 C 
ENDBRANCH  32  33
ENDBRANCH   1  32
TORSDOF 13
ENDMDL
MODEL 3
REMARK VINA RESULT:      -7.2      1.517      2.016
REMARK  Name = 
REMARK  16 active torsions:
REMARK  status: ('A' for Active; 'I' for Inactive)
REMARK    1  A    between atoms: C_1  and  C_2
REMARK    2  A    between atoms: C_2  and  C_3
REMARK    3  A    between atoms: C_3  and  C_4
REMARK    4  A    between atoms: C_7  and  C_8
REMARK    5  A    between atoms: C_8  and  O_9
REMARK    6  A    between atoms: O_9  and  C_10
REMARK    7  A    between atoms: N_12  and  CA_13
REMARK    8  A    between atoms: CA_13  and  CB_14
REMARK    9  A    between atoms: CA_13  and  C_18
REMARK   10  A    between atoms: CB_14  and  CG_15
REMARK   11  A    between atoms: CG_15  and  CD1_16
REMARK   12  A    between atoms: CG_15  and  CD2_17
REMARK   13  A    between atoms: N_20  and  C_21
REMARK   14  A    between atoms: C_21  and  C_22
REMARK   15  A    between atoms: C_21  and  C_24
REMARK   16  A    between atoms: C_24  and  C_25
REMARK                            x       y       z     vdW  Elec       q    Type
REMARK                         _______ _______ _______ _____ _____    ______ ____
ROOT
ATOM      1  CA  LEU A   1       3.524   4.846  18.805  0.00  0.00    +0.000 C 
ENDROOT
BRANCH   1   4
ATOM      2  C   UNK A   0       5.991   5.065  19.142  0.00  0.00    +0.000 C 
ATOM      3  O   UNK A   0       6.806   5.374  20.000  0.00  0.00    +0.000 OA
ATOM      4  N   LEU A   1       4.739   5.592  19.120  0.00  0.00    +0.000 N 
ATOM      5  H   LEU A   1       4.615   6.339  19.793  0.00  0.00    +0.000 HD
BRANCH   2   6
ATOM      6  O   UNK A   0       6.271   4.341  18.032  0.00  0.00    +0.000 OA
BRANCH   6   7
ATOM      7  C   UNK A   0       7.067   5.098  17.107  0.00  0.00    +0.000 C 
BRANCH   7  11
ATOM      8  C   UNK A   0       6.211   3.654  13.058  0.00  0.00    +0.000 C 
ATOM      9  C   UNK A   0       7.146   4.863  13.233  0.00  0.00    +0.000 C 
ATOM     10  C   UNK A   0       7.674   4.993  14.657  0.00  0.00    +0.000 C 
ATOM     11  C   UNK A   0       6.533   5.050  15.676  0.00  0.00    +0.000 C 
ATOM     12  C   UNK A   0       5.619   3.824  15.518  0.00  0.00    +0.000 C 
ATOM     13  C   UNK A   0       5.079   3.695  14.097  0.00  0.00    +0.000 C 
BRANCH   8  14
ATOM     14  C   UNK A   0       5.616   3.588  11.638  0.00  0.00    +0.000 C 
BRANCH  14  16
ATOM     15  C   UNK A   0       3.446   3.697  10.354  0.00  0.00    +0.000 C 
ATOM     16  C   UNK A   0       4.128   3.230  11.628  0.00  0.00    +0.000 C 
ENDBRANCH  14  16
ENDBRANCH   8  14
ENDBRANCH   7  11
ENDBRANCH   6   7
ENDBRANCH   2   6
ENDBRANCH   1   4
BRANCH   1  17
ATOM     17  C   LEU A   1       2.445   5.916  18.517  0.00  0.00    +0.000 C 
ATOM     18  O   LEU A   1       1.533   5.731  17.713  0.00  0.00    +0.000 OA
ATOM     19  N   UNK A   2       2.622   7.118  19.166  0.00  0.00    +0.000 N 
ATOM     20  H   UNK A   2       3.364   7.171  19.855  0.00  0.00    +0.000 HD
BRANCH  19  21
ATOM     21  C   UNK A   2       1.717   8.252  18.991  0.00  0.00    +0.000 C 
BRANCH  21  22
ATOM     22  C   UNK A   2       2.202   9.118  17.841  0.00  0.00    +0.000 C 
ATOM     23  O   UNK A   2       2.363  10.342  17.916  0.00  0.00    +0.000 OA
ENDBRANCH  21  22
BRANCH  21  24
ATOM     24  C   UNK A   2       1.385   8.998  20.295  0.00  0.00    +0.000 C 
BRANCH  24  25
ATOM     25  C   UNK A   2       0.077   9.786  20.448  0.00  0.00    +0.000 C 
ATOM     26  C   UNK A   2      -0.904   9.743  19.271  0.00  0.00    +0.000 C 
ATOM     27  C   UNK A   2      -0.708  11.055  18.539  0.00  0.00    +0.000 C 
ATOM     28  N   UNK A   2      -0.196  11.933  19.545  0.00  0.00    +0.000 N 
ATOM     29  C   UNK A   2       0.293  11.268  20.644  0.00  0.00    +0.000 C 
ATOM     30  O   UNK A   2       0.901  11.807  21.551  0.00  0.00    +0.000 OA
ATOM     31  H   UNK A   2      -0.122  12.940  19.465  0.00  0.00    +0.000 HD
ENDBRANCH  24  25
ENDBRANCH  21  24
ENDBRANCH  19  21
ENDBRANCH   1  17
BRANCH   1  32
ATOM     32  CB  LEU A   1       3.159   4.009  20.048  0.00  0.00    +0.000 C 
BRANCH  32  33
ATOM     33  CG  LEU A   1       1.737   3.436  20.156  0.00  0.00    +0.000 C 
ATOM     34  CD1 LEU A   1       1.424   2.354  19.125  0.00  0.00    +0.000 C 
ATOM     35  CD2 LEU A   1       1.541   2.858  21.566  0.00  0.00    +0.000 C 
ENDBRANCH  32  33
ENDBRANCH   1  32
TORSDOF 13
ENDMDL
MODEL 4
REMARK VINA RESULT:      -7.1      1.845      2.561
REMARK  Name = 
REMARK  16 active torsions:
REMARK  status: ('A' for Active; 'I' for Inactive)
REMARK    1  A    between atoms: C_1  and  C_2
REMARK    2  A    between atoms: C_2  and  C_3
REMARK    3  A    between atoms: C_3  and  C_4
REMARK    4  A    between atoms: C_7  and  C_8
REMARK    5  A    between atoms: C_8  and  O_9
REMARK    6  A    between atoms: O_9  and  C_10
REMARK    7  A    between atoms: N_12  and  CA_13
REMARK    8  A    between atoms: CA_13  and  CB_14
REMARK    9  A    between atoms: CA_13  and  C_18
REMARK   10  A    between atoms: CB_14  and  CG_15
REMARK   11  A    between atoms: CG_15  and  CD1_16
REMARK   12  A    between atoms: CG_15  and  CD2_17
REMARK   13  A    between atoms: N_20  and  C_21
REMARK   14  A    between atoms: C_21  and  C_22
REMARK   15  A    between atoms: C_21  and  C_24
REMARK   16  A    between atoms: C_24  and  C_25
REMARK                            x       y       z     vdW  Elec       q    Type
REMARK                         _______ _______ _______ _____ _____    ______ ____
ROOT
ATOM      1  CA  LEU A   1       3.536   4.556  19.231  0.00  0.00    +0.000 C 
ENDROOT
BRANCH   1   4
ATOM      2  C   UNK A   0       5.874   5.355  18.852  0.00  0.00    +0.000 C 
ATOM      3  O   UNK A   0       7.008   5.209  19.288  0.00  0.00    +0.000 OA
ATOM      4  N   LEU A   1       4.778   5.205  19.641  0.00  0.00    +0.000 N 
ATOM      5  H   LEU A   1       5.011   5.095  20.621  0.00  0.00    +0.000 HD
BRANCH   2   6
ATOM      6  O   UNK A   0       5.572   5.856  17.630  0.00  0.00    +0.000 OA
BRANCH   6   7
ATOM      7  C   UNK A   0       6.759   6.053  16.845  0.00  0.00    +0.000 C 
BRANCH   7  11
ATOM      8  C   UNK A   0       6.439   4.253  12.861  0.00  0.00    +0.000 C 
ATOM      9  C   UNK A   0       5.653   3.625  14.025  0.00  0.00    +0.000 C 
ATOM     10  C   UNK A   0       5.526   4.564  15.219  0.00  0.00    +0.000 C 
ATOM     11  C   UNK A   0       6.895   5.050  15.701  0.00  0.00    +0.000 C 
ATOM     12  C   UNK A   0       7.664   5.705  14.541  0.00  0.00    +0.000 C 
ATOM     13  C   UNK A   0       7.803   4.765  13.347  0.00  0.00    +0.000 C 
BRANCH   8  14
ATOM     14  C   UNK A   0       6.636   3.262  11.699  0.00  0.00    +0.000 C 
BRANCH  14  16
ATOM     15  C   UNK A   0       6.071   0.850  11.212  0.00  0.00    +0.000 C 
ATOM     16  C   UNK A   0       5.527   2.210  11.613  0.00  0.00    +0.000 C 
ENDBRANCH  14  16
ENDBRANCH   8  14
ENDBRANCH   7  11
ENDBRANCH   6   7
ENDBRANCH   2   6
ENDBRANCH   1   4
BRANCH   1  17
ATOM     17  C   LEU A   1       2.563   5.707  18.886  0.00  0.00    +0.000 C 
ATOM     18  O   LEU A   1       1.873   5.702  17.866  0.00  0.00    +0.000 OA
ATOM     19  N   UNK A   2       2.579   6.773  19.758  0.00  0.00    +0.000 N 
ATOM     20  H   UNK A   2       3.130   6.674  20.603  0.00  0.00    +0.000 HD
BRANCH  19  21
ATOM     21  C   UNK A   2       1.747   7.960  19.573  0.00  0.00    +0.000 C 
BRANCH  21  22
ATOM     22  C   UNK A   2       2.322   8.816  18.458  0.00  0.00    +0.000 C 
ATOM     23  O   UNK A   2       1.758   9.015  17.376  0.00  0.00    +0.000 OA
ENDBRANCH  21  22
BRANCH  21  24
ATOM     24  C   UNK A   2       1.409   8.701  20.878  0.00  0.00    +0.000 C 
BRANCH  24  25
ATOM     25  C   UNK A   2      -0.000   9.250  21.138  0.00  0.00    +0.000 C 
ATOM     26  C   UNK A   2      -0.643  10.077  20.019  0.00  0.00    +0.000 C 
ATOM     27  C   UNK A   2      -0.473  11.522  20.442  0.00  0.00    +0.000 C 
ATOM     28  N   UNK A   2      -0.365  11.449  21.867  0.00  0.00    +0.000 N 
ATOM     29  C   UNK A   2      -0.067  10.187  22.321  0.00  0.00    +0.000 C 
ATOM     30  O   UNK A   2       0.210   9.927  23.478  0.00  0.00    +0.000 OA
ATOM     31  H   UNK A   2      -0.428  12.235  22.502  0.00  0.00    +0.000 HD
ENDBRANCH  24  25
ENDBRANCH  21  24
ENDBRANCH  19  21
ENDBRANCH   1  17
BRANCH   1  32
ATOM     32  CB  LEU A   1       3.024   3.737  20.434  0.00  0.00    +0.000 C 
BRANCH  32  33
ATOM     33  CG  LEU A   1       1.546   3.316  20.460  0.00  0.00    +0.000 C 
ATOM     34  CD1 LEU A   1       1.131   2.436  19.283  0.00  0.00    +0.000 C 
ATOM     35  CD2 LEU A   1       1.267   2.566  21.772  0.00  0.00    +0.000 C 
ENDBRANCH  32  33
ENDBRANCH   1  32
TORSDOF 13
ENDMDL
MODEL 5
REMARK VINA RESULT:      -7.1      2.262      9.274
REMARK  Name = 
REMARK  16 active torsions:
REMARK  status: ('A' for Active; 'I' for Inactive)
REMARK    1  A    between atoms: C_1  and  C_2
REMARK    2  A    between atoms: C_2  and  C_3
REMARK    3  A    between atoms: C_3  and  C_4
REMARK    4  A    between atoms: C_7  and  C_8
REMARK    5  A    between atoms: C_8  and  O_9
REMARK    6  A    between atoms: O_9  and  C_10
REMARK    7  A    between atoms: N_12  and  CA_13
REMARK    8  A    between atoms: CA_13  and  CB_14
REMARK    9  A    between atoms: CA_13  and  C_18
REMARK   10  A    between atoms: CB_14  and  CG_15
REMARK   11  A    between atoms: CG_15  and  CD1_16
REMARK   12  A    between atoms: CG_15  and  CD2_17
REMARK   13  A    between atoms: N_20  and  C_21
REMARK   14  A    between atoms: C_21  and  C_22
REMARK   15  A    between atoms: C_21  and  C_24
REMARK   16  A    between atoms: C_24  and  C_25
REMARK                            x       y       z     vdW  Elec       q    Type
REMARK                         _______ _______ _______ _____ _____    ______ ____
ROOT
ATOM      1  CA  LEU A   1       3.152   6.208  18.779  0.00  0.00    +0.000 C 
ENDROOT
BRANCH   1   4
ATOM      2  C   UNK A   0       2.273   8.410  17.987  0.00  0.00    +0.000 C 
ATOM      3  O   UNK A   0       2.362   9.181  17.041  0.00  0.00    +0.000 OA
ATOM      4  N   LEU A   1       3.299   7.595  18.346  0.00  0.00    +0.000 N 
ATOM      5  H   LEU A   1       4.153   7.792  17.838  0.00  0.00    +0.000 HD
BRANCH   2   6
ATOM      6  O   UNK A   0       1.262   8.403  18.888  0.00  0.00    +0.000 OA
BRANCH   6   7
ATOM      7  C   UNK A   0       1.019   9.721  19.403  0.00  0.00    +0.000 C 
BRANCH   7  11
ATOM      8  C   UNK A   0      -3.014  10.852  18.111  0.00  0.00    +0.000 C 
ATOM      9  C   UNK A   0      -2.062  10.206  17.090  0.00  0.00    +0.000 C 
ATOM     10  C   UNK A   0      -0.882   9.503  17.754  0.00  0.00    +0.000 C 
ATOM     11  C   UNK A   0      -0.112  10.449  18.679  0.00  0.00    +0.000 C 
ATOM     12  C   UNK A   0      -1.064  11.068  19.717  0.00  0.00    +0.000 C 
ATOM     13  C   UNK A   0      -2.240  11.782  19.057  0.00  0.00    +0.000 C 
BRANCH   8  14
ATOM     14  C   UNK A   0      -4.150  11.633  17.423  0.00  0.00    +0.000 C 
BRANCH  14  16
ATOM     15  C   UNK A   0      -6.610  12.128  17.699  0.00  0.00    +0.000 C 
ATOM     16  C   UNK A   0      -5.260  12.053  18.390  0.00  0.00    +0.000 C 
ENDBRANCH  14  16
ENDBRANCH   8  14
ENDBRANCH   7  11
ENDBRANCH   6   7
ENDBRANCH   2   6
ENDBRANCH   1   4
BRANCH   1  17
ATOM     17  C   LEU A   1       4.576   5.607  18.729  0.00  0.00    +0.000 C 
ATOM     18  O   LEU A   1       5.191   5.289  19.746  0.00  0.00    +0.000 OA
ATOM     19  N   UNK A   2       5.136   5.525  17.474  0.00  0.00    +0.000 N 
ATOM     20  H   UNK A   2       4.543   5.752  16.684  0.00  0.00    +0.000 HD
BRANCH  19  21
ATOM     21  C   UNK A   2       6.484   5.010  17.241  0.00  0.00    +0.000 C 
BRANCH  21  22
ATOM     22  C   UNK A   2       7.500   6.112  17.488  0.00  0.00    +0.000 C 
ATOM     23  O   UNK A   2       7.484   7.209  16.918  0.00  0.00    +0.000 OA
ENDBRANCH  21  22
BRANCH  21  24
ATOM     24  C   UNK A   2       6.642   4.239  15.920  0.00  0.00    +0.000 C 
BRANCH  24  25
ATOM     25  C   UNK A   2       6.218   4.859  14.582  0.00  0.00    +0.000 C 
ATOM     26  C   UNK A   2       5.216   4.068  13.734  0.00  0.00    +0.000 C 
ATOM     27  C   UNK A   2       6.046   3.393  12.660  0.00  0.00    +0.000 C 
ATOM     28  N   UNK A   2       7.202   4.228  12.549  0.00  0.00    +0.000 N 
ATOM     29  C   UNK A   2       7.370   5.063  13.627  0.00  0.00    +0.000 C 
ATOM     30  O   UNK A   2       8.358   5.753  13.807  0.00  0.00    +0.000 OA
ATOM     31  H   UNK A   2       7.885   4.190  11.802  0.00  0.00    +0.000 HD
ENDBRANCH  24  25
ENDBRANCH  21  24
ENDBRANCH  19  21
ENDBRANCH   1  17
BRANCH   1  32
ATOM     32  CB  LEU A   1       2.216   5.506  17.774  0.00  0.00    +0.000 C 
BRANCH  32  33
ATOM     33  CG  LEU A   1       1.510   4.212  18.209  0.00  0.00    +0.000 C 
ATOM     34  CD1 LEU A   1       2.234   2.936  17.784  0.00  0.00    +0.000 C 
ATOM     35  CD2 LEU A   1       1.359   4.219  19.738  0.00  0.00    +0.000 C 
ENDBRANCH  32  33
ENDBRANCH   1  32
TORSDOF 13
ENDMDL
MODEL 6
REMARK VINA RESULT:      -7.1      2.494      9.408
REMARK  Name = 
REMARK  16 active torsions:
REMARK  status: ('A' for Active; 'I' for Inactive)
REMARK    1  A    between atoms: C_1  and  C_2
REMARK    2  A    between atoms: C_2  and  C_3
REMARK    3  A    between atoms: C_3  and  C_4
REMARK    4  A    between atoms: C_7  and  C_8
REMARK    5  A    between atoms: C_8  and  O_9
REMARK    6  A    between atoms: O_9  and  C_10
REMARK    7  A    between atoms: N_12  and  CA_13
REMARK    8  A    between atoms: CA_13  and  CB_14
REMARK    9  A    between atoms: CA_13  and  C_18
REMARK   10  A    between atoms: CB_14  and  CG_15
REMARK   11  A    between atoms: CG_15  and  CD1_16
REMARK   12  A    between atoms: CG_15  and  CD2_17
REMARK   13  A    between atoms: N_20  and  C_21
REMARK   14  A    between atoms: C_21  and  C_22
REMARK   15  A    between atoms: C_21  and  C_24
REMARK   16  A    between atoms: C_24  and  C_25
REMARK                            x       y       z     vdW  Elec       q    Type
REMARK                         _______ _______ _______ _____ _____    ______ ____
ROOT
ATOM      1  CA  LEU A   1       3.059   5.397  19.681  0.00  0.00    +0.000 C 
ENDROOT
BRANCH   1   4
ATOM      2  C   UNK A   0       2.301   7.682  19.008  0.00  0.00    +0.000 C 
ATOM      3  O   UNK A   0       1.820   8.278  18.053  0.00  0.00    +0.000 OA
ATOM      4  N   LEU A   1       3.097   6.594  18.845  0.00  0.00    +0.000 N 
ATOM      5  H   LEU A   1       3.341   6.426  17.876  0.00  0.00    +0.000 HD
BRANCH   2   6
ATOM      6  O   UNK A   0       2.270   8.119  20.289  0.00  0.00    +0.000 OA
BRANCH   6   7
ATOM      7  C   UNK A   0       0.926   8.148  20.795  0.00  0.00    +0.000 C 
BRANCH   7  11
ATOM      8  C   UNK A   0      -1.677  11.490  21.921  0.00  0.00    +0.000 C 
ATOM      9  C   UNK A   0      -0.900  11.568  20.596  0.00  0.00    +0.000 C 
ATOM     10  C   UNK A   0      -0.381  10.208  20.141  0.00  0.00    +0.000 C 
ATOM     11  C   UNK A   0       0.475   9.543  21.222  0.00  0.00    +0.000 C 
ATOM     12  C   UNK A   0      -0.317   9.439  22.537  0.00  0.00    +0.000 C 
ATOM     13  C   UNK A   0      -0.830  10.799  23.002  0.00  0.00    +0.000 C 
BRANCH   8  14
ATOM     14  C   UNK A   0      -2.117  12.882  22.413  0.00  0.00    +0.000 C 
BRANCH  14  16
ATOM     15  C   UNK A   0      -1.239  15.043  23.377  0.00  0.00    +0.000 C 
ATOM     16  C   UNK A   0      -1.108  13.530  23.363  0.00  0.00    +0.000 C 
ENDBRANCH  14  16
ENDBRANCH   8  14
ENDBRANCH   7  11
ENDBRANCH   6   7
ENDBRANCH   2   6
ENDBRANCH   1   4
BRANCH   1  17
ATOM     17  C   LEU A   1       4.422   4.700  19.468  0.00  0.00    +0.000 C 
ATOM     18  O   LEU A   1       4.598   3.508  19.719  0.00  0.00    +0.000 OA
ATOM     19  N   UNK A   2       5.445   5.523  19.050  0.00  0.00    +0.000 N 
ATOM     20  H   UNK A   2       5.205   6.478  18.809  0.00  0.00    +0.000 HD
BRANCH  19  21
ATOM     21  C   UNK A   2       6.806   5.042  18.825  0.00  0.00    +0.000 C 
BRANCH  21  22
ATOM     22  C   UNK A   2       7.801   6.052  19.371  0.00  0.00    +0.000 C 
ATOM     23  O   UNK A   2       8.199   7.040  18.743  0.00  0.00    +0.000 OA
ENDBRANCH  21  22
BRANCH  21  24
ATOM     24  C   UNK A   2       7.070   4.552  17.391  0.00  0.00    +0.000 C 
BRANCH  24  25
ATOM     25  C   UNK A   2       5.932   4.441  16.367  0.00  0.00    +0.000 C 
ATOM     26  C   UNK A   2       6.214   3.630  15.097  0.00  0.00    +0.000 C 
ATOM     27  C   UNK A   2       6.498   4.658  14.021  0.00  0.00    +0.000 C 
ATOM     28  N   UNK A   2       5.816   5.829  14.480  0.00  0.00    +0.000 N 
ATOM     29  C   UNK A   2       5.495   5.778  15.814  0.00  0.00    +0.000 C 
ATOM     30  O   UNK A   2       5.042   6.718  16.443  0.00  0.00    +0.000 OA
ATOM     31  H   UNK A   2       5.632   6.657  13.926  0.00  0.00    +0.000 HD
ENDBRANCH  24  25
ENDBRANCH  21  24
ENDBRANCH  19  21
ENDBRANCH   1  17
BRANCH   1  32
ATOM     32  CB  LEU A   1       1.898   4.517  19.175  0.00  0.00    +0.000 C 
BRANCH  32  33
ATOM     33  CG  LEU A   1       1.797   3.071  19.686  0.00  0.00    +0.000 C 
ATOM     34  CD1 LEU A   1       1.204   2.948  21.088  0.00  0.00    +0.000 C 
ATOM     35  CD2 LEU A   1       0.939   2.257  18.704  0.00  0.00    +0.000 C 
ENDBRANCH  32  33
ENDBRANCH   1  32
TORSDOF 13
ENDMDL
MODEL 7
REMARK VINA RESULT:      -7.0      2.444      9.398
REMARK  Name = 
REMARK  16 active torsions:
REMARK  status: ('A' for Active; 'I' for Inactive)
REMARK    1  A    between atoms: C_1  and  C_2
REMARK    2  A    between atoms: C_2  and  C_3
REMARK    3  A    between atoms: C_3  and  C_4
REMARK    4  A    between atoms: C_7  and  C_8
REMARK    5  A    between atoms: C_8  and  O_9
REMARK    6  A    between atoms: O_9  and  C_10
REMARK    7  A    between atoms: N_12  and  CA_13
REMARK    8  A    between atoms: CA_13  and  CB_14
REMARK    9  A    between atoms: CA_13  and  C_18
REMARK   10  A    between atoms: CB_14  and  CG_15
REMARK   11  A    between atoms: CG_15  and  CD1_16
REMARK   12  A    between atoms: CG_15  and  CD2_17
REMARK   13  A    between atoms: N_20  and  C_21
REMARK   14  A    between atoms: C_21  and  C_22
REMARK   15  A    between atoms: C_21  and  C_24
REMARK   16  A    between atoms: C_24  and  C_25
REMARK                            x       y       z     vdW  Elec       q    Type
REMARK                         _______ _______ _______ _____ _____    ______ ____
ROOT
ATOM      1  CA  LEU A   1       3.282   5.729  18.980  0.00  0.00    +0.000 C 
ENDROOT
BRANCH   1   4
ATOM      2  C   UNK A   0       2.779   7.913  17.873  0.00  0.00    +0.000 C 
ATOM      3  O   UNK A   0       2.889   8.475  16.792  0.00  0.00    +0.000 OA
ATOM      4  N   LEU A   1       3.652   6.952  18.273  0.00  0.00    +0.000 N 
ATOM      5  H   LEU A   1       4.446   6.859  17.651  0.00  0.00    +0.000 HD
BRANCH   2   6
ATOM      6  O   UNK A   0       1.930   8.290  18.860  0.00  0.00    +0.000 OA
BRANCH   6   7
ATOM      7  C   UNK A   0       1.017   9.299  18.399  0.00  0.00    +0.000 C 
BRANCH   7  11
ATOM      8  C   UNK A   0      -0.142  11.940  21.699  0.00  0.00    +0.000 C 
ATOM      9  C   UNK A   0       0.114  10.453  21.994  0.00  0.00    +0.000 C 
ATOM     10  C   UNK A   0       0.890   9.760  20.879  0.00  0.00    +0.000 C 
ATOM     11  C   UNK A   0       0.196   9.923  19.525  0.00  0.00    +0.000 C 
ATOM     12  C   UNK A   0      -0.030  11.414  19.221  0.00  0.00    +0.000 C 
ATOM     13  C   UNK A   0      -0.816  12.109  20.329  0.00  0.00    +0.000 C 
BRANCH   8  14
ATOM     14  C   UNK A   0      -1.003  12.603  22.791  0.00  0.00    +0.000 C 
BRANCH  14  16
ATOM     15  C   UNK A   0      -3.509  12.377  22.992  0.00  0.00    +0.000 C 
ATOM     16  C   UNK A   0      -2.165  11.722  23.256  0.00  0.00    +0.000 C 
ENDBRANCH  14  16
ENDBRANCH   8  14
ENDBRANCH   7  11
ENDBRANCH   6   7
ENDBRANCH   2   6
ENDBRANCH   1   4
BRANCH   1  17
ATOM     17  C   LEU A   1       4.532   4.820  18.912  0.00  0.00    +0.000 C 
ATOM     18  O   LEU A   1       4.610   3.763  19.538  0.00  0.00    +0.000 OA
ATOM     19  N   UNK A   2       5.579   5.314  18.166  0.00  0.00    +0.000 N 
ATOM     20  H   UNK A   2       5.413   6.161  17.636  0.00  0.00    +0.000 HD
BRANCH  19  21
ATOM     21  C   UNK A   2       6.847   4.603  18.015  0.00  0.00    +0.000 C 
BRANCH  21  22
ATOM     22  C   UNK A   2       7.820   5.065  19.087  0.00  0.00    +0.000 C 
ATOM     23  O   UNK A   2       7.502   5.763  20.056  0.00  0.00    +0.000 OA
ENDBRANCH  21  22
BRANCH  21  24
ATOM     24  C   UNK A   2       7.393   4.591  16.577  0.00  0.00    +0.000 C 
BRANCH  24  25
ATOM     25  C   UNK A   2       6.572   5.157  15.411  0.00  0.00    +0.000 C 
ATOM     26  C   UNK A   2       5.260   4.441  15.070  0.00  0.00    +0.000 C 
ATOM     27  C   UNK A   2       5.575   3.582  13.862  0.00  0.00    +0.000 C 
ATOM     28  N   UNK A   2       6.685   4.247  13.252  0.00  0.00    +0.000 N 
ATOM     29  C   UNK A   2       7.312   5.133  14.094  0.00  0.00    +0.000 C 
ATOM     30  O   UNK A   2       8.359   5.699  13.831  0.00  0.00    +0.000 OA
ATOM     31  H   UNK A   2       7.043   4.062  12.323  0.00  0.00    +0.000 HD
ENDBRANCH  24  25
ENDBRANCH  21  24
ENDBRANCH  19  21
ENDBRANCH   1  17
BRANCH   1  32
ATOM     32  CB  LEU A   1       2.095   5.099  18.224  0.00  0.00    +0.000 C 
BRANCH  32  33
ATOM     33  CG  LEU A   1       1.109   4.219  19.008  0.00  0.00    +0.000 C 
ATOM     34  CD1 LEU A   1       1.251   2.725  18.727  0.00  0.00    +0.000 C 
ATOM     35  CD2 LEU A   1       1.308   4.469  20.511  0.00  0.00    +0.000 C 
ENDBRANCH  32  33
ENDBRANCH   1  32
TORSDOF 13
ENDMDL
MODEL 8
REMARK VINA RESULT:      -6.9      1.309      1.827
REMARK  Name = 
REMARK  16 active torsions:
REMARK  status: ('A' for Active; 'I' for Inactive)
REMARK    1  A    between atoms: C_1  and  C_2
REMARK    2  A    between atoms: C_2  and  C_3
REMARK    3  A    between atoms: C_3  and  C_4
REMARK    4  A    between atoms: C_7  and  C_8
REMARK    5  A    between atoms: C_8  and  O_9
REMARK    6  A    between atoms: O_9  and  C_10
REMARK    7  A    between atoms: N_12  and  CA_13
REMARK    8  A    between atoms: CA_13  and  CB_14
REMARK    9  A    between atoms: CA_13  and  C_18
REMARK   10  A    between atoms: CB_14  and  CG_15
REMARK   11  A    between atoms: CG_15  and  CD1_16
REMARK   12  A    between atoms: CG_15  and  CD2_17
REMARK   13  A    between atoms: N_20  and  C_21
REMARK   14  A    between atoms: C_21  and  C_22
REMARK   15  A    between atoms: C_21  and  C_24
REMARK   16  A    between atoms: C_24  and  C_25
REMARK                            x       y       z     vdW  Elec       q    Type
REMARK                         _______ _______ _______ _____ _____    ______ ____
ROOT
ATOM      1  CA  LEU A   1       2.977   6.012  17.953  0.00  0.00    +0.000 C 
ENDROOT
BRANCH   1   4
ATOM      2  C   UNK A   0       5.198   5.318  18.865  0.00  0.00    +0.000 C 
ATOM      3  O   UNK A   0       5.707   4.452  19.564  0.00  0.00    +0.000 OA
ATOM      4  N   LEU A   1       3.909   5.711  19.036  0.00  0.00    +0.000 N 
ATOM      5  H   LEU A   1       3.483   5.310  19.863  0.00  0.00    +0.000 HD
BRANCH   2   6
ATOM      6  O   UNK A   0       5.874   6.108  17.996  0.00  0.00    +0.000 OA
BRANCH   6   7
ATOM      7  C   UNK A   0       6.826   5.347  17.238  0.00  0.00    +0.000 C 
BRANCH   7  11
ATOM      8  C   UNK A   0       6.404   3.750  13.178  0.00  0.00    +0.000 C 
ATOM      9  C   UNK A   0       7.381   4.914  13.420  0.00  0.00    +0.000 C 
ATOM     10  C   UNK A   0       7.731   5.087  14.894  0.00  0.00    +0.000 C 
ATOM     11  C   UNK A   0       6.476   5.256  15.753  0.00  0.00    +0.000 C 
ATOM     12  C   UNK A   0       5.517   4.074  15.531  0.00  0.00    +0.000 C 
ATOM     13  C   UNK A   0       5.155   3.903  14.059  0.00  0.00    +0.000 C 
BRANCH   8  14
ATOM     14  C   UNK A   0       5.991   3.645  11.697  0.00  0.00    +0.000 C 
BRANCH  14  16
ATOM     15  C   UNK A   0       3.619   3.487  10.848  0.00  0.00    +0.000 C 
ATOM     16  C   UNK A   0       4.780   2.735  11.476  0.00  0.00    +0.000 C 
ENDBRANCH  14  16
ENDBRANCH   8  14
ENDBRANCH   7  11
ENDBRANCH   6   7
ENDBRANCH   2   6
ENDBRANCH   1   4
BRANCH   1  17
ATOM     17  C   LEU A   1       2.585   7.496  18.147  0.00  0.00    +0.000 C 
ATOM     18  O   LEU A   1       2.947   8.379  17.370  0.00  0.00    +0.000 OA
ATOM     19  N   UNK A   2       1.868   7.770  19.291  0.00  0.00    +0.000 N 
ATOM     20  H   UNK A   2       1.560   6.981  19.847  0.00  0.00    +0.000 HD
BRANCH  19  21
ATOM     21  C   UNK A   2       1.439   9.119  19.650  0.00  0.00    +0.000 C 
BRANCH  21  22
ATOM     22  C   UNK A   2       0.960   9.135  21.092  0.00  0.00    +0.000 C 
ATOM     23  O   UNK A   2       1.516   8.524  22.013  0.00  0.00    +0.000 OA
ENDBRANCH  21  22
BRANCH  21  24
ATOM     24  C   UNK A   2       0.493   9.771  18.626  0.00  0.00    +0.000 C 
BRANCH  24  25
ATOM     25  C   UNK A   2       0.407  11.297  18.484  0.00  0.00    +0.000 C 
ATOM     26  C   UNK A   2       1.698  12.092  18.711  0.00  0.00    +0.000 C 
ATOM     27  C   UNK A   2       1.580  12.652  20.114  0.00  0.00    +0.000 C 
ATOM     28  N   UNK A   2       0.168  12.710  20.340  0.00  0.00    +0.000 N 
ATOM     29  C   UNK A   2      -0.550  11.935  19.463  0.00  0.00    +0.000 C 
ATOM     30  O   UNK A   2      -1.746  11.724  19.561  0.00  0.00    +0.000 OA
ATOM     31  H   UNK A   2      -0.286  13.204  21.098  0.00  0.00    +0.000 HD
ENDBRANCH  24  25
ENDBRANCH  21  24
ENDBRANCH  19  21
ENDBRANCH   1  17
BRANCH   1  32
ATOM     32  CB  LEU A   1       1.755   5.087  18.124  0.00  0.00    +0.000 C 
BRANCH  32  33
ATOM     33  CG  LEU A   1       1.860   3.905  19.100  0.00  0.00    +0.000 C 
ATOM     34  CD1 LEU A   1       0.930   4.011  20.307  0.00  0.00    +0.000 C 
ATOM     35  CD2 LEU A   1       1.552   2.605  18.340  0.00  0.00    +0.000 C 
ENDBRANCH  32  33
ENDBRANCH   1  32
TORSDOF 13
ENDMDL
MODEL 9
REMARK VINA RESULT:      -6.9      1.997      2.657
REMARK  Name = 
REMARK  16 active torsions:
REMARK  status: ('A' for Active; 'I' for Inactive)
REMARK    1  A    between atoms: C_1  and  C_2
REMARK    2  A    between atoms: C_2  and  C_3
REMARK    3  A    between atoms: C_3  and  C_4
REMARK    4  A    between atoms: C_7  and  C_8
REMARK    5  A    between atoms: C_8  and  O_9
REMARK    6  A    between atoms: O_9  and  C_10
REMARK    7  A    between atoms: N_12  and  CA_13
REMARK    8  A    between atoms: CA_13  and  CB_14
REMARK    9  A    between atoms: CA_13  and  C_18
REMARK   10  A    between atoms: CB_14  and  CG_15
REMARK   11  A    between atoms: CG_15  and  CD1_16
REMARK   12  A    between atoms: CG_15  and  CD2_17
REMARK   13  A    between atoms: N_20  and  C_21
REMARK   14  A    between atoms: C_21  and  C_22
REMARK   15  A    between atoms: C_21  and  C_24
REMARK   16  A    between atoms: C_24  and  C_25
REMARK                            x       y       z     vdW  Elec       q    Type
REMARK                         _______ _______ _______ _____ _____    ______ ____
ROOT
ATOM      1  CA  LEU A   1       3.352   4.601  19.442  0.00  0.00    +0.000 C 
ENDROOT
BRANCH   1   4
ATOM      2  C   UNK A   0       5.712   5.419  19.368  0.00  0.00    +0.000 C 
ATOM      3  O   UNK A   0       6.832   5.120  19.761  0.00  0.00    +0.000 OA
ATOM      4  N   LEU A   1       4.595   5.065  20.053  0.00  0.00    +0.000 N 
ATOM      5  H   LEU A   1       4.800   4.656  20.957  0.00  0.00    +0.000 HD
BRANCH   2   6
ATOM      6  O   UNK A   0       5.452   6.275  18.351  0.00  0.00    +0.000 OA
BRANCH   6   7
ATOM      7  C   UNK A   0       6.643   6.569  17.604  0.00  0.00    +0.000 C 
BRANCH   7  11
ATOM      8  C   UNK A   0       5.529   4.072  14.179  0.00  0.00    +0.000 C 
ATOM      9  C   UNK A   0       6.905   3.864  14.833  0.00  0.00    +0.000 C 
ATOM     10  C   UNK A   0       6.992   4.484  16.223  0.00  0.00    +0.000 C 
ATOM     11  C   UNK A   0       6.633   5.971  16.199  0.00  0.00    +0.000 C 
ATOM     12  C   UNK A   0       5.243   6.172  15.572  0.00  0.00    +0.000 C 
ATOM     13  C   UNK A   0       5.153   5.562  14.176  0.00  0.00    +0.000 C 
BRANCH   8  14
ATOM     14  C   UNK A   0       5.485   3.519  12.741  0.00  0.00    +0.000 C 
BRANCH  14  16
ATOM     15  C   UNK A   0       7.148   2.288  11.296  0.00  0.00    +0.000 C 
ATOM     16  C   UNK A   0       6.841   3.579  12.034  0.00  0.00    +0.000 C 
ENDBRANCH  14  16
ENDBRANCH   8  14
ENDBRANCH   7  11
ENDBRANCH   6   7
ENDBRANCH   2   6
ENDBRANCH   1   4
BRANCH   1  17
ATOM     17  C   LEU A   1       2.295   5.675  19.792  0.00  0.00    +0.000 C 
ATOM     18  O   LEU A   1       1.314   5.428  20.492  0.00  0.00    +0.000 OA
ATOM     19  N   UNK A   2       2.488   6.904  19.201  0.00  0.00    +0.000 N 
ATOM     20  H   UNK A   2       3.349   7.043  18.687  0.00  0.00    +0.000 HD
BRANCH  19  21
ATOM     21  C   UNK A   2       1.573   8.027  19.396  0.00  0.00    +0.000 C 
BRANCH  21  22
ATOM     22  C   UNK A   2       1.889   9.122  18.392  0.00  0.00    +0.000 C 
ATOM     23  O   UNK A   2       2.458   8.928  17.312  0.00  0.00    +0.000 OA
ENDBRANCH  21  22
BRANCH  21  24
ATOM     24  C   UNK A   2       1.439   8.481  20.860  0.00  0.00    +0.000 C 
BRANCH  24  25
ATOM     25  C   UNK A   2       0.088   8.933  21.431  0.00  0.00    +0.000 C 
ATOM     26  C   UNK A   2      -0.829   9.734  20.500  0.00  0.00    +0.000 C 
ATOM     27  C   UNK A   2      -0.660  11.180  20.920  0.00  0.00    +0.000 C 
ATOM     28  N   UNK A   2      -0.244  11.091  22.286  0.00  0.00    +0.000 N 
ATOM     29  C   UNK A   2       0.221   9.844  22.628  0.00  0.00    +0.000 C 
ATOM     30  O   UNK A   2       0.755   9.585  23.692  0.00  0.00    +0.000 OA
ATOM     31  H   UNK A   2      -0.216  11.861  22.944  0.00  0.00    +0.000 HD
ENDBRANCH  24  25
ENDBRANCH  21  24
ENDBRANCH  19  21
ENDBRANCH   1  17
BRANCH   1  32
ATOM     32  CB  LEU A   1       2.999   3.244  20.084  0.00  0.00    +0.000 C 
BRANCH  32  33
ATOM     33  CG  LEU A   1       2.381   2.151  19.197  0.00  0.00    +0.000 C 
ATOM     34  CD1 LEU A   1       1.069   2.561  18.531  0.00  0.00    +0.000 C 
ATOM     35  CD2 LEU A   1       3.396   1.759  18.112  0.00  0.00    +0.000 C 
ENDBRANCH  32  33
ENDBRANCH   1  32
TORSDOF 13
ENDMDL
