MODEL 1
REMARK VINA RESULT:      -8.2      0.000      0.000
REMARK  Name = 
REMARK  14 active torsions:
REMARK  status: ('A' for Active; 'I' for Inactive)
REMARK    1  A    between atoms: C_1  and  C_2
REMARK    2  A    between atoms: C_5  and  C_6
REMARK    3  A    between atoms: C_7  and  C_8
REMARK    4  A    between atoms: C_14  and  C_15
REMARK    5  A    between atoms: C_15  and  C_16
REMARK    6  A    between atoms: C_16  and  C_17
REMARK    7  A    between atoms: N_24  and  C_25
REMARK    8  A    between atoms: C_25  and  C_26
REMARK    9  A    between atoms: C_26  and  C_27
REMARK   10  A    between atoms: C_27  and  C_28
REMARK   11  A    between atoms: C_28  and  C_29
REMARK   12  A    between atoms: C_29  and  C_30
REMARK   13  A    between atoms: C_30  and  C_31
REMARK   14  A    between atoms: N_33  and  O_34
REMARK                            x       y       z     vdW  Elec       q    Type
REMARK                         _______ _______ _______ _____ _____    ______ ____
ROOT
ATOM      1  C   UNL     1       4.945   6.229  17.590  0.00  0.00    +0.000 A 
ATOM      2  C   UNL     1       4.616   7.368  16.852  0.00  0.00    +0.000 A 
ATOM      3  C   UNL     1       3.543   8.199  17.211  0.00  0.00    +0.000 A 
ATOM      4  C   UNL     1       2.766   7.843  18.321  0.00  0.00    +0.000 A 
ATOM      5  C   UNL     1       3.048   6.703  19.075  0.00  0.00    +0.000 A 
ATOM      6  C   UNL     1       4.156   5.913  18.702  0.00  0.00    +0.000 A 
ATOM      7  C   UNL     1       2.070   6.604  20.109  0.00  0.00    +0.000 A 
ATOM      8  C   UNL     1       1.219   7.674  19.943  0.00  0.00    +0.000 A 
ATOM      9  N   UNL     1       1.659   8.430  18.886  0.00  0.00    +0.000 N 
ENDROOT
BRANCH   1  16
ATOM     10  C   UNL     1       5.482   4.355  14.883  0.00  0.00    +0.000 C 
ATOM     11  C   UNL     1       6.325   4.576  16.082  0.00  0.00    +0.000 A 
ATOM     12  N   UNL     1       7.520   3.975  16.152  0.00  0.00    +0.000 NA
ATOM     13  O   UNL     1       8.087   4.394  17.332  0.00  0.00    +0.000 OA
ATOM     14  C   UNL     1       7.240   5.238  17.978  0.00  0.00    +0.000 A 
ATOM     15  C   UNL     1       7.748   5.751  19.271  0.00  0.00    +0.000 C 
ATOM     16  C   UNL     1       6.084   5.391  17.230  0.00  0.00    +0.000 A 
ENDBRANCH   1  16
BRANCH   7  17
ATOM     17  C   UNL     1       1.923   5.512  21.131  0.00  0.00    +0.000 C 
BRANCH  17  18
ATOM     18  C   UNL     1       1.325   4.202  20.622  0.00  0.00    +0.000 C 
BRANCH  18  19
ATOM     19  C   UNL     1       2.187   3.385  19.696  0.00  0.00    +0.000 A 
ATOM     20  C   UNL     1       3.330   2.730  20.174  0.00  0.00    +0.000 A 
ATOM     21  C   UNL     1       4.021   1.836  19.356  0.00  0.00    +0.000 A 
ATOM     22  C   UNL     1       3.550   1.564  18.076  0.00  0.00    +0.000 A 
ATOM     23  C   UNL     1       2.435   2.242  17.581  0.00  0.00    +0.000 A 
ATOM     24  C   UNL     1       1.789   3.189  18.368  0.00  0.00    +0.000 A 
ENDBRANCH  18  19
ENDBRANCH  17  18
ENDBRANCH   7  17
BRANCH   9  25
ATOM     25  C   UNL     1       1.000   9.641  18.425  0.00  0.00    +0.000 C 
BRANCH  25  26
ATOM     26  C   UNL     1      -0.191  10.052  19.282  0.00  0.00    +0.000 C 
BRANCH  26  27
ATOM     27  C   UNL     1      -1.234  10.898  18.548  0.00  0.00    +0.000 C 
BRANCH  27  28
ATOM     28  C   UNL     1      -1.926  10.092  17.441  0.00  0.00    +0.000 C 
BRANCH  28  29
ATOM     29  C   UNL     1      -2.503  10.933  16.290  0.00  0.00    +0.000 C 
BRANCH  29  30
ATOM     30  C   UNL     1      -3.983  10.679  16.029  0.00  0.00    +0.000 C 
BRANCH  30  31
ATOM     31  C   UNL     1      -4.795  11.281  17.149  0.00  0.00    +0.000 C 
ATOM     32  O   UNL     1      -5.202  10.652  18.120  0.00  0.00    +0.000 OA
ATOM     33  N   UNL     1      -5.110  12.602  16.940  0.00  0.00    +0.000 N 
ATOM     34  H   UNL     1      -4.452  13.168  16.415  0.00  0.00    +0.000 HD
BRANCH  33  35
ATOM     35  O   UNL     1      -5.751  13.246  18.030  0.00  0.00    +0.000 OA
ATOM     36  H   UNL     1      -6.145  12.488  18.517  0.00  0.00    +0.000 HD
ENDBRANCH  33  35
ENDBRANCH  30  31
ENDBRANCH  29  30
ENDBRANCH  28  29
ENDBRANCH  27  28
ENDBRANCH  26  27
ENDBRANCH  25  26
ENDBRANCH   9  25
TORSDOF 12
ENDMDL
MODEL 2
REMARK VINA RESULT:      -8.2      2.502      3.301
REMARK  Name = 
REMARK  14 active torsions:
REMARK  status: ('A' for Active; 'I' for Inactive)
REMARK    1  A    between atoms: C_1  and  C_2
REMARK    2  A    between atoms: C_5  and  C_6
REMARK    3  A    between atoms: C_7  and  C_8
REMARK    4  A    between atoms: C_14  and  C_15
REMARK    5  A    between atoms: C_15  and  C_16
REMARK    6  A    between atoms: C_16  and  C_17
REMARK    7  A    between atoms: N_24  and  C_25
REMARK    8  A    between atoms: C_25  and  C_26
REMARK    9  A    between atoms: C_26  and  C_27
REMARK   10  A    between atoms: C_27  and  C_28
REMARK   11  A    between atoms: C_28  and  C_29
REMARK   12  A    between atoms: C_29  and  C_30
REMARK   13  A    between atoms: C_30  and  C_31
REMARK   14  A    between atoms: N_33  and  O_34
REMARK                            x       y       z     vdW  Elec       q    Type
REMARK                         _______ _______ _______ _____ _____    ______ ____
ROOT
ATOM      1  C   UNL     1       4.737   6.149  17.770  0.00  0.00    +0.000 A 
ATOM      2  C   UNL     1       4.359   7.358  17.181  0.00  0.00    +0.000 A 
ATOM      3  C   UNL     1       3.310   8.135  17.696  0.00  0.00    +0.000 A 
ATOM      4  C   UNL     1       2.606   7.655  18.808  0.00  0.00    +0.000 A 
ATOM      5  C   UNL     1       2.939   6.443  19.415  0.00  0.00    +0.000 A 
ATOM      6  C   UNL     1       4.021   5.708  18.889  0.00  0.00    +0.000 A 
ATOM      7  C   UNL     1       2.028   6.224  20.492  0.00  0.00    +0.000 A 
ATOM      8  C   UNL     1       1.167   7.298  20.497  0.00  0.00    +0.000 A 
ATOM      9  N   UNL     1       1.536   8.167  19.502  0.00  0.00    +0.000 N 
ENDROOT
BRANCH   1  16
ATOM     10  C   UNL     1       7.747   5.542  19.073  0.00  0.00    +0.000 C 
ATOM     11  C   UNL     1       7.150   5.104  17.790  0.00  0.00    +0.000 A 
ATOM     12  N   UNL     1       7.867   4.315  16.978  0.00  0.00    +0.000 NA
ATOM     13  O   UNL     1       7.054   4.036  15.906  0.00  0.00    +0.000 OA
ATOM     14  C   UNL     1       5.853   4.654  16.061  0.00  0.00    +0.000 A 
ATOM     15  C   UNL     1       4.894   4.425  14.957  0.00  0.00    +0.000 C 
ATOM     16  C   UNL     1       5.853   5.364  17.250  0.00  0.00    +0.000 A 
ENDBRANCH   1  16
BRANCH   7  17
ATOM     17  C   UNL     1       1.950   5.027  21.397  0.00  0.00    +0.000 C 
BRANCH  17  18
ATOM     18  C   UNL     1       1.259   3.796  20.812  0.00  0.00    +0.000 C 
BRANCH  18  19
ATOM     19  C   UNL     1       2.044   3.004  19.799  0.00  0.00    +0.000 A 
ATOM     20  C   UNL     1       1.645   2.965  18.457  0.00  0.00    +0.000 A 
ATOM     21  C   UNL     1       2.469   2.381  17.496  0.00  0.00    +0.000 A 
ATOM     22  C   UNL     1       3.709   1.871  17.866  0.00  0.00    +0.000 A 
ATOM     23  C   UNL     1       4.095   1.873  19.207  0.00  0.00    +0.000 A 
ATOM     24  C   UNL     1       3.243   2.388  20.177  0.00  0.00    +0.000 A 
ENDBRANCH  18  19
ENDBRANCH  17  18
ENDBRANCH   7  17
BRANCH   9  25
ATOM     25  C   UNL     1       0.847   9.416  19.217  0.00  0.00    +0.000 C 
BRANCH  25  26
ATOM     26  C   UNL     1       0.857  10.398  20.382  0.00  0.00    +0.000 C 
BRANCH  26  27
ATOM     27  C   UNL     1      -0.500  10.578  21.066  0.00  0.00    +0.000 C 
BRANCH  27  28
ATOM     28  C   UNL     1      -0.477  11.756  22.049  0.00  0.00    +0.000 C 
BRANCH  28  29
ATOM     29  C   UNL     1      -1.652  11.797  23.040  0.00  0.00    +0.000 C 
BRANCH  29  30
ATOM     30  C   UNL     1      -2.761  12.761  22.636  0.00  0.00    +0.000 C 
BRANCH  30  31
ATOM     31  C   UNL     1      -4.032  12.385  23.357  0.00  0.00    +0.000 C 
ATOM     32  O   UNL     1      -4.068  11.851  24.460  0.00  0.00    +0.000 OA
ATOM     33  N   UNL     1      -5.164  12.624  22.616  0.00  0.00    +0.000 N 
ATOM     34  H   UNL     1      -5.148  13.403  21.964  0.00  0.00    +0.000 HD
BRANCH  33  35
ATOM     35  O   UNL     1      -6.388  12.417  23.305  0.00  0.00    +0.000 OA
ATOM     36  H   UNL     1      -6.429  13.203  23.894  0.00  0.00    +0.000 HD
ENDBRANCH  33  35
ENDBRANCH  30  31
ENDBRANCH  29  30
ENDBRANCH  28  29
ENDBRANCH  27  28
ENDBRANCH  26  27
ENDBRANCH  25  26
ENDBRANCH   9  25
TORSDOF 12
ENDMDL
MODEL 3
REMARK VINA RESULT:      -8.2      0.719      1.163
REMARK  Name = 
REMARK  14 active torsions:
REMARK  status: ('A' for Active; 'I' for Inactive)
REMARK    1  A    between atoms: C_1  and  C_2
REMARK    2  A    between atoms: C_5  and  C_6
REMARK    3  A    between atoms: C_7  and  C_8
REMARK    4  A    between atoms: C_14  and  C_15
REMARK    5  A    between atoms: C_15  and  C_16
REMARK    6  A    between atoms: C_16  and  C_17
REMARK    7  A    between atoms: N_24  and  C_25
REMARK    8  A    between atoms: C_25  and  C_26
REMARK    9  A    between atoms: C_26  and  C_27
REMARK   10  A    between atoms: C_27  and  C_28
REMARK   11  A    between atoms: C_28  and  C_29
REMARK   12  A    between atoms: C_29  and  C_30
REMARK   13  A    between atoms: C_30  and  C_31
REMARK   14  A    between atoms: N_33  and  O_34
REMARK                            x       y       z     vdW  Elec       q    Type
REMARK                         _______ _______ _______ _____ _____    ______ ____
ROOT
ATOM      1  C   UNL     1       4.954   6.159  17.731  0.00  0.00    +0.000 A 
ATOM      2  C   UNL     1       4.606   7.328  17.051  0.00  0.00    +0.000 A 
ATOM      3  C   UNL     1       3.529   8.129  17.460  0.00  0.00    +0.000 A 
ATOM      4  C   UNL     1       2.767   7.714  18.559  0.00  0.00    +0.000 A 
ATOM      5  C   UNL     1       3.068   6.543  19.255  0.00  0.00    +0.000 A 
ATOM      6  C   UNL     1       4.179   5.782  18.835  0.00  0.00    +0.000 A 
ATOM      7  C   UNL     1       2.101   6.385  20.293  0.00  0.00    +0.000 A 
ATOM      8  C   UNL     1       1.238   7.452  20.186  0.00  0.00    +0.000 A 
ATOM      9  N   UNL     1       1.660   8.261  19.162  0.00  0.00    +0.000 N 
ENDROOT
BRANCH   1  16
ATOM     10  C   UNL     1       5.431   4.322  14.988  0.00  0.00    +0.000 C 
ATOM     11  C   UNL     1       6.313   4.551  16.156  0.00  0.00    +0.000 A 
ATOM     12  N   UNL     1       7.524   3.977  16.175  0.00  0.00    +0.000 NA
ATOM     13  O   UNL     1       8.124   4.398  17.338  0.00  0.00    +0.000 OA
ATOM     14  C   UNL     1       7.283   5.217  18.023  0.00  0.00    +0.000 A 
ATOM     15  C   UNL     1       7.828   5.730  19.301  0.00  0.00    +0.000 C 
ATOM     16  C   UNL     1       6.097   5.350  17.321  0.00  0.00    +0.000 A 
ENDBRANCH   1  16
BRANCH   7  17
ATOM     17  C   UNL     1       1.975   5.244  21.264  0.00  0.00    +0.000 C 
BRANCH  17  18
ATOM     18  C   UNL     1       1.254   4.003  20.740  0.00  0.00    +0.000 C 
BRANCH  18  19
ATOM     19  C   UNL     1       1.984   3.189  19.704  0.00  0.00    +0.000 A 
ATOM     20  C   UNL     1       1.588   3.219  18.361  0.00  0.00    +0.000 A 
ATOM     21  C   UNL     1       2.371   2.608  17.383  0.00  0.00    +0.000 A 
ATOM     22  C   UNL     1       3.571   2.000  17.739  0.00  0.00    +0.000 A 
ATOM     23  C   UNL     1       3.952   1.933  19.080  0.00  0.00    +0.000 A 
ATOM     24  C   UNL     1       3.135   2.477  20.064  0.00  0.00    +0.000 A 
ENDBRANCH  18  19
ENDBRANCH  17  18
ENDBRANCH   7  17
BRANCH   9  25
ATOM     25  C   UNL     1       0.984   9.487  18.765  0.00  0.00    +0.000 C 
BRANCH  25  26
ATOM     26  C   UNL     1      -0.292   9.249  17.967  0.00  0.00    +0.000 C 
BRANCH  26  27
ATOM     27  C   UNL     1      -1.209  10.469  17.865  0.00  0.00    +0.000 C 
BRANCH  27  28
ATOM     28  C   UNL     1      -2.138  10.369  16.649  0.00  0.00    +0.000 C 
BRANCH  28  29
ATOM     29  C   UNL     1      -3.637  10.509  16.964  0.00  0.00    +0.000 C 
BRANCH  29  30
ATOM     30  C   UNL     1      -3.924  11.296  18.236  0.00  0.00    +0.000 C 
BRANCH  30  31
ATOM     31  C   UNL     1      -5.352  11.781  18.208  0.00  0.00    +0.000 C 
ATOM     32  O   UNL     1      -6.040  11.960  19.208  0.00  0.00    +0.000 OA
ATOM     33  N   UNL     1      -5.848  11.930  16.935  0.00  0.00    +0.000 N 
ATOM     34  H   UNL     1      -5.197  12.192  16.201  0.00  0.00    +0.000 HD
BRANCH  33  35
ATOM     35  O   UNL     1      -7.138  12.517  16.858  0.00  0.00    +0.000 OA
ATOM     36  H   UNL     1      -7.365  12.394  15.910  0.00  0.00    +0.000 HD
ENDBRANCH  33  35
ENDBRANCH  30  31
ENDBRANCH  29  30
ENDBRANCH  28  29
ENDBRANCH  27  28
ENDBRANCH  26  27
ENDBRANCH  25  26
ENDBRANCH   9  25
TORSDOF 12
ENDMDL
MODEL 4
REMARK VINA RESULT:      -8.1      1.322      1.968
REMARK  Name = 
REMARK  14 active torsions:
REMARK  status: ('A' for Active; 'I' for Inactive)
REMARK    1  A    between atoms: C_1  and  C_2
REMARK    2  A    between atoms: C_5  and  C_6
REMARK    3  A    between atoms: C_7  and  C_8
REMARK    4  A    between atoms: C_14  and  C_15
REMARK    5  A    between atoms: C_15  and  C_16
REMARK    6  A    between atoms: C_16  and  C_17
REMARK    7  A    between atoms: N_24  and  C_25
REMARK    8  A    between atoms: C_25  and  C_26
REMARK    9  A    between atoms: C_26  and  C_27
REMARK   10  A    between atoms: C_27  and  C_28
REMARK   11  A    between atoms: C_28  and  C_29
REMARK   12  A    between atoms: C_29  and  C_30
REMARK   13  A    between atoms: C_30  and  C_31
REMARK   14  A    between atoms: N_33  and  O_34
REMARK                            x       y       z     vdW  Elec       q    Type
REMARK                         _______ _______ _______ _____ _____    ______ ____
ROOT
ATOM      1  C   UNL     1       4.917   5.880  17.970  0.00  0.00    +0.000 A 
ATOM      2  C   UNL     1       4.449   7.085  17.442  0.00  0.00    +0.000 A 
ATOM      3  C   UNL     1       3.362   7.768  18.008  0.00  0.00    +0.000 A 
ATOM      4  C   UNL     1       2.713   7.196  19.110  0.00  0.00    +0.000 A 
ATOM      5  C   UNL     1       3.136   5.984  19.657  0.00  0.00    +0.000 A 
ATOM      6  C   UNL     1       4.254   5.345  19.082  0.00  0.00    +0.000 A 
ATOM      7  C   UNL     1       2.264   5.660  20.739  0.00  0.00    +0.000 A 
ATOM      8  C   UNL     1       1.334   6.673  20.806  0.00  0.00    +0.000 A 
ATOM      9  N   UNL     1       1.626   7.607  19.844  0.00  0.00    +0.000 N 
ENDROOT
BRANCH   1  16
ATOM     10  C   UNL     1       5.282   4.348  15.030  0.00  0.00    +0.000 C 
ATOM     11  C   UNL     1       6.240   4.525  16.147  0.00  0.00    +0.000 A 
ATOM     12  N   UNL     1       7.480   4.035  16.018  0.00  0.00    +0.000 NA
ATOM     13  O   UNL     1       8.146   4.384  17.169  0.00  0.00    +0.000 OA
ATOM     14  C   UNL     1       7.315   5.076  17.993  0.00  0.00    +0.000 A 
ATOM     15  C   UNL     1       7.929   5.501  19.272  0.00  0.00    +0.000 C 
ATOM     16  C   UNL     1       6.071   5.194  17.398  0.00  0.00    +0.000 A 
ENDBRANCH   1  16
BRANCH   7  17
ATOM     17  C   UNL     1       2.281   4.423  21.593  0.00  0.00    +0.000 C 
BRANCH  17  18
ATOM     18  C   UNL     1       1.572   3.203  21.008  0.00  0.00    +0.000 C 
BRANCH  18  19
ATOM     19  C   UNL     1       1.928   2.835  19.591  0.00  0.00    +0.000 A 
ATOM     20  C   UNL     1       1.309   3.476  18.509  0.00  0.00    +0.000 A 
ATOM     21  C   UNL     1       1.766   3.260  17.210  0.00  0.00    +0.000 A 
ATOM     22  C   UNL     1       2.866   2.437  16.991  0.00  0.00    +0.000 A 
ATOM     23  C   UNL     1       3.463   1.767  18.061  0.00  0.00    +0.000 A 
ATOM     24  C   UNL     1       2.961   1.922  19.348  0.00  0.00    +0.000 A 
ENDBRANCH  18  19
ENDBRANCH  17  18
ENDBRANCH   7  17
BRANCH   9  25
ATOM     25  C   UNL     1       0.851   8.818  19.626  0.00  0.00    +0.000 C 
BRANCH  25  26
ATOM     26  C   UNL     1       0.107   9.298  20.866  0.00  0.00    +0.000 C 
BRANCH  26  27
ATOM     27  C   UNL     1       0.462  10.719  21.304  0.00  0.00    +0.000 C 
BRANCH  27  28
ATOM     28  C   UNL     1      -0.611  11.724  20.862  0.00  0.00    +0.000 C 
BRANCH  28  29
ATOM     29  C   UNL     1      -0.947  11.696  19.361  0.00  0.00    +0.000 C 
BRANCH  29  30
ATOM     30  C   UNL     1      -2.385  12.090  19.048  0.00  0.00    +0.000 C 
BRANCH  30  31
ATOM     31  C   UNL     1      -2.840  11.363  17.807  0.00  0.00    +0.000 C 
ATOM     32  O   UNL     1      -3.552  10.365  17.814  0.00  0.00    +0.000 OA
ATOM     33  N   UNL     1      -2.308  11.882  16.651  0.00  0.00    +0.000 N 
ATOM     34  H   UNL     1      -2.110  12.877  16.626  0.00  0.00    +0.000 HD
BRANCH  33  35
ATOM     35  O   UNL     1      -2.817  11.320  15.451  0.00  0.00    +0.000 OA
ATOM     36  H   UNL     1      -2.929  12.113  14.882  0.00  0.00    +0.000 HD
ENDBRANCH  33  35
ENDBRANCH  30  31
ENDBRANCH  29  30
ENDBRANCH  28  29
ENDBRANCH  27  28
ENDBRANCH  26  27
ENDBRANCH  25  26
ENDBRANCH   9  25
TORSDOF 12
ENDMDL
MODEL 5
REMARK VINA RESULT:      -8.0      0.901      1.426
REMARK  Name = 
REMARK  14 active torsions:
REMARK  status: ('A' for Active; 'I' for Inactive)
REMARK    1  A    between atoms: C_1  and  C_2
REMARK    2  A    between atoms: C_5  and  C_6
REMARK    3  A    between atoms: C_7  and  C_8
REMARK    4  A    between atoms: C_14  and  C_15
REMARK    5  A    between atoms: C_15  and  C_16
REMARK    6  A    between atoms: C_16  and  C_17
REMARK    7  A    between atoms: N_24  and  C_25
REMARK    8  A    between atoms: C_25  and  C_26
REMARK    9  A    between atoms: C_26  and  C_27
REMARK   10  A    between atoms: C_27  and  C_28
REMARK   11  A    between atoms: C_28  and  C_29
REMARK   12  A    between atoms: C_29  and  C_30
REMARK   13  A    between atoms: C_30  and  C_31
REMARK   14  A    between atoms: N_33  and  O_34
REMARK                            x       y       z     vdW  Elec       q    Type
REMARK                         _______ _______ _______ _____ _____    ______ ____
ROOT
ATOM      1  C   UNL     1       4.712   6.008  17.743  0.00  0.00    +0.000 A 
ATOM      2  C   UNL     1       4.318   7.218  17.168  0.00  0.00    +0.000 A 
ATOM      3  C   UNL     1       3.268   7.982  17.700  0.00  0.00    +0.000 A 
ATOM      4  C   UNL     1       2.580   7.488  18.816  0.00  0.00    +0.000 A 
ATOM      5  C   UNL     1       2.929   6.275  19.410  0.00  0.00    +0.000 A 
ATOM      6  C   UNL     1       4.012   5.552  18.867  0.00  0.00    +0.000 A 
ATOM      7  C   UNL     1       2.033   6.040  20.495  0.00  0.00    +0.000 A 
ATOM      8  C   UNL     1       1.163   7.106  20.518  0.00  0.00    +0.000 A 
ATOM      9  N   UNL     1       1.514   7.986  19.526  0.00  0.00    +0.000 N 
ENDROOT
BRANCH   1  16
ATOM     10  C   UNL     1       4.886   4.046  15.051  0.00  0.00    +0.000 C 
ATOM     11  C   UNL     1       5.916   4.385  16.061  0.00  0.00    +0.000 A 
ATOM     12  N   UNL     1       7.148   3.875  15.925  0.00  0.00    +0.000 NA
ATOM     13  O   UNL     1       7.887   4.391  16.962  0.00  0.00    +0.000 OA
ATOM     14  C   UNL     1       7.110   5.204  17.726  0.00  0.00    +0.000 A 
ATOM     15  C   UNL     1       7.806   5.815  18.882  0.00  0.00    +0.000 C 
ATOM     16  C   UNL     1       5.828   5.236  17.205  0.00  0.00    +0.000 A 
ENDBRANCH   1  16
BRANCH   7  17
ATOM     17  C   UNL     1       1.974   4.835  21.392  0.00  0.00    +0.000 C 
BRANCH  17  18
ATOM     18  C   UNL     1       1.304   3.597  20.798  0.00  0.00    +0.000 C 
BRANCH  18  19
ATOM     19  C   UNL     1       2.108   2.817  19.791  0.00  0.00    +0.000 A 
ATOM     20  C   UNL     1       1.665   2.687  18.468  0.00  0.00    +0.000 A 
ATOM     21  C   UNL     1       2.494   2.119  17.502  0.00  0.00    +0.000 A 
ATOM     22  C   UNL     1       3.781   1.716  17.845  0.00  0.00    +0.000 A 
ATOM     23  C   UNL     1       4.214   1.809  19.169  0.00  0.00    +0.000 A 
ATOM     24  C   UNL     1       3.361   2.306  20.148  0.00  0.00    +0.000 A 
ENDBRANCH  18  19
ENDBRANCH  17  18
ENDBRANCH   7  17
BRANCH   9  25
ATOM     25  C   UNL     1       0.811   9.231  19.258  0.00  0.00    +0.000 C 
BRANCH  25  26
ATOM     26  C   UNL     1       0.161   9.843  20.494  0.00  0.00    +0.000 C 
BRANCH  26  27
ATOM     27  C   UNL     1      -0.849  10.951  20.191  0.00  0.00    +0.000 C 
BRANCH  27  28
ATOM     28  C   UNL     1      -0.340  11.881  19.082  0.00  0.00    +0.000 C 
BRANCH  28  29
ATOM     29  C   UNL     1      -1.432  12.462  18.169  0.00  0.00    +0.000 C 
BRANCH  29  30
ATOM     30  C   UNL     1      -1.831  11.537  17.026  0.00  0.00    +0.000 C 
BRANCH  30  31
ATOM     31  C   UNL     1      -3.227  11.021  17.269  0.00  0.00    +0.000 C 
ATOM     32  O   UNL     1      -3.484   9.982  17.869  0.00  0.00    +0.000 OA
ATOM     33  N   UNL     1      -4.199  11.791  16.678  0.00  0.00    +0.000 N 
ATOM     34  H   UNL     1      -4.023  12.787  16.585  0.00  0.00    +0.000 HD
BRANCH  33  35
ATOM     35  O   UNL     1      -5.533  11.424  16.997  0.00  0.00    +0.000 OA
ATOM     36  H   UNL     1      -5.618  10.550  16.555  0.00  0.00    +0.000 HD
ENDBRANCH  33  35
ENDBRANCH  30  31
ENDBRANCH  29  30
ENDBRANCH  28  29
ENDBRANCH  27  28
ENDBRANCH  26  27
ENDBRANCH  25  26
ENDBRANCH   9  25
TORSDOF 12
ENDMDL
MODEL 6
REMARK VINA RESULT:      -8.0      1.302      2.082
REMARK  Name = 
REMARK  14 active torsions:
REMARK  status: ('A' for Active; 'I' for Inactive)
REMARK    1  A    between atoms: C_1  and  C_2
REMARK    2  A    between atoms: C_5  and  C_6
REMARK    3  A    between atoms: C_7  and  C_8
REMARK    4  A    between atoms: C_14  and  C_15
REMARK    5  A    between atoms: C_15  and  C_16
REMARK    6  A    between atoms: C_16  and  C_17
REMARK    7  A    between atoms: N_24  and  C_25
REMARK    8  A    between atoms: C_25  and  C_26
REMARK    9  A    between atoms: C_26  and  C_27
REMARK   10  A    between atoms: C_27  and  C_28
REMARK   11  A    between atoms: C_28  and  C_29
REMARK   12  A    between atoms: C_29  and  C_30
REMARK   13  A    between atoms: C_30  and  C_31
REMARK   14  A    between atoms: N_33  and  O_34
REMARK                            x       y       z     vdW  Elec       q    Type
REMARK                         _______ _______ _______ _____ _____    ______ ____
ROOT
ATOM      1  C   UNL     1       4.859   6.184  17.663  0.00  0.00    +0.000 A 
ATOM      2  C   UNL     1       4.470   7.342  16.987  0.00  0.00    +0.000 A 
ATOM      3  C   UNL     1       3.389   8.124  17.422  0.00  0.00    +0.000 A 
ATOM      4  C   UNL     1       2.665   7.700  18.544  0.00  0.00    +0.000 A 
ATOM      5  C   UNL     1       3.009   6.538  19.237  0.00  0.00    +0.000 A 
ATOM      6  C   UNL     1       4.122   5.798  18.790  0.00  0.00    +0.000 A 
ATOM      7  C   UNL     1       2.074   6.367  20.302  0.00  0.00    +0.000 A 
ATOM      8  C   UNL     1       1.188   7.417  20.214  0.00  0.00    +0.000 A 
ATOM      9  N   UNL     1       1.565   8.229  19.175  0.00  0.00    +0.000 N 
ENDROOT
BRANCH   1  16
ATOM     10  C   UNL     1       5.355   4.467  14.847  0.00  0.00    +0.000 C 
ATOM     11  C   UNL     1       6.231   4.647  16.029  0.00  0.00    +0.000 A 
ATOM     12  N   UNL     1       7.442   4.075  16.030  0.00  0.00    +0.000 NA
ATOM     13  O   UNL     1       8.035   4.447  17.213  0.00  0.00    +0.000 OA
ATOM     14  C   UNL     1       7.189   5.234  17.928  0.00  0.00    +0.000 A 
ATOM     15  C   UNL     1       7.725   5.693  19.230  0.00  0.00    +0.000 C 
ATOM     16  C   UNL     1       6.006   5.395  17.225  0.00  0.00    +0.000 A 
ENDBRANCH   1  16
BRANCH   7  17
ATOM     17  C   UNL     1       1.997   5.229  21.281  0.00  0.00    +0.000 C 
BRANCH  17  18
ATOM     18  C   UNL     1       1.275   3.976  20.788  0.00  0.00    +0.000 C 
BRANCH  18  19
ATOM     19  C   UNL     1       2.019   3.118  19.798  0.00  0.00    +0.000 A 
ATOM     20  C   UNL     1       1.594   3.031  18.466  0.00  0.00    +0.000 A 
ATOM     21  C   UNL     1       2.383   2.382  17.517  0.00  0.00    +0.000 A 
ATOM     22  C   UNL     1       3.616   1.854  17.888  0.00  0.00    +0.000 A 
ATOM     23  C   UNL     1       4.028   1.905  19.221  0.00  0.00    +0.000 A 
ATOM     24  C   UNL     1       3.208   2.486  20.182  0.00  0.00    +0.000 A 
ENDBRANCH  18  19
ENDBRANCH  17  18
ENDBRANCH   7  17
BRANCH   9  25
ATOM     25  C   UNL     1       0.855   9.439  18.791  0.00  0.00    +0.000 C 
BRANCH  25  26
ATOM     26  C   UNL     1       1.769  10.549  18.287  0.00  0.00    +0.000 C 
BRANCH  26  27
ATOM     27  C   UNL     1       1.829  11.777  19.197  0.00  0.00    +0.000 C 
BRANCH  27  28
ATOM     28  C   UNL     1       0.856  11.646  20.376  0.00  0.00    +0.000 C 
BRANCH  28  29
ATOM     29  C   UNL     1      -0.333  12.621  20.347  0.00  0.00    +0.000 C 
BRANCH  29  30
ATOM     30  C   UNL     1      -1.678  11.940  20.123  0.00  0.00    +0.000 C 
BRANCH  30  31
ATOM     31  C   UNL     1      -2.084  12.106  18.680  0.00  0.00    +0.000 C 
ATOM     32  O   UNL     1      -1.313  12.412  17.777  0.00  0.00    +0.000 OA
ATOM     33  N   UNL     1      -3.435  11.959  18.478  0.00  0.00    +0.000 N 
ATOM     34  H   UNL     1      -3.939  11.324  19.089  0.00  0.00    +0.000 HD
BRANCH  33  35
ATOM     35  O   UNL     1      -3.844  11.968  17.118  0.00  0.00    +0.000 OA
ATOM     36  H   UNL     1      -2.985  11.923  16.644  0.00  0.00    +0.000 HD
ENDBRANCH  33  35
ENDBRANCH  30  31
ENDBRANCH  29  30
ENDBRANCH  28  29
ENDBRANCH  27  28
ENDBRANCH  26  27
ENDBRANCH  25  26
ENDBRANCH   9  25
TORSDOF 12
ENDMDL
MODEL 7
REMARK VINA RESULT:      -7.9      1.386      1.615
REMARK  Name = 
REMARK  14 active torsions:
REMARK  status: ('A' for Active; 'I' for Inactive)
REMARK    1  A    between atoms: C_1  and  C_2
REMARK    2  A    between atoms: C_5  and  C_6
REMARK    3  A    between atoms: C_7  and  C_8
REMARK    4  A    between atoms: C_14  and  C_15
REMARK    5  A    between atoms: C_15  and  C_16
REMARK    6  A    between atoms: C_16  and  C_17
REMARK    7  A    between atoms: N_24  and  C_25
REMARK    8  A    between atoms: C_25  and  C_26
REMARK    9  A    between atoms: C_26  and  C_27
REMARK   10  A    between atoms: C_27  and  C_28
REMARK   11  A    between atoms: C_28  and  C_29
REMARK   12  A    between atoms: C_29  and  C_30
REMARK   13  A    between atoms: C_30  and  C_31
REMARK   14  A    between atoms: N_33  and  O_34
REMARK                            x       y       z     vdW  Elec       q    Type
REMARK                         _______ _______ _______ _____ _____    ______ ____
ROOT
ATOM      1  C   UNL     1       4.738   6.219  17.673  0.00  0.00    +0.000 A 
ATOM      2  C   UNL     1       4.379   7.435  17.089  0.00  0.00    +0.000 A 
ATOM      3  C   UNL     1       3.351   8.233  17.613  0.00  0.00    +0.000 A 
ATOM      4  C   UNL     1       2.647   7.766  18.731  0.00  0.00    +0.000 A 
ATOM      5  C   UNL     1       2.961   6.548  19.334  0.00  0.00    +0.000 A 
ATOM      6  C   UNL     1       4.023   5.791  18.799  0.00  0.00    +0.000 A 
ATOM      7  C   UNL     1       2.056   6.346  20.420  0.00  0.00    +0.000 A 
ATOM      8  C   UNL     1       1.216   7.437  20.433  0.00  0.00    +0.000 A 
ATOM      9  N   UNL     1       1.594   8.299  19.435  0.00  0.00    +0.000 N 
ENDROOT
BRANCH   1  16
ATOM     10  C   UNL     1       4.932   4.403  14.881  0.00  0.00    +0.000 C 
ATOM     11  C   UNL     1       5.928   4.622  15.956  0.00  0.00    +0.000 A 
ATOM     12  N   UNL     1       7.133   4.047  15.848  0.00  0.00    +0.000 NA
ATOM     13  O   UNL     1       7.849   4.458  16.947  0.00  0.00    +0.000 OA
ATOM     14  C   UNL     1       7.084   5.273  17.721  0.00  0.00    +0.000 A 
ATOM     15  C   UNL     1       7.756   5.775  18.941  0.00  0.00    +0.000 C 
ATOM     16  C   UNL     1       5.833   5.412  17.143  0.00  0.00    +0.000 A 
ENDBRANCH   1  16
BRANCH   7  17
ATOM     17  C   UNL     1       1.961   5.150  21.325  0.00  0.00    +0.000 C 
BRANCH  17  18
ATOM     18  C   UNL     1       1.366   3.890  20.700  0.00  0.00    +0.000 C 
BRANCH  18  19
ATOM     19  C   UNL     1       2.215   3.182  19.677  0.00  0.00    +0.000 A 
ATOM     20  C   UNL     1       3.377   2.499  20.060  0.00  0.00    +0.000 A 
ATOM     21  C   UNL     1       4.058   1.702  19.141  0.00  0.00    +0.000 A 
ATOM     22  C   UNL     1       3.559   1.552  17.851  0.00  0.00    +0.000 A 
ATOM     23  C   UNL     1       2.423   2.259  17.453  0.00  0.00    +0.000 A 
ATOM     24  C   UNL     1       1.786   3.113  18.346  0.00  0.00    +0.000 A 
ENDBRANCH  18  19
ENDBRANCH  17  18
ENDBRANCH   7  17
BRANCH   9  25
ATOM     25  C   UNL     1       0.927   9.562  19.157  0.00  0.00    +0.000 C 
BRANCH  25  26
ATOM     26  C   UNL     1      -0.057   9.984  20.242  0.00  0.00    +0.000 C 
BRANCH  26  27
ATOM     27  C   UNL     1      -0.308  11.491  20.313  0.00  0.00    +0.000 C 
BRANCH  27  28
ATOM     28  C   UNL     1      -1.119  11.979  19.105  0.00  0.00    +0.000 C 
BRANCH  28  29
ATOM     29  C   UNL     1      -2.451  11.244  18.878  0.00  0.00    +0.000 C 
BRANCH  29  30
ATOM     30  C   UNL     1      -3.137  11.612  17.568  0.00  0.00    +0.000 C 
BRANCH  30  31
ATOM     31  C   UNL     1      -2.657  10.684  16.479  0.00  0.00    +0.000 C 
ATOM     32  O   UNL     1      -1.918   9.724  16.667  0.00  0.00    +0.000 OA
ATOM     33  N   UNL     1      -3.065  11.067  15.224  0.00  0.00    +0.000 N 
ATOM     34  H   UNL     1      -3.956  11.547  15.142  0.00  0.00    +0.000 HD
BRANCH  33  35
ATOM     35  O   UNL     1      -2.756  10.149  14.186  0.00  0.00    +0.000 OA
ATOM     36  H   UNL     1      -1.854   9.851  14.435  0.00  0.00    +0.000 HD
ENDBRANCH  33  35
ENDBRANCH  30  31
ENDBRANCH  29  30
ENDBRANCH  28  29
ENDBRANCH  27  28
ENDBRANCH  26  27
ENDBRANCH  25  26
ENDBRANCH   9  25
TORSDOF 12
ENDMDL
MODEL 8
REMARK VINA RESULT:      -7.9      2.429      8.726
REMARK  Name = 
REMARK  14 active torsions:
REMARK  status: ('A' for Active; 'I' for Inactive)
REMARK    1  A    between atoms: C_1  and  C_2
REMARK    2  A    between atoms: C_5  and  C_6
REMARK    3  A    between atoms: C_7  and  C_8
REMARK    4  A    between atoms: C_14  and  C_15
REMARK    5  A    between atoms: C_15  and  C_16
REMARK    6  A    between atoms: C_16  and  C_17
REMARK    7  A    between atoms: N_24  and  C_25
REMARK    8  A    between atoms: C_25  and  C_26
REMARK    9  A    between atoms: C_26  and  C_27
REMARK   10  A    between atoms: C_27  and  C_28
REMARK   11  A    between atoms: C_28  and  C_29
REMARK   12  A    between atoms: C_29  and  C_30
REMARK   13  A    between atoms: C_30  and  C_31
REMARK   14  A    between atoms: N_33  and  O_34
REMARK                            x       y       z     vdW  Elec       q    Type
REMARK                         _______ _______ _______ _____ _____    ______ ____
ROOT
ATOM      1  C   UNL     1       1.021   9.473  18.807  0.00  0.00    +0.000 A 
ATOM      2  C   UNL     1       1.941   9.702  17.780  0.00  0.00    +0.000 A 
ATOM      3  C   UNL     1       2.943   8.772  17.465  0.00  0.00    +0.000 A 
ATOM      4  C   UNL     1       3.037   7.604  18.233  0.00  0.00    +0.000 A 
ATOM      5  C   UNL     1       2.151   7.345  19.279  0.00  0.00    +0.000 A 
ATOM      6  C   UNL     1       1.136   8.288  19.543  0.00  0.00    +0.000 A 
ATOM      7  C   UNL     1       2.522   6.103  19.876  0.00  0.00    +0.000 A 
ATOM      8  C   UNL     1       3.626   5.655  19.186  0.00  0.00    +0.000 A 
ATOM      9  N   UNL     1       3.912   6.546  18.182  0.00  0.00    +0.000 N 
ENDROOT
BRANCH   1  16
ATOM     10  C   UNL     1       0.833  11.833  21.156  0.00  0.00    +0.000 C 
ATOM     11  C   UNL     1      -0.141  11.438  20.112  0.00  0.00    +0.000 A 
ATOM     12  N   UNL     1      -1.299  12.105  20.021  0.00  0.00    +0.000 NA
ATOM     13  O   UNL     1      -1.968  11.559  18.952  0.00  0.00    +0.000 OA
ATOM     14  C   UNL     1      -1.225  10.564  18.400  0.00  0.00    +0.000 A 
ATOM     15  C   UNL     1      -1.853   9.898  17.236  0.00  0.00    +0.000 C 
ATOM     16  C   UNL     1      -0.040  10.429  19.105  0.00  0.00    +0.000 A 
ENDBRANCH   1  16
BRANCH   7  17
ATOM     17  C   UNL     1       1.904   5.440  21.075  0.00  0.00    +0.000 C 
BRANCH  17  18
ATOM     18  C   UNL     1       1.223   4.098  20.814  0.00  0.00    +0.000 C 
BRANCH  18  19
ATOM     19  C   UNL     1       1.955   3.138  19.912  0.00  0.00    +0.000 A 
ATOM     20  C   UNL     1       1.507   2.901  18.606  0.00  0.00    +0.000 A 
ATOM     21  C   UNL     1       2.284   2.153  17.721  0.00  0.00    +0.000 A 
ATOM     22  C   UNL     1       3.527   1.676  18.126  0.00  0.00    +0.000 A 
ATOM     23  C   UNL     1       3.961   1.878  19.437  0.00  0.00    +0.000 A 
ATOM     24  C   UNL     1       3.155   2.558  20.342  0.00  0.00    +0.000 A 
ENDBRANCH  18  19
ENDBRANCH  17  18
ENDBRANCH   7  17
BRANCH   9  25
ATOM     25  C   UNL     1       5.017   6.390  17.250  0.00  0.00    +0.000 C 
BRANCH  25  26
ATOM     26  C   UNL     1       5.938   5.222  17.584  0.00  0.00    +0.000 C 
BRANCH  26  27
ATOM     27  C   UNL     1       6.184   4.260  16.420  0.00  0.00    +0.000 C 
BRANCH  27  28
ATOM     28  C   UNL     1       5.634   4.825  15.104  0.00  0.00    +0.000 C 
BRANCH  28  29
ATOM     29  C   UNL     1       6.418   4.420  13.845  0.00  0.00    +0.000 C 
BRANCH  29  30
ATOM     30  C   UNL     1       5.550   3.808  12.753  0.00  0.00    +0.000 C 
BRANCH  30  31
ATOM     31  C   UNL     1       6.375   2.832  11.952  0.00  0.00    +0.000 C 
ATOM     32  O   UNL     1       7.480   3.084  11.484  0.00  0.00    +0.000 OA
ATOM     33  N   UNL     1       5.730   1.640  11.721  0.00  0.00    +0.000 N 
ATOM     34  H   UNL     1       5.076   1.312  12.425  0.00  0.00    +0.000 HD
BRANCH  33  35
ATOM     35  O   UNL     1       6.520   0.642  11.093  0.00  0.00    +0.000 OA
ATOM     36  H   UNL     1       6.927   0.185  11.863  0.00  0.00    +0.000 HD
ENDBRANCH  33  35
ENDBRANCH  30  31
ENDBRANCH  29  30
ENDBRANCH  28  29
ENDBRANCH  27  28
ENDBRANCH  26  27
ENDBRANCH  25  26
ENDBRANCH   9  25
TORSDOF 12
ENDMDL
MODEL 9
REMARK VINA RESULT:      -7.8      1.333      1.754
REMARK  Name = 
REMARK  14 active torsions:
REMARK  status: ('A' for Active; 'I' for Inactive)
REMARK    1  A    between atoms: C_1  and  C_2
REMARK    2  A    between atoms: C_5  and  C_6
REMARK    3  A    between atoms: C_7  and  C_8
REMARK    4  A    between atoms: C_14  and  C_15
REMARK    5  A    between atoms: C_15  and  C_16
REMARK    6  A    between atoms: C_16  and  C_17
REMARK    7  A    between atoms: N_24  and  C_25
REMARK    8  A    between atoms: C_25  and  C_26
REMARK    9  A    between atoms: C_26  and  C_27
REMARK   10  A    between atoms: C_27  and  C_28
REMARK   11  A    between atoms: C_28  and  C_29
REMARK   12  A    between atoms: C_29  and  C_30
REMARK   13  A    between atoms: C_30  and  C_31
REMARK   14  A    between atoms: N_33  and  O_34
REMARK                            x       y       z     vdW  Elec       q    Type
REMARK                         _______ _______ _______ _____ _____    ______ ____
ROOT
ATOM      1  C   UNL     1       4.909   6.279  17.552  0.00  0.00    +0.000 A 
ATOM      2  C   UNL     1       4.628   7.486  16.909  0.00  0.00    +0.000 A 
ATOM      3  C   UNL     1       3.595   8.332  17.343  0.00  0.00    +0.000 A 
ATOM      4  C   UNL     1       2.809   7.925  18.428  0.00  0.00    +0.000 A 
ATOM      5  C   UNL     1       3.045   6.717  19.087  0.00  0.00    +0.000 A 
ATOM      6  C   UNL     1       4.113   5.911  18.643  0.00  0.00    +0.000 A 
ATOM      7  C   UNL     1       2.068   6.580  20.119  0.00  0.00    +0.000 A 
ATOM      8  C   UNL     1       1.266   7.695  20.047  0.00  0.00    +0.000 A 
ATOM      9  N   UNL     1       1.733   8.513  19.048  0.00  0.00    +0.000 N 
ENDROOT
BRANCH   1  16
ATOM     10  C   UNL     1       5.277   4.482  14.766  0.00  0.00    +0.000 C 
ATOM     11  C   UNL     1       6.176   4.639  15.933  0.00  0.00    +0.000 A 
ATOM     12  N   UNL     1       7.355   4.004  15.931  0.00  0.00    +0.000 NA
ATOM     13  O   UNL     1       7.983   4.367  17.099  0.00  0.00    +0.000 OA
ATOM     14  C   UNL     1       7.189   5.213  17.808  0.00  0.00    +0.000 A 
ATOM     15  C   UNL     1       7.766   5.668  19.093  0.00  0.00    +0.000 C 
ATOM     16  C   UNL     1       6.008   5.422  17.116  0.00  0.00    +0.000 A 
ENDBRANCH   1  16
BRANCH   7  17
ATOM     17  C   UNL     1       1.879   5.418  21.053  0.00  0.00    +0.000 C 
BRANCH  17  18
ATOM     18  C   UNL     1       1.134   4.215  20.475  0.00  0.00    +0.000 C 
BRANCH  18  19
ATOM     19  C   UNL     1       1.932   3.293  19.591  0.00  0.00    +0.000 A 
ATOM     20  C   UNL     1       1.646   3.187  18.224  0.00  0.00    +0.000 A 
ATOM     21  C   UNL     1       2.496   2.471  17.382  0.00  0.00    +0.000 A 
ATOM     22  C   UNL     1       3.654   1.894  17.895  0.00  0.00    +0.000 A 
ATOM     23  C   UNL     1       3.924   1.965  19.262  0.00  0.00    +0.000 A 
ATOM     24  C   UNL     1       3.039   2.614  20.115  0.00  0.00    +0.000 A 
ENDBRANCH  18  19
ENDBRANCH  17  18
ENDBRANCH   7  17
BRANCH   9  25
ATOM     25  C   UNL     1       1.126   9.785  18.690  0.00  0.00    +0.000 C 
BRANCH  25  26
ATOM     26  C   UNL     1      -0.397   9.746  18.654  0.00  0.00    +0.000 C 
BRANCH  26  27
ATOM     27  C   UNL     1      -1.074  10.934  19.340  0.00  0.00    +0.000 C 
BRANCH  27  28
ATOM     28  C   UNL     1      -2.415  11.272  18.676  0.00  0.00    +0.000 C 
BRANCH  28  29
ATOM     29  C   UNL     1      -3.150  10.074  18.052  0.00  0.00    +0.000 C 
BRANCH  29  30
ATOM     30  C   UNL     1      -4.277  10.471  17.107  0.00  0.00    +0.000 C 
BRANCH  30  31
ATOM     31  C   UNL     1      -3.702  10.754  15.741  0.00  0.00    +0.000 C 
ATOM     32  O   UNL     1      -3.761  11.843  15.180  0.00  0.00    +0.000 OA
ATOM     33  N   UNL     1      -3.168   9.641  15.138  0.00  0.00    +0.000 N 
ATOM     34  H   UNL     1      -2.760   8.929  15.735  0.00  0.00    +0.000 HD
BRANCH  33  35
ATOM     35  O   UNL     1      -2.491   9.888  13.914  0.00  0.00    +0.000 OA
ATOM     36  H   UNL     1      -2.709  10.830  13.743  0.00  0.00    +0.000 HD
ENDBRANCH  33  35
ENDBRANCH  30  31
ENDBRANCH  29  30
ENDBRANCH  28  29
ENDBRANCH  27  28
ENDBRANCH  26  27
ENDBRANCH  25  26
ENDBRANCH   9  25
TORSDOF 12
ENDMDL
