MODEL 1
REMARK VINA RESULT:      -7.8      0.000      0.000
REMARK  Name = 
REMARK  16 active torsions:
REMARK  status: ('A' for Active; 'I' for Inactive)
REMARK    1  A    between atoms: C_1  and  C_2
REMARK    2  A    between atoms: C_2  and  C_3
REMARK    3  A    between atoms: C_3  and  C_4
REMARK    4  A    between atoms: C_4  and  C_5
REMARK    5  A    between atoms: C_5  and  C_6
REMARK    6  A    between atoms: C_6  and  C_7
REMARK    7  A    between atoms: C_7  and  C_8
REMARK    8  A    between atoms: C_8  and  N_9
REMARK    9  A    between atoms: C_12  and  C_13
REMARK   10  A    between atoms: C_13  and  C_14
REMARK   11  A    between atoms: N_16  and  C_17
REMARK   12  A    between atoms: C_17  and  C_18
REMARK   13  A    between atoms: C_25  and  C_26
REMARK   14  A    between atoms: C_26  and  O_28
REMARK   15  A    between atoms: O_28  and  C_29
REMARK   16  A    between atoms: C_29  and  C_30
REMARK                            x       y       z     vdW  Elec       q    Type
REMARK                         _______ _______ _______ _____ _____    ______ ____
ROOT
ATOM      1  N   UNL     1       4.569   5.349  18.190  0.00  0.00    +0.000 N 
ATOM      2  C   UNL     1       4.224   6.694  17.907  0.00  0.00    +0.000 C 
ATOM      3  O   UNL     1       5.044   7.461  17.399  0.00  0.00    +0.000 OA
ATOM      4  C   UNL     1       2.749   7.152  18.024  0.00  0.00    +0.000 C 
ATOM      5  C   UNL     1       1.813   5.977  17.782  0.00  0.00    +0.000 C 
ATOM      6  C   UNL     1       2.194   4.700  18.556  0.00  0.00    +0.000 C 
ATOM      7  C   UNL     1       1.105   3.673  18.154  0.00  0.00    +0.000 C 
ATOM      8  C   UNL     1       1.524   2.222  18.318  0.00  0.00    +0.000 C 
ATOM      9  C   UNL     1       2.884   1.942  17.684  0.00  0.00    +0.000 C 
ATOM     10  C   UNL     1       3.890   3.064  17.781  0.00  0.00    +0.000 C 
ATOM     11  C   UNL     1       3.596   4.326  18.150  0.00  0.00    +0.000 C 
ENDROOT
BRANCH   6  12
ATOM     12  C   UNL     1       2.330   4.823  20.113  0.00  0.00    +0.000 C 
ATOM     13  O   UNL     1       1.740   5.632  20.821  0.00  0.00    +0.000 OA
BRANCH  12  14
ATOM     14  O   UNL     1       3.252   3.970  20.623  0.00  0.00    +0.000 OA
BRANCH  14  15
ATOM     15  C   UNL     1       2.779   2.934  21.493  0.00  0.00    +0.000 C 
ATOM     16  C   UNL     1       1.269   2.896  21.649  0.00  0.00    +0.000 C 
ENDBRANCH  14  15
ENDBRANCH  12  14
ENDBRANCH   6  12
BRANCH   1  17
ATOM     17  C   UNL     1       5.667   5.120  19.170  0.00  0.00    +0.000 C 
BRANCH  17  18
ATOM     18  C   UNL     1       7.140   5.469  18.906  0.00  0.00    +0.000 C 
BRANCH  18  19
ATOM     19  C   UNL     1       7.668   5.483  17.469  0.00  0.00    +0.000 C 
BRANCH  19  20
ATOM     20  C   UNL     1       7.082   4.442  16.510  0.00  0.00    +0.000 C 
BRANCH  20  21
ATOM     21  C   UNL     1       6.708   4.941  15.111  0.00  0.00    +0.000 C 
BRANCH  21  22
ATOM     22  C   UNL     1       5.752   4.029  14.357  0.00  0.00    +0.000 C 
BRANCH  22  24
ATOM     23  C   UNL     1       5.168   3.203  12.036  0.00  0.00    +0.000 C 
ATOM     24  C   UNL     1       6.261   3.742  12.943  0.00  0.00    +0.000 C 
ENDBRANCH  22  24
ENDBRANCH  21  22
ENDBRANCH  20  21
ENDBRANCH  19  20
ENDBRANCH  18  19
ENDBRANCH  17  18
ENDBRANCH   1  17
BRANCH   4  25
ATOM     25  C   UNL     1       2.168   7.938  19.218  0.00  0.00    +0.000 C 
BRANCH  25  26
ATOM     26  C   UNL     1       1.255   9.130  19.061  0.00  0.00    +0.000 C 
ATOM     27  O   UNL     1       1.167   9.802  18.046  0.00  0.00    +0.000 OA
ATOM     28  N   UNL     1       0.431   9.285  20.173  0.00  0.00    +0.000 N 
ATOM     29  H   UNL     1       0.476   8.583  20.898  0.00  0.00    +0.000 HD
BRANCH  28  30
ATOM     30  C   UNL     1      -0.655  10.246  20.245  0.00  0.00    +0.000 C 
BRANCH  30  31
ATOM     31  C   UNL     1      -0.191  11.593  20.846  0.00  0.00    +0.000 C 
ATOM     32  C   UNL     1      -0.795  12.807  20.121  0.00  0.00    +0.000 C 
ATOM     33  C   UNL     1      -2.301  12.902  20.335  0.00  0.00    +0.000 C 
ATOM     34  C   UNL     1      -2.668  12.954  21.815  0.00  0.00    +0.000 C 
ATOM     35  C   UNL     1      -2.008  11.848  22.637  0.00  0.00    +0.000 C 
ATOM     36  C   UNL     1      -0.513  11.701  22.347  0.00  0.00    +0.000 C 
ENDBRANCH  30  31
ENDBRANCH  28  30
ENDBRANCH  25  26
ENDBRANCH   4  25
TORSDOF 14
ENDMDL
MODEL 2
REMARK VINA RESULT:      -7.8      0.901      1.439
REMARK  Name = 
REMARK  16 active torsions:
REMARK  status: ('A' for Active; 'I' for Inactive)
REMARK    1  A    between atoms: C_1  and  C_2
REMARK    2  A    between atoms: C_2  and  C_3
REMARK    3  A    between atoms: C_3  and  C_4
REMARK    4  A    between atoms: C_4  and  C_5
REMARK    5  A    between atoms: C_5  and  C_6
REMARK    6  A    between atoms: C_6  and  C_7
REMARK    7  A    between atoms: C_7  and  C_8
REMARK    8  A    between atoms: C_8  and  N_9
REMARK    9  A    between atoms: C_12  and  C_13
REMARK   10  A    between atoms: C_13  and  C_14
REMARK   11  A    between atoms: N_16  and  C_17
REMARK   12  A    between atoms: C_17  and  C_18
REMARK   13  A    between atoms: C_25  and  C_26
REMARK   14  A    between atoms: C_26  and  O_28
REMARK   15  A    between atoms: O_28  and  C_29
REMARK   16  A    between atoms: C_29  and  C_30
REMARK                            x       y       z     vdW  Elec       q    Type
REMARK                         _______ _______ _______ _____ _____    ______ ____
ROOT
ATOM      1  N   UNL     1       4.529   5.303  18.039  0.00  0.00    +0.000 N 
ATOM      2  C   UNL     1       4.123   6.622  17.716  0.00  0.00    +0.000 C 
ATOM      3  O   UNL     1       4.895   7.396  17.144  0.00  0.00    +0.000 OA
ATOM      4  C   UNL     1       2.638   7.034  17.874  0.00  0.00    +0.000 C 
ATOM      5  C   UNL     1       1.737   5.817  17.718  0.00  0.00    +0.000 C 
ATOM      6  C   UNL     1       2.195   4.588  18.527  0.00  0.00    +0.000 C 
ATOM      7  C   UNL     1       1.129   3.507  18.212  0.00  0.00    +0.000 C 
ATOM      8  C   UNL     1       1.607   2.081  18.417  0.00  0.00    +0.000 C 
ATOM      9  C   UNL     1       2.951   1.822  17.741  0.00  0.00    +0.000 C 
ATOM     10  C   UNL     1       3.918   2.981  17.751  0.00  0.00    +0.000 C 
ATOM     11  C   UNL     1       3.592   4.246  18.080  0.00  0.00    +0.000 C 
ENDROOT
BRANCH   6  12
ATOM     12  C   UNL     1       2.387   4.781  20.070  0.00  0.00    +0.000 C 
ATOM     13  O   UNL     1       1.902   5.683  20.745  0.00  0.00    +0.000 OA
BRANCH  12  14
ATOM     14  O   UNL     1       3.233   3.868  20.608  0.00  0.00    +0.000 OA
BRANCH  14  15
ATOM     15  C   UNL     1       2.729   3.049  21.671  0.00  0.00    +0.000 C 
ATOM     16  C   UNL     1       1.229   2.810  21.612  0.00  0.00    +0.000 C 
ENDBRANCH  14  15
ENDBRANCH  12  14
ENDBRANCH   6  12
BRANCH   1  17
ATOM     17  C   UNL     1       5.672   5.155  18.982  0.00  0.00    +0.000 C 
BRANCH  17  18
ATOM     18  C   UNL     1       7.147   5.251  18.564  0.00  0.00    +0.000 C 
BRANCH  18  19
ATOM     19  C   UNL     1       7.631   4.505  17.318  0.00  0.00    +0.000 C 
BRANCH  19  20
ATOM     20  C   UNL     1       7.183   5.064  15.965  0.00  0.00    +0.000 C 
BRANCH  20  21
ATOM     21  C   UNL     1       6.435   4.095  15.043  0.00  0.00    +0.000 C 
BRANCH  21  22
ATOM     22  C   UNL     1       6.507   4.455  13.567  0.00  0.00    +0.000 C 
BRANCH  22  24
ATOM     23  C   UNL     1       4.832   3.468  11.945  0.00  0.00    +0.000 C 
ATOM     24  C   UNL     1       6.141   3.259  12.687  0.00  0.00    +0.000 C 
ENDBRANCH  22  24
ENDBRANCH  21  22
ENDBRANCH  20  21
ENDBRANCH  19  20
ENDBRANCH  18  19
ENDBRANCH  17  18
ENDBRANCH   1  17
BRANCH   4  25
ATOM     25  C   UNL     1       2.077   7.849  19.058  0.00  0.00    +0.000 C 
BRANCH  25  26
ATOM     26  C   UNL     1       1.829   9.337  18.996  0.00  0.00    +0.000 C 
ATOM     27  O   UNL     1       2.106  10.043  18.040  0.00  0.00    +0.000 OA
ATOM     28  N   UNL     1       1.125   9.777  20.113  0.00  0.00    +0.000 N 
ATOM     29  H   UNL     1       0.808   9.086  20.778  0.00  0.00    +0.000 HD
BRANCH  28  30
ATOM     30  C   UNL     1       0.607  11.126  20.261  0.00  0.00    +0.000 C 
BRANCH  30  31
ATOM     31  C   UNL     1      -0.938  11.144  20.323  0.00  0.00    +0.000 C 
ATOM     32  C   UNL     1      -1.530  12.523  19.986  0.00  0.00    +0.000 C 
ATOM     33  C   UNL     1      -1.299  12.896  18.526  0.00  0.00    +0.000 C 
ATOM     34  C   UNL     1      -1.860  11.848  17.569  0.00  0.00    +0.000 C 
ATOM     35  C   UNL     1      -1.418  10.426  17.909  0.00  0.00    +0.000 C 
ATOM     36  C   UNL     1      -1.570  10.092  19.394  0.00  0.00    +0.000 C 
ENDBRANCH  30  31
ENDBRANCH  28  30
ENDBRANCH  25  26
ENDBRANCH   4  25
TORSDOF 14
ENDMDL
MODEL 3
REMARK VINA RESULT:      -7.7      0.868      1.483
REMARK  Name = 
REMARK  16 active torsions:
REMARK  status: ('A' for Active; 'I' for Inactive)
REMARK    1  A    between atoms: C_1  and  C_2
REMARK    2  A    between atoms: C_2  and  C_3
REMARK    3  A    between atoms: C_3  and  C_4
REMARK    4  A    between atoms: C_4  and  C_5
REMARK    5  A    between atoms: C_5  and  C_6
REMARK    6  A    between atoms: C_6  and  C_7
REMARK    7  A    between atoms: C_7  and  C_8
REMARK    8  A    between atoms: C_8  and  N_9
REMARK    9  A    between atoms: C_12  and  C_13
REMARK   10  A    between atoms: C_13  and  C_14
REMARK   11  A    between atoms: N_16  and  C_17
REMARK   12  A    between atoms: C_17  and  C_18
REMARK   13  A    between atoms: C_25  and  C_26
REMARK   14  A    between atoms: C_26  and  O_28
REMARK   15  A    between atoms: O_28  and  C_29
REMARK   16  A    between atoms: C_29  and  C_30
REMARK                            x       y       z     vdW  Elec       q    Type
REMARK                         _______ _______ _______ _____ _____    ______ ____
ROOT
ATOM      1  N   UNL     1       4.359   5.691  17.386  0.00  0.00    +0.000 N 
ATOM      2  C   UNL     1       3.759   6.970  17.275  0.00  0.00    +0.000 C 
ATOM      3  O   UNL     1       4.255   7.838  16.553  0.00  0.00    +0.000 OA
ATOM      4  C   UNL     1       2.354   7.218  17.878  0.00  0.00    +0.000 C 
ATOM      5  C   UNL     1       1.561   5.920  17.915  0.00  0.00    +0.000 C 
ATOM      6  C   UNL     1       2.346   4.720  18.481  0.00  0.00    +0.000 C 
ATOM      7  C   UNL     1       1.337   3.544  18.421  0.00  0.00    +0.000 C 
ATOM      8  C   UNL     1       1.983   2.170  18.393  0.00  0.00    +0.000 C 
ATOM      9  C   UNL     1       3.087   2.075  17.344  0.00  0.00    +0.000 C 
ATOM     10  C   UNL     1       3.905   3.328  17.146  0.00  0.00    +0.000 C 
ATOM     11  C   UNL     1       3.576   4.541  17.631  0.00  0.00    +0.000 C 
ENDROOT
BRANCH   6  12
ATOM     12  C   UNL     1       2.962   4.883  19.913  0.00  0.00    +0.000 C 
ATOM     13  O   UNL     1       4.150   5.058  20.165  0.00  0.00    +0.000 OA
BRANCH  12  14
ATOM     14  O   UNL     1       2.042   4.730  20.897  0.00  0.00    +0.000 OA
BRANCH  14  15
ATOM     15  C   UNL     1       2.286   3.711  21.875  0.00  0.00    +0.000 C 
ATOM     16  C   UNL     1       1.284   2.570  21.845  0.00  0.00    +0.000 C 
ENDBRANCH  14  15
ENDBRANCH  12  14
ENDBRANCH   6  12
BRANCH   1  17
ATOM     17  C   UNL     1       5.737   5.633  17.950  0.00  0.00    +0.000 C 
BRANCH  17  18
ATOM     18  C   UNL     1       7.003   5.443  17.101  0.00  0.00    +0.000 C 
BRANCH  18  19
ATOM     19  C   UNL     1       6.892   5.400  15.575  0.00  0.00    +0.000 C 
BRANCH  19  20
ATOM     20  C   UNL     1       6.582   4.039  14.945  0.00  0.00    +0.000 C 
BRANCH  20  21
ATOM     21  C   UNL     1       5.750   4.059  13.659  0.00  0.00    +0.000 C 
BRANCH  21  22
ATOM     22  C   UNL     1       6.463   3.485  12.445  0.00  0.00    +0.000 C 
BRANCH  22  24
ATOM     23  C   UNL     1       4.157   3.238  11.426  0.00  0.00    +0.000 C 
ATOM     24  C   UNL     1       5.525   2.603  11.618  0.00  0.00    +0.000 C 
ENDBRANCH  22  24
ENDBRANCH  21  22
ENDBRANCH  20  21
ENDBRANCH  19  20
ENDBRANCH  18  19
ENDBRANCH  17  18
ENDBRANCH   1  17
BRANCH   4  25
ATOM     25  C   UNL     1       2.092   7.932  19.221  0.00  0.00    +0.000 C 
BRANCH  25  26
ATOM     26  C   UNL     1       1.625   9.364  19.322  0.00  0.00    +0.000 C 
ATOM     27  O   UNL     1       1.421  10.092  18.363  0.00  0.00    +0.000 OA
ATOM     28  N   UNL     1       1.330   9.707  20.638  0.00  0.00    +0.000 N 
ATOM     29  H   UNL     1       1.387   8.985  21.342  0.00  0.00    +0.000 HD
BRANCH  28  30
ATOM     30  C   UNL     1       0.713  10.964  21.025  0.00  0.00    +0.000 C 
BRANCH  30  31
ATOM     31  C   UNL     1      -0.808  10.809  21.257  0.00  0.00    +0.000 C 
ATOM     32  C   UNL     1      -1.236  11.212  22.678  0.00  0.00    +0.000 C 
ATOM     33  C   UNL     1      -1.062  12.707  22.919  0.00  0.00    +0.000 C 
ATOM     34  C   UNL     1      -1.822  13.546  21.896  0.00  0.00    +0.000 C 
ATOM     35  C   UNL     1      -1.548  13.128  20.452  0.00  0.00    +0.000 C 
ATOM     36  C   UNL     1      -1.637  11.616  20.242  0.00  0.00    +0.000 C 
ENDBRANCH  30  31
ENDBRANCH  28  30
ENDBRANCH  25  26
ENDBRANCH   4  25
TORSDOF 14
ENDMDL
MODEL 4
REMARK VINA RESULT:      -7.6      0.695      1.125
REMARK  Name = 
REMARK  16 active torsions:
REMARK  status: ('A' for Active; 'I' for Inactive)
REMARK    1  A    between atoms: C_1  and  C_2
REMARK    2  A    between atoms: C_2  and  C_3
REMARK    3  A    between atoms: C_3  and  C_4
REMARK    4  A    between atoms: C_4  and  C_5
REMARK    5  A    between atoms: C_5  and  C_6
REMARK    6  A    between atoms: C_6  and  C_7
REMARK    7  A    between atoms: C_7  and  C_8
REMARK    8  A    between atoms: C_8  and  N_9
REMARK    9  A    between atoms: C_12  and  C_13
REMARK   10  A    between atoms: C_13  and  C_14
REMARK   11  A    between atoms: N_16  and  C_17
REMARK   12  A    between atoms: C_17  and  C_18
REMARK   13  A    between atoms: C_25  and  C_26
REMARK   14  A    between atoms: C_26  and  O_28
REMARK   15  A    between atoms: O_28  and  C_29
REMARK   16  A    between atoms: C_29  and  C_30
REMARK                            x       y       z     vdW  Elec       q    Type
REMARK                         _______ _______ _______ _____ _____    ______ ____
ROOT
ATOM      1  N   UNL     1       4.395   5.558  18.024  0.00  0.00    +0.000 N 
ATOM      2  C   UNL     1       3.893   6.865  17.805  0.00  0.00    +0.000 C 
ATOM      3  O   UNL     1       4.590   7.724  17.259  0.00  0.00    +0.000 OA
ATOM      4  C   UNL     1       2.392   7.166  18.043  0.00  0.00    +0.000 C 
ATOM      5  C   UNL     1       1.565   5.905  17.838  0.00  0.00    +0.000 C 
ATOM      6  C   UNL     1       2.133   4.659  18.546  0.00  0.00    +0.000 C 
ATOM      7  C   UNL     1       1.127   3.532  18.198  0.00  0.00    +0.000 C 
ATOM      8  C   UNL     1       1.703   2.130  18.291  0.00  0.00    +0.000 C 
ATOM      9  C   UNL     1       3.032   2.006  17.551  0.00  0.00    +0.000 C 
ATOM     10  C   UNL     1       3.923   3.223  17.604  0.00  0.00    +0.000 C 
ATOM     11  C   UNL     1       3.530   4.440  18.028  0.00  0.00    +0.000 C 
ENDROOT
BRANCH   6  12
ATOM     12  C   UNL     1       2.373   4.764  20.092  0.00  0.00    +0.000 C 
ATOM     13  O   UNL     1       1.994   5.679  20.814  0.00  0.00    +0.000 OA
BRANCH  12  14
ATOM     14  O   UNL     1       3.136   3.750  20.570  0.00  0.00    +0.000 OA
BRANCH  14  15
ATOM     15  C   UNL     1       2.680   3.088  21.757  0.00  0.00    +0.000 C 
ATOM     16  C   UNL     1       1.250   2.582  21.674  0.00  0.00    +0.000 C 
ENDBRANCH  14  15
ENDBRANCH  12  14
ENDBRANCH   6  12
BRANCH   1  17
ATOM     17  C   UNL     1       5.582   5.425  18.914  0.00  0.00    +0.000 C 
BRANCH  17  18
ATOM     18  C   UNL     1       7.029   5.337  18.406  0.00  0.00    +0.000 C 
BRANCH  18  19
ATOM     19  C   UNL     1       7.356   4.449  17.203  0.00  0.00    +0.000 C 
BRANCH  19  20
ATOM     20  C   UNL     1       7.337   5.121  15.827  0.00  0.00    +0.000 C 
BRANCH  20  21
ATOM     21  C   UNL     1       5.965   5.270  15.162  0.00  0.00    +0.000 C 
BRANCH  21  22
ATOM     22  C   UNL     1       5.538   4.069  14.333  0.00  0.00    +0.000 C 
BRANCH  22  24
ATOM     23  C   UNL     1       5.797   3.080  12.016  0.00  0.00    +0.000 C 
ATOM     24  C   UNL     1       6.462   3.870  13.131  0.00  0.00    +0.000 C 
ENDBRANCH  22  24
ENDBRANCH  21  22
ENDBRANCH  20  21
ENDBRANCH  19  20
ENDBRANCH  18  19
ENDBRANCH  17  18
ENDBRANCH   1  17
BRANCH   4  25
ATOM     25  C   UNL     1       1.827   7.863  19.298  0.00  0.00    +0.000 C 
BRANCH  25  26
ATOM     26  C   UNL     1       1.579   9.351  19.379  0.00  0.00    +0.000 C 
ATOM     27  O   UNL     1       1.590  10.104  18.418  0.00  0.00    +0.000 OA
ATOM     28  N   UNL     1       1.208   9.731  20.665  0.00  0.00    +0.000 N 
ATOM     29  H   UNL     1       1.080   9.005  21.357  0.00  0.00    +0.000 HD
BRANCH  28  30
ATOM     30  C   UNL     1       0.756  11.067  21.013  0.00  0.00    +0.000 C 
BRANCH  30  31
ATOM     31  C   UNL     1      -0.782  11.133  21.158  0.00  0.00    +0.000 C 
ATOM     32  C   UNL     1      -1.237  12.168  22.201  0.00  0.00    +0.000 C 
ATOM     33  C   UNL     1      -0.931  13.593  21.753  0.00  0.00    +0.000 C 
ATOM     34  C   UNL     1      -1.558  13.917  20.400  0.00  0.00    +0.000 C 
ATOM     35  C   UNL     1      -1.257  12.867  19.331  0.00  0.00    +0.000 C 
ATOM     36  C   UNL     1      -1.481  11.436  19.821  0.00  0.00    +0.000 C 
ENDBRANCH  30  31
ENDBRANCH  28  30
ENDBRANCH  25  26
ENDBRANCH   4  25
TORSDOF 14
ENDMDL
MODEL 5
REMARK VINA RESULT:      -7.6      2.021      3.242
REMARK  Name = 
REMARK  16 active torsions:
REMARK  status: ('A' for Active; 'I' for Inactive)
REMARK    1  A    between atoms: C_1  and  C_2
REMARK    2  A    between atoms: C_2  and  C_3
REMARK    3  A    between atoms: C_3  and  C_4
REMARK    4  A    between atoms: C_4  and  C_5
REMARK    5  A    between atoms: C_5  and  C_6
REMARK    6  A    between atoms: C_6  and  C_7
REMARK    7  A    between atoms: C_7  and  C_8
REMARK    8  A    between atoms: C_8  and  N_9
REMARK    9  A    between atoms: C_12  and  C_13
REMARK   10  A    between atoms: C_13  and  C_14
REMARK   11  A    between atoms: N_16  and  C_17
REMARK   12  A    between atoms: C_17  and  C_18
REMARK   13  A    between atoms: C_25  and  C_26
REMARK   14  A    between atoms: C_26  and  O_28
REMARK   15  A    between atoms: O_28  and  C_29
REMARK   16  A    between atoms: C_29  and  C_30
REMARK                            x       y       z     vdW  Elec       q    Type
REMARK                         _______ _______ _______ _____ _____    ______ ____
ROOT
ATOM      1  N   UNL     1       4.690   5.374  17.888  0.00  0.00    +0.000 N 
ATOM      2  C   UNL     1       4.273   6.659  17.459  0.00  0.00    +0.000 C 
ATOM      3  O   UNL     1       5.038   7.390  16.826  0.00  0.00    +0.000 OA
ATOM      4  C   UNL     1       2.785   7.069  17.584  0.00  0.00    +0.000 C 
ATOM      5  C   UNL     1       1.894   5.837  17.528  0.00  0.00    +0.000 C 
ATOM      6  C   UNL     1       2.362   4.681  18.434  0.00  0.00    +0.000 C 
ATOM      7  C   UNL     1       1.305   3.569  18.208  0.00  0.00    +0.000 C 
ATOM      8  C   UNL     1       1.796   2.168  18.528  0.00  0.00    +0.000 C 
ATOM      9  C   UNL     1       3.141   1.867  17.874  0.00  0.00    +0.000 C 
ATOM     10  C   UNL     1       4.099   3.031  17.790  0.00  0.00    +0.000 C 
ATOM     11  C   UNL     1       3.762   4.316  18.015  0.00  0.00    +0.000 C 
ENDROOT
BRANCH   6  12
ATOM     12  C   UNL     1       2.552   5.000  19.956  0.00  0.00    +0.000 C 
ATOM     13  O   UNL     1       3.458   5.670  20.440  0.00  0.00    +0.000 OA
BRANCH  12  14
ATOM     14  O   UNL     1       1.631   4.381  20.736  0.00  0.00    +0.000 OA
BRANCH  14  15
ATOM     15  C   UNL     1       2.119   3.577  21.818  0.00  0.00    +0.000 C 
ATOM     16  C   UNL     1       1.343   2.288  22.030  0.00  0.00    +0.000 C 
ENDBRANCH  14  15
ENDBRANCH  12  14
ENDBRANCH   6  12
BRANCH   1  17
ATOM     17  C   UNL     1       5.834   5.312  18.840  0.00  0.00    +0.000 C 
BRANCH  17  18
ATOM     18  C   UNL     1       7.307   5.430  18.419  0.00  0.00    +0.000 C 
BRANCH  18  19
ATOM     19  C   UNL     1       8.058   6.744  18.651  0.00  0.00    +0.000 C 
BRANCH  19  20
ATOM     20  C   UNL     1       8.044   7.756  17.501  0.00  0.00    +0.000 C 
BRANCH  20  21
ATOM     21  C   UNL     1       7.907   9.230  17.895  0.00  0.00    +0.000 C 
BRANCH  21  22
ATOM     22  C   UNL     1       9.010   9.738  18.810  0.00  0.00    +0.000 C 
BRANCH  22  24
ATOM     23  C   UNL     1      10.847  11.477  18.689  0.00  0.00    +0.000 C 
ATOM     24  C   UNL     1       9.369  11.191  18.490  0.00  0.00    +0.000 C 
ENDBRANCH  22  24
ENDBRANCH  21  22
ENDBRANCH  20  21
ENDBRANCH  19  20
ENDBRANCH  18  19
ENDBRANCH  17  18
ENDBRANCH   1  17
BRANCH   4  25
ATOM     25  C   UNL     1       2.216   7.973  18.698  0.00  0.00    +0.000 C 
BRANCH  25  26
ATOM     26  C   UNL     1       1.623   9.337  18.438  0.00  0.00    +0.000 C 
ATOM     27  O   UNL     1       1.968  10.076  17.530  0.00  0.00    +0.000 OA
ATOM     28  N   UNL     1       0.545   9.587  19.282  0.00  0.00    +0.000 N 
ATOM     29  H   UNL     1       0.242   8.846  19.898  0.00  0.00    +0.000 HD
BRANCH  28  30
ATOM     30  C   UNL     1      -0.321  10.747  19.163  0.00  0.00    +0.000 C 
BRANCH  30  31
ATOM     31  C   UNL     1       0.134  11.901  20.087  0.00  0.00    +0.000 C 
ATOM     32  C   UNL     1      -0.895  13.041  20.165  0.00  0.00    +0.000 C 
ATOM     33  C   UNL     1      -2.174  12.601  20.866  0.00  0.00    +0.000 C 
ATOM     34  C   UNL     1      -1.904  12.057  22.266  0.00  0.00    +0.000 C 
ATOM     35  C   UNL     1      -0.801  11.000  22.297  0.00  0.00    +0.000 C 
ATOM     36  C   UNL     1       0.445  11.415  21.514  0.00  0.00    +0.000 C 
ENDBRANCH  30  31
ENDBRANCH  28  30
ENDBRANCH  25  26
ENDBRANCH   4  25
TORSDOF 14
ENDMDL
MODEL 6
REMARK VINA RESULT:      -7.5      4.167      6.414
REMARK  Name = 
REMARK  16 active torsions:
REMARK  status: ('A' for Active; 'I' for Inactive)
REMARK    1  A    between atoms: C_1  and  C_2
REMARK    2  A    between atoms: C_2  and  C_3
REMARK    3  A    between atoms: C_3  and  C_4
REMARK    4  A    between atoms: C_4  and  C_5
REMARK    5  A    between atoms: C_5  and  C_6
REMARK    6  A    between atoms: C_6  and  C_7
REMARK    7  A    between atoms: C_7  and  C_8
REMARK    8  A    between atoms: C_8  and  N_9
REMARK    9  A    between atoms: C_12  and  C_13
REMARK   10  A    between atoms: C_13  and  C_14
REMARK   11  A    between atoms: N_16  and  C_17
REMARK   12  A    between atoms: C_17  and  C_18
REMARK   13  A    between atoms: C_25  and  C_26
REMARK   14  A    between atoms: C_26  and  O_28
REMARK   15  A    between atoms: O_28  and  C_29
REMARK   16  A    between atoms: C_29  and  C_30
REMARK                            x       y       z     vdW  Elec       q    Type
REMARK                         _______ _______ _______ _____ _____    ______ ____
ROOT
ATOM      1  N   UNL     1       4.229   5.036  16.352  0.00  0.00    +0.000 N 
ATOM      2  C   UNL     1       4.913   6.265  16.183  0.00  0.00    +0.000 C 
ATOM      3  O   UNL     1       5.177   6.690  15.056  0.00  0.00    +0.000 OA
ATOM      4  C   UNL     1       5.137   7.196  17.401  0.00  0.00    +0.000 C 
ATOM      5  C   UNL     1       4.042   6.981  18.436  0.00  0.00    +0.000 C 
ATOM      6  C   UNL     1       3.760   5.499  18.752  0.00  0.00    +0.000 C 
ATOM      7  C   UNL     1       2.635   5.545  19.818  0.00  0.00    +0.000 C 
ATOM      8  C   UNL     1       1.802   4.278  19.901  0.00  0.00    +0.000 C 
ATOM      9  C   UNL     1       1.318   3.817  18.530  0.00  0.00    +0.000 C 
ATOM     10  C   UNL     1       2.281   4.047  17.389  0.00  0.00    +0.000 C 
ATOM     11  C   UNL     1       3.379   4.824  17.460  0.00  0.00    +0.000 C 
ENDROOT
BRANCH   6  12
ATOM     12  C   UNL     1       4.973   4.627  19.227  0.00  0.00    +0.000 C 
ATOM     13  O   UNL     1       5.915   5.021  19.906  0.00  0.00    +0.000 OA
BRANCH  12  14
ATOM     14  O   UNL     1       4.928   3.363  18.739  0.00  0.00    +0.000 OA
BRANCH  14  15
ATOM     15  C   UNL     1       4.600   2.313  19.658  0.00  0.00    +0.000 C 
ATOM     16  C   UNL     1       3.798   1.179  19.043  0.00  0.00    +0.000 C 
ENDBRANCH  14  15
ENDBRANCH  12  14
ENDBRANCH   6  12
BRANCH   1  17
ATOM     17  C   UNL     1       4.902   3.807  15.845  0.00  0.00    +0.000 C 
BRANCH  17  18
ATOM     18  C   UNL     1       6.324   3.787  15.264  0.00  0.00    +0.000 C 
BRANCH  18  19
ATOM     19  C   UNL     1       6.523   3.864  13.748  0.00  0.00    +0.000 C 
BRANCH  19  20
ATOM     20  C   UNL     1       5.257   3.862  12.886  0.00  0.00    +0.000 C 
BRANCH  20  21
ATOM     21  C   UNL     1       5.190   2.807  11.777  0.00  0.00    +0.000 C 
BRANCH  21  22
ATOM     22  C   UNL     1       6.477   2.018  11.587  0.00  0.00    +0.000 C 
BRANCH  22  24
ATOM     23  C   UNL     1       6.123  -0.486  11.457  0.00  0.00    +0.000 C 
ATOM     24  C   UNL     1       6.255   0.810  10.675  0.00  0.00    +0.000 C 
ENDBRANCH  22  24
ENDBRANCH  21  22
ENDBRANCH  20  21
ENDBRANCH  19  20
ENDBRANCH  18  19
ENDBRANCH  17  18
ENDBRANCH   1  17
BRANCH   4  25
ATOM     25  C   UNL     1       6.463   7.314  18.181  0.00  0.00    +0.000 C 
BRANCH  25  26
ATOM     26  C   UNL     1       7.720   7.909  17.594  0.00  0.00    +0.000 C 
ATOM     27  O   UNL     1       8.278   7.490  16.592  0.00  0.00    +0.000 OA
ATOM     28  N   UNL     1       8.088   9.072  18.263  0.00  0.00    +0.000 N 
ATOM     29  H   UNL     1       7.472   9.420  18.985  0.00  0.00    +0.000 HD
BRANCH  28  30
ATOM     30  C   UNL     1       9.162   9.948  17.829  0.00  0.00    +0.000 C 
BRANCH  30  31
ATOM     31  C   UNL     1       8.991  11.383  18.380  0.00  0.00    +0.000 C 
ATOM     32  C   UNL     1       9.377  11.499  19.864  0.00  0.00    +0.000 C 
ATOM     33  C   UNL     1      10.871  11.288  20.078  0.00  0.00    +0.000 C 
ATOM     34  C   UNL     1      11.713  12.255  19.252  0.00  0.00    +0.000 C 
ATOM     35  C   UNL     1      11.311  12.294  17.778  0.00  0.00    +0.000 C 
ATOM     36  C   UNL     1       9.800  12.415  17.575  0.00  0.00    +0.000 C 
ENDBRANCH  30  31
ENDBRANCH  28  30
ENDBRANCH  25  26
ENDBRANCH   4  25
TORSDOF 14
ENDMDL
MODEL 7
REMARK VINA RESULT:      -7.4      2.632      3.905
REMARK  Name = 
REMARK  16 active torsions:
REMARK  status: ('A' for Active; 'I' for Inactive)
REMARK    1  A    between atoms: C_1  and  C_2
REMARK    2  A    between atoms: C_2  and  C_3
REMARK    3  A    between atoms: C_3  and  C_4
REMARK    4  A    between atoms: C_4  and  C_5
REMARK    5  A    between atoms: C_5  and  C_6
REMARK    6  A    between atoms: C_6  and  C_7
REMARK    7  A    between atoms: C_7  and  C_8
REMARK    8  A    between atoms: C_8  and  N_9
REMARK    9  A    between atoms: C_12  and  C_13
REMARK   10  A    between atoms: C_13  and  C_14
REMARK   11  A    between atoms: N_16  and  C_17
REMARK   12  A    between atoms: C_17  and  C_18
REMARK   13  A    between atoms: C_25  and  C_26
REMARK   14  A    between atoms: C_26  and  O_28
REMARK   15  A    between atoms: O_28  and  C_29
REMARK   16  A    between atoms: C_29  and  C_30
REMARK                            x       y       z     vdW  Elec       q    Type
REMARK                         _______ _______ _______ _____ _____    ______ ____
ROOT
ATOM      1  N   UNL     1       4.480   6.202  17.503  0.00  0.00    +0.000 N 
ATOM      2  C   UNL     1       3.625   7.322  17.654  0.00  0.00    +0.000 C 
ATOM      3  O   UNL     1       3.889   8.394  17.105  0.00  0.00    +0.000 OA
ATOM      4  C   UNL     1       2.239   7.150  18.324  0.00  0.00    +0.000 C 
ATOM      5  C   UNL     1       1.732   5.729  18.124  0.00  0.00    +0.000 C 
ATOM      6  C   UNL     1       2.779   4.640  18.431  0.00  0.00    +0.000 C 
ATOM      7  C   UNL     1       2.031   3.308  18.165  0.00  0.00    +0.000 C 
ATOM      8  C   UNL     1       2.941   2.132  17.857  0.00  0.00    +0.000 C 
ATOM      9  C   UNL     1       3.975   2.470  16.787  0.00  0.00    +0.000 C 
ATOM     10  C   UNL     1       4.505   3.883  16.819  0.00  0.00    +0.000 C 
ATOM     11  C   UNL     1       3.966   4.887  17.536  0.00  0.00    +0.000 C 
ENDROOT
BRANCH   6  12
ATOM     12  C   UNL     1       3.436   4.661  19.854  0.00  0.00    +0.000 C 
ATOM     13  O   UNL     1       4.638   4.726  20.086  0.00  0.00    +0.000 OA
BRANCH  12  14
ATOM     14  O   UNL     1       2.526   4.519  20.849  0.00  0.00    +0.000 OA
BRANCH  14  15
ATOM     15  C   UNL     1       2.557   3.298  21.599  0.00  0.00    +0.000 C 
ATOM     16  C   UNL     1       1.210   2.603  21.708  0.00  0.00    +0.000 C 
ENDBRANCH  14  15
ENDBRANCH  12  14
ENDBRANCH   6  12
BRANCH   1  17
ATOM     17  C   UNL     1       5.873   6.335  18.016  0.00  0.00    +0.000 C 
BRANCH  17  18
ATOM     18  C   UNL     1       7.027   6.953  17.213  0.00  0.00    +0.000 C 
BRANCH  18  19
ATOM     19  C   UNL     1       8.143   7.702  17.945  0.00  0.00    +0.000 C 
BRANCH  19  20
ATOM     20  C   UNL     1       8.055   9.231  17.953  0.00  0.00    +0.000 C 
BRANCH  20  21
ATOM     21  C   UNL     1       9.071   9.966  18.833  0.00  0.00    +0.000 C 
BRANCH  21  22
ATOM     22  C   UNL     1       9.282  11.425  18.458  0.00  0.00    +0.000 C 
BRANCH  22  24
ATOM     23  C   UNL     1      11.747  11.647  18.995  0.00  0.00    +0.000 C 
ATOM     24  C   UNL     1      10.690  11.655  17.904  0.00  0.00    +0.000 C 
ENDBRANCH  22  24
ENDBRANCH  21  22
ENDBRANCH  20  21
ENDBRANCH  19  20
ENDBRANCH  18  19
ENDBRANCH  17  18
ENDBRANCH   1  17
BRANCH   4  25
ATOM     25  C   UNL     1       1.919   7.530  19.784  0.00  0.00    +0.000 C 
BRANCH  25  26
ATOM     26  C   UNL     1       1.383   8.882  20.191  0.00  0.00    +0.000 C 
ATOM     27  O   UNL     1       1.103   9.196  21.338  0.00  0.00    +0.000 OA
ATOM     28  N   UNL     1       1.372   9.765  19.116  0.00  0.00    +0.000 N 
ATOM     29  H   UNL     1       1.768   9.452  18.240  0.00  0.00    +0.000 HD
BRANCH  28  30
ATOM     30  C   UNL     1       1.057  11.178  19.235  0.00  0.00    +0.000 C 
BRANCH  30  31
ATOM     31  C   UNL     1      -0.272  11.531  18.528  0.00  0.00    +0.000 C 
ATOM     32  C   UNL     1      -1.508  11.127  19.351  0.00  0.00    +0.000 C 
ATOM     33  C   UNL     1      -1.633  11.953  20.625  0.00  0.00    +0.000 C 
ATOM     34  C   UNL     1      -1.676  13.451  20.337  0.00  0.00    +0.000 C 
ATOM     35  C   UNL     1      -0.547  13.919  19.419  0.00  0.00    +0.000 C 
ATOM     36  C   UNL     1      -0.371  13.028  18.188  0.00  0.00    +0.000 C 
ENDBRANCH  30  31
ENDBRANCH  28  30
ENDBRANCH  25  26
ENDBRANCH   4  25
TORSDOF 14
ENDMDL
MODEL 8
REMARK VINA RESULT:      -7.3      1.350      2.157
REMARK  Name = 
REMARK  16 active torsions:
REMARK  status: ('A' for Active; 'I' for Inactive)
REMARK    1  A    between atoms: C_1  and  C_2
REMARK    2  A    between atoms: C_2  and  C_3
REMARK    3  A    between atoms: C_3  and  C_4
REMARK    4  A    between atoms: C_4  and  C_5
REMARK    5  A    between atoms: C_5  and  C_6
REMARK    6  A    between atoms: C_6  and  C_7
REMARK    7  A    between atoms: C_7  and  C_8
REMARK    8  A    between atoms: C_8  and  N_9
REMARK    9  A    between atoms: C_12  and  C_13
REMARK   10  A    between atoms: C_13  and  C_14
REMARK   11  A    between atoms: N_16  and  C_17
REMARK   12  A    between atoms: C_17  and  C_18
REMARK   13  A    between atoms: C_25  and  C_26
REMARK   14  A    between atoms: C_26  and  O_28
REMARK   15  A    between atoms: O_28  and  C_29
REMARK   16  A    between atoms: C_29  and  C_30
REMARK                            x       y       z     vdW  Elec       q    Type
REMARK                         _______ _______ _______ _____ _____    ______ ____
ROOT
ATOM      1  N   UNL     1       4.483   5.201  17.645  0.00  0.00    +0.000 N 
ATOM      2  C   UNL     1       4.088   6.468  17.147  0.00  0.00    +0.000 C 
ATOM      3  O   UNL     1       4.806   7.085  16.356  0.00  0.00    +0.000 OA
ATOM      4  C   UNL     1       2.654   6.989  17.412  0.00  0.00    +0.000 C 
ATOM      5  C   UNL     1       1.694   5.820  17.586  0.00  0.00    +0.000 C 
ATOM      6  C   UNL     1       2.209   4.722  18.537  0.00  0.00    +0.000 C 
ATOM      7  C   UNL     1       1.071   3.669  18.552  0.00  0.00    +0.000 C 
ATOM      8  C   UNL     1       1.518   2.272  18.946  0.00  0.00    +0.000 C 
ATOM      9  C   UNL     1       2.749   1.821  18.165  0.00  0.00    +0.000 C 
ATOM     10  C   UNL     1       3.752   2.905  17.851  0.00  0.00    +0.000 C 
ATOM     11  C   UNL     1       3.521   4.225  17.988  0.00  0.00    +0.000 C 
ENDROOT
BRANCH   6  12
ATOM     12  C   UNL     1       2.610   5.163  19.986  0.00  0.00    +0.000 C 
ATOM     13  O   UNL     1       3.707   4.996  20.507  0.00  0.00    +0.000 OA
BRANCH  12  14
ATOM     14  O   UNL     1       1.571   5.701  20.673  0.00  0.00    +0.000 OA
BRANCH  14  15
ATOM     15  C   UNL     1       1.742   7.026  21.193  0.00  0.00    +0.000 C 
ATOM     16  C   UNL     1       0.442   7.717  21.567  0.00  0.00    +0.000 C 
ENDBRANCH  14  15
ENDBRANCH  12  14
ENDBRANCH   6  12
BRANCH   1  17
ATOM     17  C   UNL     1       5.734   5.147  18.452  0.00  0.00    +0.000 C 
BRANCH  17  18
ATOM     18  C   UNL     1       7.100   4.726  17.889  0.00  0.00    +0.000 C 
BRANCH  18  19
ATOM     19  C   UNL     1       7.330   4.736  16.375  0.00  0.00    +0.000 C 
BRANCH  19  20
ATOM     20  C   UNL     1       6.522   3.731  15.549  0.00  0.00    +0.000 C 
BRANCH  20  21
ATOM     21  C   UNL     1       5.798   4.287  14.319  0.00  0.00    +0.000 C 
BRANCH  21  22
ATOM     22  C   UNL     1       6.412   3.870  12.991  0.00  0.00    +0.000 C 
BRANCH  22  24
ATOM     23  C   UNL     1       5.708   1.935  11.518  0.00  0.00    +0.000 C 
ATOM     24  C   UNL     1       5.349   3.315  12.041  0.00  0.00    +0.000 C 
ENDBRANCH  22  24
ENDBRANCH  21  22
ENDBRANCH  20  21
ENDBRANCH  19  20
ENDBRANCH  18  19
ENDBRANCH  17  18
ENDBRANCH   1  17
BRANCH   4  25
ATOM     25  C   UNL     1       2.285   8.026  18.493  0.00  0.00    +0.000 C 
BRANCH  25  26
ATOM     26  C   UNL     1       1.844   9.435  18.174  0.00  0.00    +0.000 C 
ATOM     27  O   UNL     1       2.398  10.164  17.367  0.00  0.00    +0.000 OA
ATOM     28  N   UNL     1       0.651   9.748  18.819  0.00  0.00    +0.000 N 
ATOM     29  H   UNL     1       0.191   9.020  19.347  0.00  0.00    +0.000 HD
BRANCH  28  30
ATOM     30  C   UNL     1      -0.096  10.971  18.584  0.00  0.00    +0.000 C 
BRANCH  30  31
ATOM     31  C   UNL     1      -0.153  11.861  19.848  0.00  0.00    +0.000 C 
ATOM     32  C   UNL     1       1.243  12.222  20.382  0.00  0.00    +0.000 C 
ATOM     33  C   UNL     1       1.998  13.135  19.423  0.00  0.00    +0.000 C 
ATOM     34  C   UNL     1       1.220  14.411  19.114  0.00  0.00    +0.000 C 
ATOM     35  C   UNL     1      -0.224  14.148  18.691  0.00  0.00    +0.000 C 
ATOM     36  C   UNL     1      -0.944  13.159  19.610  0.00  0.00    +0.000 C 
ENDBRANCH  30  31
ENDBRANCH  28  30
ENDBRANCH  25  26
ENDBRANCH   4  25
TORSDOF 14
ENDMDL
MODEL 9
REMARK VINA RESULT:      -7.3      1.382      2.062
REMARK  Name = 
REMARK  16 active torsions:
REMARK  status: ('A' for Active; 'I' for Inactive)
REMARK    1  A    between atoms: C_1  and  C_2
REMARK    2  A    between atoms: C_2  and  C_3
REMARK    3  A    between atoms: C_3  and  C_4
REMARK    4  A    between atoms: C_4  and  C_5
REMARK    5  A    between atoms: C_5  and  C_6
REMARK    6  A    between atoms: C_6  and  C_7
REMARK    7  A    between atoms: C_7  and  C_8
REMARK    8  A    between atoms: C_8  and  N_9
REMARK    9  A    between atoms: C_12  and  C_13
REMARK   10  A    between atoms: C_13  and  C_14
REMARK   11  A    between atoms: N_16  and  C_17
REMARK   12  A    between atoms: C_17  and  C_18
REMARK   13  A    between atoms: C_25  and  C_26
REMARK   14  A    between atoms: C_26  and  O_28
REMARK   15  A    between atoms: O_28  and  C_29
REMARK   16  A    between atoms: C_29  and  C_30
REMARK                            x       y       z     vdW  Elec       q    Type
REMARK                         _______ _______ _______ _____ _____    ______ ____
ROOT
ATOM      1  N   UNL     1       4.628   5.466  17.365  0.00  0.00    +0.000 N 
ATOM      2  C   UNL     1       4.273   6.739  16.854  0.00  0.00    +0.000 C 
ATOM      3  O   UNL     1       4.993   7.312  16.033  0.00  0.00    +0.000 OA
ATOM      4  C   UNL     1       2.870   7.325  17.150  0.00  0.00    +0.000 C 
ATOM      5  C   UNL     1       1.867   6.202  17.372  0.00  0.00    +0.000 C 
ATOM      6  C   UNL     1       2.362   5.099  18.328  0.00  0.00    +0.000 C 
ATOM      7  C   UNL     1       1.182   4.096  18.395  0.00  0.00    +0.000 C 
ATOM      8  C   UNL     1       1.581   2.688  18.802  0.00  0.00    +0.000 C 
ATOM      9  C   UNL     1       2.770   2.172  17.996  0.00  0.00    +0.000 C 
ATOM     10  C   UNL     1       3.808   3.207  17.634  0.00  0.00    +0.000 C 
ATOM     11  C   UNL     1       3.636   4.538  17.753  0.00  0.00    +0.000 C 
ENDROOT
BRANCH   6  12
ATOM     12  C   UNL     1       2.823   5.548  19.758  0.00  0.00    +0.000 C 
ATOM     13  O   UNL     1       3.963   5.465  20.201  0.00  0.00    +0.000 OA
BRANCH  12  14
ATOM     14  O   UNL     1       1.792   5.985  20.523  0.00  0.00    +0.000 OA
BRANCH  14  15
ATOM     15  C   UNL     1       1.899   7.302  21.080  0.00  0.00    +0.000 C 
ATOM     16  C   UNL     1       0.568   8.017  21.238  0.00  0.00    +0.000 C 
ENDBRANCH  14  15
ENDBRANCH  12  14
ENDBRANCH   6  12
BRANCH   1  17
ATOM     17  C   UNL     1       5.899   5.373  18.138  0.00  0.00    +0.000 C 
BRANCH  17  18
ATOM     18  C   UNL     1       7.278   5.163  17.496  0.00  0.00    +0.000 C 
BRANCH  18  19
ATOM     19  C   UNL     1       7.420   4.224  16.295  0.00  0.00    +0.000 C 
BRANCH  19  20
ATOM     20  C   UNL     1       7.008   4.785  14.931  0.00  0.00    +0.000 C 
BRANCH  20  21
ATOM     21  C   UNL     1       6.046   3.926  14.105  0.00  0.00    +0.000 C 
BRANCH  21  22
ATOM     22  C   UNL     1       6.406   3.828  12.630  0.00  0.00    +0.000 C 
BRANCH  22  24
ATOM     23  C   UNL     1       4.254   3.286  11.409  0.00  0.00    +0.000 C 
ATOM     24  C   UNL     1       5.577   2.749  11.929  0.00  0.00    +0.000 C 
ENDBRANCH  22  24
ENDBRANCH  21  22
ENDBRANCH  20  21
ENDBRANCH  19  20
ENDBRANCH  18  19
ENDBRANCH  17  18
ENDBRANCH   1  17
BRANCH   4  25
ATOM     25  C   UNL     1       2.575   8.396  18.221  0.00  0.00    +0.000 C 
BRANCH  25  26
ATOM     26  C   UNL     1       1.655   9.570  17.989  0.00  0.00    +0.000 C 
ATOM     27  O   UNL     1       0.446   9.480  17.844  0.00  0.00    +0.000 OA
ATOM     28  N   UNL     1       2.341  10.777  18.094  0.00  0.00    +0.000 N 
ATOM     29  H   UNL     1       3.313  10.749  18.369  0.00  0.00    +0.000 HD
BRANCH  28  30
ATOM     30  C   UNL     1       1.694  12.077  18.074  0.00  0.00    +0.000 C 
BRANCH  30  31
ATOM     31  C   UNL     1       1.720  12.752  19.466  0.00  0.00    +0.000 C 
ATOM     32  C   UNL     1       1.108  14.163  19.453  0.00  0.00    +0.000 C 
ATOM     33  C   UNL     1      -0.391  14.127  19.181  0.00  0.00    +0.000 C 
ATOM     34  C   UNL     1      -1.137  13.253  20.186  0.00  0.00    +0.000 C 
ATOM     35  C   UNL     1      -0.517  11.866  20.352  0.00  0.00    +0.000 C 
ATOM     36  C   UNL     1       1.001  11.909  20.534  0.00  0.00    +0.000 C 
ENDBRANCH  30  31
ENDBRANCH  28  30
ENDBRANCH  25  26
ENDBRANCH   4  25
TORSDOF 14
ENDMDL
