MODEL 1
REMARK VINA RESULT:      -8.5      0.000      0.000
REMARK  Name = 
REMARK  7 active torsions:
REMARK  status: ('A' for Active; 'I' for Inactive)
REMARK    1  A    between atoms: C_1  and  C_2
REMARK    2  A    between atoms: C_2  and  C_3
REMARK    3  A    between atoms: C_3  and  C_4
REMARK    4  A    between atoms: C_3  and  N_5
REMARK    5  A    between atoms: N_5  and  C_6
REMARK    6  A    between atoms: C_7  and  C_9
REMARK    7  A    between atoms: C_17  and  C_18
REMARK                            x       y       z     vdW  Elec       q    Type
REMARK                         _______ _______ _______ _____ _____    ______ ____
ROOT
ATOM      1  C   UNL     1       2.363   7.124  18.833  0.00  0.00    +0.000 A 
ATOM      2  C   UNL     1       1.700   6.275  19.695  0.00  0.00    +0.000 A 
ATOM      3  C   UNL     1       2.262   5.049  20.016  0.00  0.00    +0.000 A 
ATOM      4  C   UNL     1       1.643   4.243  20.987  0.00  0.00    +0.000 A 
ATOM      5  C   UNL     1       2.176   3.008  21.349  0.00  0.00    +0.000 A 
ATOM      6  C   UNL     1       3.356   2.576  20.766  0.00  0.00    +0.000 A 
ATOM      7  C   UNL     1       3.999   3.381  19.824  0.00  0.00    +0.000 A 
ATOM      8  C   UNL     1       3.457   4.624  19.382  0.00  0.00    +0.000 A 
ATOM      9  C   UNL     1       3.984   5.478  18.365  0.00  0.00    +0.000 A 
ATOM     10  N   UNL     1       3.449   6.706  18.131  0.00  0.00    +0.000 NA
ENDROOT
BRANCH   9  11
ATOM     11  C   UNL     1       5.073   5.084  17.413  0.00  0.00    +0.000 A 
ATOM     12  C   UNL     1       4.748   4.672  16.095  0.00  0.00    +0.000 A 
ATOM     13  C   UNL     1       5.711   4.264  15.165  0.00  0.00    +0.000 A 
ATOM     14  C   UNL     1       7.051   4.338  15.488  0.00  0.00    +0.000 A 
ATOM     15  C   UNL     1       7.425   4.803  16.748  0.00  0.00    +0.000 A 
ATOM     16  C   UNL     1       6.454   5.150  17.708  0.00  0.00    +0.000 A 
ATOM     17 CL   UNL     1       7.085   5.604  19.258  0.00  0.00    +0.000 Cl
ENDBRANCH   9  11
BRANCH   1  20
ATOM     18  N   UNL     1       1.198   9.294  19.548  0.00  0.00    +0.000 N 
ATOM     19  C   UNL     1       0.866   8.819  20.886  0.00  0.00    +0.000 C 
ATOM     20  C   UNL     1       1.901   8.541  18.565  0.00  0.00    +0.000 C 
ATOM     21  O   UNL     1       2.161   9.026  17.463  0.00  0.00    +0.000 OA
BRANCH  18  22
ATOM     22  C   UNL     1       0.792  10.680  19.204  0.00  0.00    +0.000 C 
ATOM     23  C   UNL     1       1.307  11.681  20.249  0.00  0.00    +0.000 C 
BRANCH  22  25
ATOM     24  C   UNL     1      -1.260  10.133  17.778  0.00  0.00    +0.000 C 
ATOM     25  C   UNL     1      -0.732  10.828  19.025  0.00  0.00    +0.000 C 
ENDBRANCH  22  25
ENDBRANCH  18  22
ENDBRANCH   1  20
TORSDOF 4
ENDMDL
MODEL 2
REMARK VINA RESULT:      -7.9      1.186      1.692
REMARK  Name = 
REMARK  7 active torsions:
REMARK  status: ('A' for Active; 'I' for Inactive)
REMARK    1  A    between atoms: C_1  and  C_2
REMARK    2  A    between atoms: C_2  and  C_3
REMARK    3  A    between atoms: C_3  and  C_4
REMARK    4  A    between atoms: C_3  and  N_5
REMARK    5  A    between atoms: N_5  and  C_6
REMARK    6  A    between atoms: C_7  and  C_9
REMARK    7  A    between atoms: C_17  and  C_18
REMARK                            x       y       z     vdW  Elec       q    Type
REMARK                         _______ _______ _______ _____ _____    ______ ____
ROOT
ATOM      1  C   UNL     1       2.227   6.946  19.986  0.00  0.00    +0.000 A 
ATOM      2  C   UNL     1       1.694   5.856  20.644  0.00  0.00    +0.000 A 
ATOM      3  C   UNL     1       2.357   4.639  20.602  0.00  0.00    +0.000 A 
ATOM      4  C   UNL     1       1.875   3.567  21.373  0.00  0.00    +0.000 A 
ATOM      5  C   UNL     1       2.512   2.329  21.370  0.00  0.00    +0.000 A 
ATOM      6  C   UNL     1       3.663   2.155  20.618  0.00  0.00    +0.000 A 
ATOM      7  C   UNL     1       4.172   3.221  19.873  0.00  0.00    +0.000 A 
ATOM      8  C   UNL     1       3.518   4.486  19.802  0.00  0.00    +0.000 A 
ATOM      9  C   UNL     1       3.902   5.608  19.005  0.00  0.00    +0.000 A 
ATOM     10  N   UNL     1       3.274   6.808  19.130  0.00  0.00    +0.000 NA
ENDROOT
BRANCH   9  11
ATOM     11  C   UNL     1       4.929   5.556  17.914  0.00  0.00    +0.000 A 
ATOM     12  C   UNL     1       4.520   5.547  16.556  0.00  0.00    +0.000 A 
ATOM     13  C   UNL     1       5.423   5.470  15.489  0.00  0.00    +0.000 A 
ATOM     14  C   UNL     1       6.781   5.491  15.737  0.00  0.00    +0.000 A 
ATOM     15  C   UNL     1       7.233   5.570  17.052  0.00  0.00    +0.000 A 
ATOM     16  C   UNL     1       6.326   5.579  18.130  0.00  0.00    +0.000 A 
ATOM     17 CL   UNL     1       7.055   5.569  19.703  0.00  0.00    +0.000 Cl
ENDBRANCH   9  11
BRANCH   1  20
ATOM     18  N   UNL     1       1.448   9.175  18.985  0.00  0.00    +0.000 N 
ATOM     19  C   UNL     1       1.729   8.793  17.605  0.00  0.00    +0.000 C 
ATOM     20  C   UNL     1       1.657   8.342  20.121  0.00  0.00    +0.000 C 
ATOM     21  O   UNL     1       1.373   8.734  21.254  0.00  0.00    +0.000 OA
BRANCH  18  22
ATOM     22  C   UNL     1       0.875  10.525  19.208  0.00  0.00    +0.000 C 
ATOM     23  C   UNL     1      -0.576  10.599  18.708  0.00  0.00    +0.000 C 
BRANCH  22  25
ATOM     24  C   UNL     1       1.216  13.043  18.907  0.00  0.00    +0.000 C 
ATOM     25  C   UNL     1       1.720  11.646  18.569  0.00  0.00    +0.000 C 
ENDBRANCH  22  25
ENDBRANCH  18  22
ENDBRANCH   1  20
TORSDOF 4
ENDMDL
MODEL 3
REMARK VINA RESULT:      -7.9      1.193      1.622
REMARK  Name = 
REMARK  7 active torsions:
REMARK  status: ('A' for Active; 'I' for Inactive)
REMARK    1  A    between atoms: C_1  and  C_2
REMARK    2  A    between atoms: C_2  and  C_3
REMARK    3  A    between atoms: C_3  and  C_4
REMARK    4  A    between atoms: C_3  and  N_5
REMARK    5  A    between atoms: N_5  and  C_6
REMARK    6  A    between atoms: C_7  and  C_9
REMARK    7  A    between atoms: C_17  and  C_18
REMARK                            x       y       z     vdW  Elec       q    Type
REMARK                         _______ _______ _______ _____ _____    ______ ____
ROOT
ATOM      1  C   UNL     1       2.205   6.968  19.279  0.00  0.00    +0.000 A 
ATOM      2  C   UNL     1       1.382   6.020  19.852  0.00  0.00    +0.000 A 
ATOM      3  C   UNL     1       1.910   4.798  20.239  0.00  0.00    +0.000 A 
ATOM      4  C   UNL     1       1.096   3.885  20.931  0.00  0.00    +0.000 A 
ATOM      5  C   UNL     1       1.585   2.650  21.347  0.00  0.00    +0.000 A 
ATOM      6  C   UNL     1       2.909   2.322  21.103  0.00  0.00    +0.000 A 
ATOM      7  C   UNL     1       3.739   3.232  20.445  0.00  0.00    +0.000 A 
ATOM      8  C   UNL     1       3.262   4.483  19.951  0.00  0.00    +0.000 A 
ATOM      9  C   UNL     1       3.999   5.442  19.191  0.00  0.00    +0.000 A 
ATOM     10  N   UNL     1       3.472   6.660  18.896  0.00  0.00    +0.000 NA
ENDROOT
BRANCH   9  11
ATOM     11  C   UNL     1       5.339   5.179  18.571  0.00  0.00    +0.000 A 
ATOM     12  C   UNL     1       6.523   5.537  19.265  0.00  0.00    +0.000 A 
ATOM     13  C   UNL     1       7.804   5.346  18.733  0.00  0.00    +0.000 A 
ATOM     14  C   UNL     1       7.955   4.704  17.521  0.00  0.00    +0.000 A 
ATOM     15  C   UNL     1       6.824   4.271  16.832  0.00  0.00    +0.000 A 
ATOM     16  C   UNL     1       5.531   4.522  17.334  0.00  0.00    +0.000 A 
ATOM     17 CL   UNL     1       4.232   4.014  16.304  0.00  0.00    +0.000 Cl
ENDBRANCH   9  11
BRANCH   1  20
ATOM     18  N   UNL     1       1.109   9.179  19.980  0.00  0.00    +0.000 N 
ATOM     19  C   UNL     1       0.851   8.757  21.352  0.00  0.00    +0.000 C 
ATOM     20  C   UNL     1       1.744   8.380  18.986  0.00  0.00    +0.000 C 
ATOM     21  O   UNL     1       1.944   8.821  17.853  0.00  0.00    +0.000 OA
BRANCH  18  22
ATOM     22  C   UNL     1       0.699  10.556  19.608  0.00  0.00    +0.000 C 
ATOM     23  C   UNL     1       1.170  11.574  20.659  0.00  0.00    +0.000 C 
BRANCH  22  25
ATOM     24  C   UNL     1      -1.258  10.242  17.990  0.00  0.00    +0.000 C 
ATOM     25  C   UNL     1      -0.820  10.686  19.380  0.00  0.00    +0.000 C 
ENDBRANCH  22  25
ENDBRANCH  18  22
ENDBRANCH   1  20
TORSDOF 4
ENDMDL
MODEL 4
REMARK VINA RESULT:      -7.8      1.811      4.338
REMARK  Name = 
REMARK  7 active torsions:
REMARK  status: ('A' for Active; 'I' for Inactive)
REMARK    1  A    between atoms: C_1  and  C_2
REMARK    2  A    between atoms: C_2  and  C_3
REMARK    3  A    between atoms: C_3  and  C_4
REMARK    4  A    between atoms: C_3  and  N_5
REMARK    5  A    between atoms: N_5  and  C_6
REMARK    6  A    between atoms: C_7  and  C_9
REMARK    7  A    between atoms: C_17  and  C_18
REMARK                            x       y       z     vdW  Elec       q    Type
REMARK                         _______ _______ _______ _____ _____    ______ ____
ROOT
ATOM      1  C   UNL     1       2.641   7.871  18.133  0.00  0.00    +0.000 A 
ATOM      2  C   UNL     1       3.769   7.804  17.339  0.00  0.00    +0.000 A 
ATOM      3  C   UNL     1       4.348   6.573  17.074  0.00  0.00    +0.000 A 
ATOM      4  C   UNL     1       5.420   6.499  16.169  0.00  0.00    +0.000 A 
ATOM      5  C   UNL     1       6.028   5.284  15.864  0.00  0.00    +0.000 A 
ATOM      6  C   UNL     1       5.550   4.118  16.439  0.00  0.00    +0.000 A 
ATOM      7  C   UNL     1       4.464   4.172  17.316  0.00  0.00    +0.000 A 
ATOM      8  C   UNL     1       3.851   5.402  17.699  0.00  0.00    +0.000 A 
ATOM      9  C   UNL     1       2.800   5.576  18.651  0.00  0.00    +0.000 A 
ATOM     10  N   UNL     1       2.206   6.786  18.828  0.00  0.00    +0.000 NA
ENDROOT
BRANCH   9  11
ATOM     11  C   UNL     1       2.330   4.510  19.594  0.00  0.00    +0.000 A 
ATOM     12  C   UNL     1       2.642   4.598  20.975  0.00  0.00    +0.000 A 
ATOM     13  C   UNL     1       2.259   3.624  21.905  0.00  0.00    +0.000 A 
ATOM     14  C   UNL     1       1.468   2.566  21.505  0.00  0.00    +0.000 A 
ATOM     15  C   UNL     1       1.076   2.474  20.171  0.00  0.00    +0.000 A 
ATOM     16  C   UNL     1       1.516   3.416  19.220  0.00  0.00    +0.000 A 
ATOM     17 CL   UNL     1       1.027   3.095  17.588  0.00  0.00    +0.000 Cl
ENDBRANCH   9  11
BRANCH   1  20
ATOM     18  N   UNL     1       1.185   9.430  19.557  0.00  0.00    +0.000 N 
ATOM     19  C   UNL     1       1.190   8.563  20.730  0.00  0.00    +0.000 C 
ATOM     20  C   UNL     1       1.855   9.149  18.331  0.00  0.00    +0.000 C 
ATOM     21  O   UNL     1       1.818   9.947  17.393  0.00  0.00    +0.000 OA
BRANCH  18  22
ATOM     22  C   UNL     1       0.447  10.712  19.668  0.00  0.00    +0.000 C 
ATOM     23  C   UNL     1       0.547  11.285  21.090  0.00  0.00    +0.000 C 
BRANCH  22  25
ATOM     24  C   UNL     1      -1.537  11.804  18.477  0.00  0.00    +0.000 C 
ATOM     25  C   UNL     1      -1.031  10.589  19.242  0.00  0.00    +0.000 C 
ENDBRANCH  22  25
ENDBRANCH  18  22
ENDBRANCH   1  20
TORSDOF 4
ENDMDL
MODEL 5
REMARK VINA RESULT:      -7.7      1.770      4.075
REMARK  Name = 
REMARK  7 active torsions:
REMARK  status: ('A' for Active; 'I' for Inactive)
REMARK    1  A    between atoms: C_1  and  C_2
REMARK    2  A    between atoms: C_2  and  C_3
REMARK    3  A    between atoms: C_3  and  C_4
REMARK    4  A    between atoms: C_3  and  N_5
REMARK    5  A    between atoms: N_5  and  C_6
REMARK    6  A    between atoms: C_7  and  C_9
REMARK    7  A    between atoms: C_17  and  C_18
REMARK                            x       y       z     vdW  Elec       q    Type
REMARK                         _______ _______ _______ _____ _____    ______ ____
ROOT
ATOM      1  C   UNL     1       2.750   7.828  17.966  0.00  0.00    +0.000 A 
ATOM      2  C   UNL     1       4.029   7.819  17.449  0.00  0.00    +0.000 A 
ATOM      3  C   UNL     1       4.630   6.612  17.127  0.00  0.00    +0.000 A 
ATOM      4  C   UNL     1       5.882   6.617  16.489  0.00  0.00    +0.000 A 
ATOM      5  C   UNL     1       6.520   5.430  16.138  0.00  0.00    +0.000 A 
ATOM      6  C   UNL     1       5.899   4.219  16.394  0.00  0.00    +0.000 A 
ATOM      7  C   UNL     1       4.640   4.200  16.998  0.00  0.00    +0.000 A 
ATOM      8  C   UNL     1       3.978   5.389  17.426  0.00  0.00    +0.000 A 
ATOM      9  C   UNL     1       2.738   5.476  18.129  0.00  0.00    +0.000 A 
ATOM     10  N   UNL     1       2.143   6.676  18.360  0.00  0.00    +0.000 NA
ENDROOT
BRANCH   9  11
ATOM     11  C   UNL     1       2.040   4.306  18.756  0.00  0.00    +0.000 A 
ATOM     12  C   UNL     1       1.488   3.289  17.938  0.00  0.00    +0.000 A 
ATOM     13  C   UNL     1       0.799   2.185  18.455  0.00  0.00    +0.000 A 
ATOM     14  C   UNL     1       0.714   2.009  19.822  0.00  0.00    +0.000 A 
ATOM     15  C   UNL     1       1.302   2.946  20.669  0.00  0.00    +0.000 A 
ATOM     16  C   UNL     1       1.937   4.092  20.150  0.00  0.00    +0.000 A 
ATOM     17 CL   UNL     1       2.519   5.210  21.340  0.00  0.00    +0.000 Cl
ENDBRANCH   9  11
BRANCH   1  20
ATOM     18  N   UNL     1       1.289   9.362  19.412  0.00  0.00    +0.000 N 
ATOM     19  C   UNL     1       1.288   8.474  20.569  0.00  0.00    +0.000 C 
ATOM     20  C   UNL     1       1.964   9.103  18.184  0.00  0.00    +0.000 C 
ATOM     21  O   UNL     1       1.932   9.918  17.261  0.00  0.00    +0.000 OA
BRANCH  18  22
ATOM     22  C   UNL     1       0.552  10.643  19.544  0.00  0.00    +0.000 C 
ATOM     23  C   UNL     1       0.930  11.366  20.845  0.00  0.00    +0.000 C 
BRANCH  22  25
ATOM     24  C   UNL     1      -1.495  10.422  18.025  0.00  0.00    +0.000 C 
ATOM     25  C   UNL     1      -0.977  10.463  19.456  0.00  0.00    +0.000 C 
ENDBRANCH  22  25
ENDBRANCH  18  22
ENDBRANCH   1  20
TORSDOF 4
ENDMDL
MODEL 6
REMARK VINA RESULT:      -7.7      1.153      1.436
REMARK  Name = 
REMARK  7 active torsions:
REMARK  status: ('A' for Active; 'I' for Inactive)
REMARK    1  A    between atoms: C_1  and  C_2
REMARK    2  A    between atoms: C_2  and  C_3
REMARK    3  A    between atoms: C_3  and  C_4
REMARK    4  A    between atoms: C_3  and  N_5
REMARK    5  A    between atoms: N_5  and  C_6
REMARK    6  A    between atoms: C_7  and  C_9
REMARK    7  A    between atoms: C_17  and  C_18
REMARK                            x       y       z     vdW  Elec       q    Type
REMARK                         _______ _______ _______ _____ _____    ______ ____
ROOT
ATOM      1  C   UNL     1       2.312   7.079  19.147  0.00  0.00    +0.000 A 
ATOM      2  C   UNL     1       1.740   6.180  20.024  0.00  0.00    +0.000 A 
ATOM      3  C   UNL     1       2.361   4.963  20.259  0.00  0.00    +0.000 A 
ATOM      4  C   UNL     1       1.841   4.105  21.243  0.00  0.00    +0.000 A 
ATOM      5  C   UNL     1       2.436   2.877  21.520  0.00  0.00    +0.000 A 
ATOM      6  C   UNL     1       3.581   2.503  20.836  0.00  0.00    +0.000 A 
ATOM      7  C   UNL     1       4.128   3.359  19.879  0.00  0.00    +0.000 A 
ATOM      8  C   UNL     1       3.517   4.599  19.524  0.00  0.00    +0.000 A 
ATOM      9  C   UNL     1       3.941   5.503  18.502  0.00  0.00    +0.000 A 
ATOM     10  N   UNL     1       3.354   6.720  18.352  0.00  0.00    +0.000 NA
ENDROOT
BRANCH   9  11
ATOM     11  C   UNL     1       4.967   5.176  17.458  0.00  0.00    +0.000 A 
ATOM     12  C   UNL     1       6.188   5.896  17.415  0.00  0.00    +0.000 A 
ATOM     13  C   UNL     1       7.176   5.663  16.451  0.00  0.00    +0.000 A 
ATOM     14  C   UNL     1       7.021   4.634  15.545  0.00  0.00    +0.000 A 
ATOM     15  C   UNL     1       5.868   3.851  15.591  0.00  0.00    +0.000 A 
ATOM     16  C   UNL     1       4.843   4.128  16.517  0.00  0.00    +0.000 A 
ATOM     17 CL   UNL     1       3.433   3.130  16.370  0.00  0.00    +0.000 Cl
ENDBRANCH   9  11
BRANCH   1  20
ATOM     18  N   UNL     1       1.095   9.167  20.007  0.00  0.00    +0.000 N 
ATOM     19  C   UNL     1       0.828   8.615  21.331  0.00  0.00    +0.000 C 
ATOM     20  C   UNL     1       1.789   8.489  18.965  0.00  0.00    +0.000 C 
ATOM     21  O   UNL     1       1.992   9.036  17.880  0.00  0.00    +0.000 OA
BRANCH  18  22
ATOM     22  C   UNL     1       0.627  10.550  19.746  0.00  0.00    +0.000 C 
ATOM     23  C   UNL     1       1.017  11.491  20.896  0.00  0.00    +0.000 C 
BRANCH  22  25
ATOM     24  C   UNL     1      -1.262  10.348  18.032  0.00  0.00    +0.000 C 
ATOM     25  C   UNL     1      -0.891  10.628  19.482  0.00  0.00    +0.000 C 
ENDBRANCH  22  25
ENDBRANCH  18  22
ENDBRANCH   1  20
TORSDOF 4
ENDMDL
MODEL 7
REMARK VINA RESULT:      -7.7      1.593      2.167
REMARK  Name = 
REMARK  7 active torsions:
REMARK  status: ('A' for Active; 'I' for Inactive)
REMARK    1  A    between atoms: C_1  and  C_2
REMARK    2  A    between atoms: C_2  and  C_3
REMARK    3  A    between atoms: C_3  and  C_4
REMARK    4  A    between atoms: C_3  and  N_5
REMARK    5  A    between atoms: N_5  and  C_6
REMARK    6  A    between atoms: C_7  and  C_9
REMARK    7  A    between atoms: C_17  and  C_18
REMARK                            x       y       z     vdW  Elec       q    Type
REMARK                         _______ _______ _______ _____ _____    ______ ____
ROOT
ATOM      1  C   UNL     1       2.160   6.933  20.029  0.00  0.00    +0.000 A 
ATOM      2  C   UNL     1       1.651   5.869  20.746  0.00  0.00    +0.000 A 
ATOM      3  C   UNL     1       2.302   4.646  20.713  0.00  0.00    +0.000 A 
ATOM      4  C   UNL     1       1.850   3.604  21.540  0.00  0.00    +0.000 A 
ATOM      5  C   UNL     1       2.477   2.361  21.546  0.00  0.00    +0.000 A 
ATOM      6  C   UNL     1       3.588   2.152  20.747  0.00  0.00    +0.000 A 
ATOM      7  C   UNL     1       4.070   3.189  19.945  0.00  0.00    +0.000 A 
ATOM      8  C   UNL     1       3.422   4.457  19.864  0.00  0.00    +0.000 A 
ATOM      9  C   UNL     1       3.776   5.549  19.013  0.00  0.00    +0.000 A 
ATOM     10  N   UNL     1       3.164   6.758  19.129  0.00  0.00    +0.000 NA
ENDROOT
BRANCH   9  11
ATOM     11  C   UNL     1       4.749   5.453  17.877  0.00  0.00    +0.000 A 
ATOM     12  C   UNL     1       5.945   6.215  17.901  0.00  0.00    +0.000 A 
ATOM     13  C   UNL     1       6.881   6.195  16.861  0.00  0.00    +0.000 A 
ATOM     14  C   UNL     1       6.703   5.338  15.793  0.00  0.00    +0.000 A 
ATOM     15  C   UNL     1       5.578   4.517  15.758  0.00  0.00    +0.000 A 
ATOM     16  C   UNL     1       4.600   4.585  16.770  0.00  0.00    +0.000 A 
ATOM     17 CL   UNL     1       3.213   3.577  16.520  0.00  0.00    +0.000 Cl
ENDBRANCH   9  11
BRANCH   1  20
ATOM     18  N   UNL     1       1.442   9.171  19.003  0.00  0.00    +0.000 N 
ATOM     19  C   UNL     1       1.755   8.782  17.632  0.00  0.00    +0.000 C 
ATOM     20  C   UNL     1       1.608   8.337  20.146  0.00  0.00    +0.000 C 
ATOM     21  O   UNL     1       1.298   8.737  21.270  0.00  0.00    +0.000 OA
BRANCH  18  22
ATOM     22  C   UNL     1       0.884  10.530  19.208  0.00  0.00    +0.000 C 
ATOM     23  C   UNL     1      -0.562  10.616  18.694  0.00  0.00    +0.000 C 
BRANCH  22  25
ATOM     24  C   UNL     1       1.079  13.002  18.579  0.00  0.00    +0.000 C 
ATOM     25  C   UNL     1       1.747  11.634  18.565  0.00  0.00    +0.000 C 
ENDBRANCH  22  25
ENDBRANCH  18  22
ENDBRANCH   1  20
TORSDOF 4
ENDMDL
MODEL 8
REMARK VINA RESULT:      -7.7      1.090      1.150
REMARK  Name = 
REMARK  7 active torsions:
REMARK  status: ('A' for Active; 'I' for Inactive)
REMARK    1  A    between atoms: C_1  and  C_2
REMARK    2  A    between atoms: C_2  and  C_3
REMARK    3  A    between atoms: C_3  and  C_4
REMARK    4  A    between atoms: C_3  and  N_5
REMARK    5  A    between atoms: N_5  and  C_6
REMARK    6  A    between atoms: C_7  and  C_9
REMARK    7  A    between atoms: C_17  and  C_18
REMARK                            x       y       z     vdW  Elec       q    Type
REMARK                         _______ _______ _______ _____ _____    ______ ____
ROOT
ATOM      1  C   UNL     1       2.410   6.815  18.266  0.00  0.00    +0.000 A 
ATOM      2  C   UNL     1       1.667   5.807  18.846  0.00  0.00    +0.000 A 
ATOM      3  C   UNL     1       2.167   4.515  18.872  0.00  0.00    +0.000 A 
ATOM      4  C   UNL     1       1.463   3.519  19.571  0.00  0.00    +0.000 A 
ATOM      5  C   UNL     1       1.931   2.209  19.632  0.00  0.00    +0.000 A 
ATOM      6  C   UNL     1       3.131   1.884  19.021  0.00  0.00    +0.000 A 
ATOM      7  C   UNL     1       3.858   2.869  18.351  0.00  0.00    +0.000 A 
ATOM      8  C   UNL     1       3.385   4.209  18.215  0.00  0.00    +0.000 A 
ATOM      9  C   UNL     1       4.003   5.266  17.479  0.00  0.00    +0.000 A 
ATOM     10  N   UNL     1       3.525   6.538  17.539  0.00  0.00    +0.000 NA
ENDROOT
BRANCH   9  11
ATOM     11  C   UNL     1       5.137   5.075  16.516  0.00  0.00    +0.000 A 
ATOM     12  C   UNL     1       4.889   4.535  15.228  0.00  0.00    +0.000 A 
ATOM     13  C   UNL     1       5.904   4.304  14.292  0.00  0.00    +0.000 A 
ATOM     14  C   UNL     1       7.199   4.689  14.574  0.00  0.00    +0.000 A 
ATOM     15  C   UNL     1       7.481   5.288  15.801  0.00  0.00    +0.000 A 
ATOM     16  C   UNL     1       6.473   5.460  16.770  0.00  0.00    +0.000 A 
ATOM     17 CL   UNL     1       7.013   6.121  18.280  0.00  0.00    +0.000 Cl
ENDBRANCH   9  11
BRANCH   1  20
ATOM     18  N   UNL     1       1.464   8.833  19.536  0.00  0.00    +0.000 N 
ATOM     19  C   UNL     1       1.244   8.103  20.779  0.00  0.00    +0.000 C 
ATOM     20  C   UNL     1       2.013   8.274  18.346  0.00  0.00    +0.000 C 
ATOM     21  O   UNL     1       2.186   8.967  17.342  0.00  0.00    +0.000 OA
BRANCH  18  22
ATOM     22  C   UNL     1       1.112  10.275  19.528  0.00  0.00    +0.000 C 
ATOM     23  C   UNL     1       1.030  10.830  20.959  0.00  0.00    +0.000 C 
BRANCH  22  25
ATOM     24  C   UNL     1      -0.845  11.883  19.168  0.00  0.00    +0.000 C 
ATOM     25  C   UNL     1      -0.196  10.566  18.764  0.00  0.00    +0.000 C 
ENDBRANCH  22  25
ENDBRANCH  18  22
ENDBRANCH   1  20
TORSDOF 4
ENDMDL
MODEL 9
REMARK VINA RESULT:      -7.7      0.827      1.044
REMARK  Name = 
REMARK  7 active torsions:
REMARK  status: ('A' for Active; 'I' for Inactive)
REMARK    1  A    between atoms: C_1  and  C_2
REMARK    2  A    between atoms: C_2  and  C_3
REMARK    3  A    between atoms: C_3  and  C_4
REMARK    4  A    between atoms: C_3  and  N_5
REMARK    5  A    between atoms: N_5  and  C_6
REMARK    6  A    between atoms: C_7  and  C_9
REMARK    7  A    between atoms: C_17  and  C_18
REMARK                            x       y       z     vdW  Elec       q    Type
REMARK                         _______ _______ _______ _____ _____    ______ ____
ROOT
ATOM      1  C   UNL     1       2.523   7.038  18.621  0.00  0.00    +0.000 A 
ATOM      2  C   UNL     1       2.012   6.142  19.537  0.00  0.00    +0.000 A 
ATOM      3  C   UNL     1       2.683   4.952  19.779  0.00  0.00    +0.000 A 
ATOM      4  C   UNL     1       2.225   4.101  20.799  0.00  0.00    +0.000 A 
ATOM      5  C   UNL     1       2.870   2.901  21.084  0.00  0.00    +0.000 A 
ATOM      6  C   UNL     1       4.005   2.550  20.371  0.00  0.00    +0.000 A 
ATOM      7  C   UNL     1       4.490   3.401  19.377  0.00  0.00    +0.000 A 
ATOM      8  C   UNL     1       3.826   4.610  19.014  0.00  0.00    +0.000 A 
ATOM      9  C   UNL     1       4.185   5.503  17.958  0.00  0.00    +0.000 A 
ATOM     10  N   UNL     1       3.552   6.696  17.800  0.00  0.00    +0.000 NA
ENDROOT
BRANCH   9  11
ATOM     11  C   UNL     1       5.188   5.187  16.889  0.00  0.00    +0.000 A 
ATOM     12  C   UNL     1       4.774   4.530  15.701  0.00  0.00    +0.000 A 
ATOM     13  C   UNL     1       5.661   4.180  14.677  0.00  0.00    +0.000 A 
ATOM     14  C   UNL     1       6.987   4.554  14.759  0.00  0.00    +0.000 A 
ATOM     15  C   UNL     1       7.428   5.263  15.875  0.00  0.00    +0.000 A 
ATOM     16  C   UNL     1       6.551   5.557  16.938  0.00  0.00    +0.000 A 
ATOM     17 CL   UNL     1       7.284   6.348  18.296  0.00  0.00    +0.000 Cl
ENDBRANCH   9  11
BRANCH   1  20
ATOM     18  N   UNL     1       1.301   9.121  19.485  0.00  0.00    +0.000 N 
ATOM     19  C   UNL     1       1.138   8.611  20.842  0.00  0.00    +0.000 C 
ATOM     20  C   UNL     1       1.947   8.424  18.424  0.00  0.00    +0.000 C 
ATOM     21  O   UNL     1       2.061   8.936  17.309  0.00  0.00    +0.000 OA
BRANCH  18  22
ATOM     22  C   UNL     1       0.774  10.480  19.207  0.00  0.00    +0.000 C 
ATOM     23  C   UNL     1       1.907  11.518  19.192  0.00  0.00    +0.000 C 
BRANCH  22  25
ATOM     24  C   UNL     1       0.058  12.106  21.048  0.00  0.00    +0.000 C 
ATOM     25  C   UNL     1      -0.331  10.906  20.195  0.00  0.00    +0.000 C 
ENDBRANCH  22  25
ENDBRANCH  18  22
ENDBRANCH   1  20
TORSDOF 4
ENDMDL
