MODEL 1
REMARK VINA RESULT:      -8.1      0.000      0.000
REMARK  Name = 
REMARK  5 active torsions:
REMARK  status: ('A' for Active; 'I' for Inactive)
REMARK    1  A    between atoms: C_1  and  C_2
REMARK    2  A    between atoms: C_2  and  C_4
REMARK    3  A    between atoms: C_9  and  N_10
REMARK    4  A    between atoms: N_10  and  S_11
REMARK    5  A    between atoms: S_11  and  C_14
REMARK                            x       y       z     vdW  Elec       q    Type
REMARK                         _______ _______ _______ _____ _____    ______ ____
ROOT
ATOM      1  S   UNL     1       3.347   4.193  17.406  0.00  0.00    +0.000 S 
ATOM      2  O   UNL     1       3.494   5.629  17.499  0.00  0.00    +0.000 OA
ATOM      3  O   UNL     1       2.457   3.617  16.419  0.00  0.00    +0.000 OA
ENDROOT
BRANCH   1   4
ATOM      4  C   UNL     1       2.829   3.572  18.963  0.00  0.00    +0.000 A 
ATOM      5  C   UNL     1       1.558   3.923  19.480  0.00  0.00    +0.000 A 
ATOM      6  C   UNL     1       1.108   3.535  20.766  0.00  0.00    +0.000 A 
ATOM      7  C   UNL     1       1.892   2.774  21.649  0.00  0.00    +0.000 A 
ATOM      8  C   UNL     1       3.158   2.410  21.152  0.00  0.00    +0.000 A 
ATOM      9  N   UNL     1       4.112   1.686  21.747  0.00  0.00    +0.000 NA
ATOM     10  O   UNL     1       5.154   1.620  20.841  0.00  0.00    +0.000 OA
ATOM     11  N   UNL     1       4.852   2.275  19.663  0.00  0.00    +0.000 NA
ATOM     12  C   UNL     1       3.630   2.800  19.822  0.00  0.00    +0.000 A 
ENDBRANCH   1   4
BRANCH   1  13
ATOM     13  N   UNL     1       4.856   3.475  17.149  0.00  0.00    +0.000 N 
ATOM     14  H   UNL     1       5.359   3.320  18.033  0.00  0.00    +0.000 HD
BRANCH  13  20
ATOM     15  C   UNL     1       6.796   4.755  16.251  0.00  0.00    +0.000 A 
ATOM     16  C   UNL     1       7.548   5.156  15.139  0.00  0.00    +0.000 A 
ATOM     17  C   UNL     1       7.154   4.795  13.852  0.00  0.00    +0.000 A 
ATOM     18  C   UNL     1       6.012   4.021  13.666  0.00  0.00    +0.000 A 
ATOM     19  C   UNL     1       5.276   3.588  14.768  0.00  0.00    +0.000 A 
ATOM     20  C   UNL     1       5.663   3.939  16.065  0.00  0.00    +0.000 A 
BRANCH  15  22
ATOM     21  C   UNL     1       7.375   6.698  17.831  0.00  0.00    +0.000 C 
ATOM     22  C   UNL     1       7.192   5.215  17.609  0.00  0.00    +0.000 C 
ATOM     23  O   UNL     1       7.329   4.401  18.519  0.00  0.00    +0.000 OA
ENDBRANCH  15  22
ENDBRANCH  13  20
ENDBRANCH   1  13
TORSDOF 4
ENDMDL
MODEL 2
REMARK VINA RESULT:      -7.9      2.350      6.146
REMARK  Name = 
REMARK  5 active torsions:
REMARK  status: ('A' for Active; 'I' for Inactive)
REMARK    1  A    between atoms: C_1  and  C_2
REMARK    2  A    between atoms: C_2  and  C_4
REMARK    3  A    between atoms: C_9  and  N_10
REMARK    4  A    between atoms: N_10  and  S_11
REMARK    5  A    between atoms: S_11  and  C_14
REMARK                            x       y       z     vdW  Elec       q    Type
REMARK                         _______ _______ _______ _____ _____    ______ ____
ROOT
ATOM      1  S   UNL     1       4.067   3.271  18.025  0.00  0.00    +0.000 S 
ATOM      2  O   UNL     1       4.602   3.498  19.349  0.00  0.00    +0.000 OA
ATOM      3  O   UNL     1       3.815   1.920  17.567  0.00  0.00    +0.000 OA
ENDROOT
BRANCH   1   4
ATOM      4  C   UNL     1       5.140   4.002  16.844  0.00  0.00    +0.000 A 
ATOM      5  C   UNL     1       5.279   3.425  15.559  0.00  0.00    +0.000 A 
ATOM      6  C   UNL     1       6.191   3.905  14.586  0.00  0.00    +0.000 A 
ATOM      7  C   UNL     1       7.048   4.994  14.819  0.00  0.00    +0.000 A 
ATOM      8  C   UNL     1       6.922   5.584  16.090  0.00  0.00    +0.000 A 
ATOM      9  N   UNL     1       7.584   6.631  16.594  0.00  0.00    +0.000 NA
ATOM     10  O   UNL     1       7.092   6.807  17.874  0.00  0.00    +0.000 OA
ATOM     11  N   UNL     1       6.099   5.894  18.172  0.00  0.00    +0.000 NA
ATOM     12  C   UNL     1       5.978   5.101  17.099  0.00  0.00    +0.000 A 
ENDBRANCH   1   4
BRANCH   1  13
ATOM     13  N   UNL     1       2.610   4.106  17.841  0.00  0.00    +0.000 N 
ATOM     14  H   UNL     1       2.383   4.263  16.851  0.00  0.00    +0.000 HD
BRANCH  13  20
ATOM     15  C   UNL     1       1.761   5.050  19.985  0.00  0.00    +0.000 A 
ATOM     16  C   UNL     1       1.536   6.178  20.785  0.00  0.00    +0.000 A 
ATOM     17  C   UNL     1       1.829   7.454  20.308  0.00  0.00    +0.000 A 
ATOM     18  C   UNL     1       2.360   7.612  19.030  0.00  0.00    +0.000 A 
ATOM     19  C   UNL     1       2.619   6.493  18.239  0.00  0.00    +0.000 A 
ATOM     20  C   UNL     1       2.334   5.208  18.709  0.00  0.00    +0.000 A 
BRANCH  15  22
ATOM     21  C   UNL     1       1.983   3.225  21.782  0.00  0.00    +0.000 C 
ATOM     22  C   UNL     1       1.370   3.706  20.487  0.00  0.00    +0.000 C 
ATOM     23  O   UNL     1       0.546   3.034  19.871  0.00  0.00    +0.000 OA
ENDBRANCH  15  22
ENDBRANCH  13  20
ENDBRANCH   1  13
TORSDOF 4
ENDMDL
MODEL 3
REMARK VINA RESULT:      -7.9      1.236      2.595
REMARK  Name = 
REMARK  5 active torsions:
REMARK  status: ('A' for Active; 'I' for Inactive)
REMARK    1  A    between atoms: C_1  and  C_2
REMARK    2  A    between atoms: C_2  and  C_4
REMARK    3  A    between atoms: C_9  and  N_10
REMARK    4  A    between atoms: N_10  and  S_11
REMARK    5  A    between atoms: S_11  and  C_14
REMARK                            x       y       z     vdW  Elec       q    Type
REMARK                         _______ _______ _______ _____ _____    ______ ____
ROOT
ATOM      1  S   UNL     1       3.537   4.449  17.592  0.00  0.00    +0.000 S 
ATOM      2  O   UNL     1       3.393   5.887  17.659  0.00  0.00    +0.000 OA
ATOM      3  O   UNL     1       2.966   3.713  16.484  0.00  0.00    +0.000 OA
ENDROOT
BRANCH   1   4
ATOM      4  C   UNL     1       2.870   3.742  19.054  0.00  0.00    +0.000 A 
ATOM      5  C   UNL     1       1.561   4.082  19.473  0.00  0.00    +0.000 A 
ATOM      6  C   UNL     1       0.990   3.623  20.686  0.00  0.00    +0.000 A 
ATOM      7  C   UNL     1       1.680   2.796  21.587  0.00  0.00    +0.000 A 
ATOM      8  C   UNL     1       2.982   2.443  21.186  0.00  0.00    +0.000 A 
ATOM      9  N   UNL     1       3.869   1.667  21.819  0.00  0.00    +0.000 NA
ATOM     10  O   UNL     1       4.990   1.639  21.009  0.00  0.00    +0.000 OA
ATOM     11  N   UNL     1       4.805   2.370  19.852  0.00  0.00    +0.000 NA
ATOM     12  C   UNL     1       3.579   2.905  19.932  0.00  0.00    +0.000 A 
ENDBRANCH   1   4
BRANCH   1  13
ATOM     13  N   UNL     1       5.175   4.032  17.634  0.00  0.00    +0.000 N 
ATOM     14  H   UNL     1       5.334   3.168  18.170  0.00  0.00    +0.000 HD
BRANCH  13  20
ATOM     15  C   UNL     1       6.569   5.930  16.821  0.00  0.00    +0.000 A 
ATOM     16  C   UNL     1       7.509   6.928  17.108  0.00  0.00    +0.000 A 
ATOM     17  C   UNL     1       8.059   7.035  18.384  0.00  0.00    +0.000 A 
ATOM     18  C   UNL     1       7.665   6.153  19.387  0.00  0.00    +0.000 A 
ATOM     19  C   UNL     1       6.704   5.178  19.119  0.00  0.00    +0.000 A 
ATOM     20  C   UNL     1       6.142   5.063  17.845  0.00  0.00    +0.000 A 
BRANCH  15  22
ATOM     21  C   UNL     1       6.544   4.618  14.610  0.00  0.00    +0.000 C 
ATOM     22  C   UNL     1       6.054   5.786  15.433  0.00  0.00    +0.000 C 
ATOM     23  O   UNL     1       5.228   6.586  14.998  0.00  0.00    +0.000 OA
ENDBRANCH  15  22
ENDBRANCH  13  20
ENDBRANCH   1  13
TORSDOF 4
ENDMDL
MODEL 4
REMARK VINA RESULT:      -7.7      2.280      5.826
REMARK  Name = 
REMARK  5 active torsions:
REMARK  status: ('A' for Active; 'I' for Inactive)
REMARK    1  A    between atoms: C_1  and  C_2
REMARK    2  A    between atoms: C_2  and  C_4
REMARK    3  A    between atoms: C_9  and  N_10
REMARK    4  A    between atoms: N_10  and  S_11
REMARK    5  A    between atoms: S_11  and  C_14
REMARK                            x       y       z     vdW  Elec       q    Type
REMARK                         _______ _______ _______ _____ _____    ______ ____
ROOT
ATOM      1  S   UNL     1       3.929   2.981  18.045  0.00  0.00    +0.000 S 
ATOM      2  O   UNL     1       4.177   2.650  19.431  0.00  0.00    +0.000 OA
ATOM      3  O   UNL     1       3.874   1.932  17.048  0.00  0.00    +0.000 OA
ENDROOT
BRANCH   1   4
ATOM      4  C   UNL     1       5.152   4.116  17.503  0.00  0.00    +0.000 A 
ATOM      5  C   UNL     1       5.317   4.376  16.121  0.00  0.00    +0.000 A 
ATOM      6  C   UNL     1       6.339   5.209  15.603  0.00  0.00    +0.000 A 
ATOM      7  C   UNL     1       7.290   5.844  16.420  0.00  0.00    +0.000 A 
ATOM      8  C   UNL     1       7.140   5.602  17.799  0.00  0.00    +0.000 A 
ATOM      9  N   UNL     1       7.875   6.071  18.813  0.00  0.00    +0.000 NA
ATOM     10  O   UNL     1       7.318   5.536  19.959  0.00  0.00    +0.000 OA
ATOM     11  N   UNL     1       6.216   4.754  19.678  0.00  0.00    +0.000 NA
ATOM     12  C   UNL     1       6.083   4.749  18.344  0.00  0.00    +0.000 A 
ENDBRANCH   1   4
BRANCH   1  13
ATOM     13  N   UNL     1       2.476   3.832  17.908  0.00  0.00    +0.000 N 
ATOM     14  H   UNL     1       2.200   3.960  16.925  0.00  0.00    +0.000 HD
BRANCH  13  20
ATOM     15  C   UNL     1       1.692   4.869  20.034  0.00  0.00    +0.000 A 
ATOM     16  C   UNL     1       1.529   6.025  20.807  0.00  0.00    +0.000 A 
ATOM     17  C   UNL     1       1.878   7.274  20.296  0.00  0.00    +0.000 A 
ATOM     18  C   UNL     1       2.405   7.375  19.010  0.00  0.00    +0.000 A 
ATOM     19  C   UNL     1       2.603   6.226  18.246  0.00  0.00    +0.000 A 
ATOM     20  C   UNL     1       2.261   4.968  18.749  0.00  0.00    +0.000 A 
BRANCH  15  22
ATOM     21  C   UNL     1       1.790   3.111  21.907  0.00  0.00    +0.000 C 
ATOM     22  C   UNL     1       1.242   3.558  20.572  0.00  0.00    +0.000 C 
ATOM     23  O   UNL     1       0.422   2.886  19.950  0.00  0.00    +0.000 OA
ENDBRANCH  15  22
ENDBRANCH  13  20
ENDBRANCH   1  13
TORSDOF 4
ENDMDL
MODEL 5
REMARK VINA RESULT:      -7.6      2.339      6.078
REMARK  Name = 
REMARK  5 active torsions:
REMARK  status: ('A' for Active; 'I' for Inactive)
REMARK    1  A    between atoms: C_1  and  C_2
REMARK    2  A    between atoms: C_2  and  C_4
REMARK    3  A    between atoms: C_9  and  N_10
REMARK    4  A    between atoms: N_10  and  S_11
REMARK    5  A    between atoms: S_11  and  C_14
REMARK                            x       y       z     vdW  Elec       q    Type
REMARK                         _______ _______ _______ _____ _____    ______ ____
ROOT
ATOM      1  S   UNL     1       4.093   3.049  18.190  0.00  0.00    +0.000 S 
ATOM      2  O   UNL     1       4.106   2.618  19.571  0.00  0.00    +0.000 OA
ATOM      3  O   UNL     1       4.174   2.071  17.124  0.00  0.00    +0.000 OA
ENDROOT
BRANCH   1   4
ATOM      4  C   UNL     1       5.415   4.174  17.932  0.00  0.00    +0.000 A 
ATOM      5  C   UNL     1       5.969   4.881  19.027  0.00  0.00    +0.000 A 
ATOM      6  C   UNL     1       6.975   5.869  18.885  0.00  0.00    +0.000 A 
ATOM      7  C   UNL     1       7.504   6.243  17.638  0.00  0.00    +0.000 A 
ATOM      8  C   UNL     1       6.969   5.548  16.537  0.00  0.00    +0.000 A 
ATOM      9  N   UNL     1       7.278   5.672  15.241  0.00  0.00    +0.000 NA
ATOM     10  O   UNL     1       6.471   4.769  14.575  0.00  0.00    +0.000 OA
ATOM     11  N   UNL     1       5.675   4.051  15.446  0.00  0.00    +0.000 NA
ATOM     12  C   UNL     1       5.936   4.520  16.673  0.00  0.00    +0.000 A 
ENDBRANCH   1   4
BRANCH   1  13
ATOM     13  N   UNL     1       2.703   3.959  17.883  0.00  0.00    +0.000 N 
ATOM     14  H   UNL     1       2.597   4.167  16.881  0.00  0.00    +0.000 HD
BRANCH  13  20
ATOM     15  C   UNL     1       1.669   4.854  19.966  0.00  0.00    +0.000 A 
ATOM     16  C   UNL     1       1.403   5.958  20.785  0.00  0.00    +0.000 A 
ATOM     17  C   UNL     1       1.789   7.239  20.395  0.00  0.00    +0.000 A 
ATOM     18  C   UNL     1       2.455   7.425  19.186  0.00  0.00    +0.000 A 
ATOM     19  C   UNL     1       2.756   6.327  18.380  0.00  0.00    +0.000 A 
ATOM     20  C   UNL     1       2.378   5.037  18.763  0.00  0.00    +0.000 A 
BRANCH  15  22
ATOM     21  C   UNL     1       1.523   3.012  21.753  0.00  0.00    +0.000 C 
ATOM     22  C   UNL     1       1.180   3.508  20.368  0.00  0.00    +0.000 C 
ATOM     23  O   UNL     1       0.492   2.847  19.594  0.00  0.00    +0.000 OA
ENDBRANCH  15  22
ENDBRANCH  13  20
ENDBRANCH   1  13
TORSDOF 4
ENDMDL
MODEL 6
REMARK VINA RESULT:      -7.5      3.571      4.658
REMARK  Name = 
REMARK  5 active torsions:
REMARK  status: ('A' for Active; 'I' for Inactive)
REMARK    1  A    between atoms: C_1  and  C_2
REMARK    2  A    between atoms: C_2  and  C_4
REMARK    3  A    between atoms: C_9  and  N_10
REMARK    4  A    between atoms: N_10  and  S_11
REMARK    5  A    between atoms: S_11  and  C_14
REMARK                            x       y       z     vdW  Elec       q    Type
REMARK                         _______ _______ _______ _____ _____    ______ ____
ROOT
ATOM      1  S   UNL     1       3.158   5.783  18.671  0.00  0.00    +0.000 S 
ATOM      2  O   UNL     1       2.265   5.103  17.759  0.00  0.00    +0.000 OA
ATOM      3  O   UNL     1       3.767   5.058  19.766  0.00  0.00    +0.000 OA
ENDROOT
BRANCH   1   4
ATOM      4  C   UNL     1       2.311   7.144  19.387  0.00  0.00    +0.000 A 
ATOM      5  C   UNL     1       1.755   7.030  20.684  0.00  0.00    +0.000 A 
ATOM      6  C   UNL     1       0.982   8.052  21.290  0.00  0.00    +0.000 A 
ATOM      7  C   UNL     1       0.691   9.267  20.649  0.00  0.00    +0.000 A 
ATOM      8  C   UNL     1       1.239   9.402  19.360  0.00  0.00    +0.000 A 
ATOM      9  N   UNL     1       1.147  10.436  18.517  0.00  0.00    +0.000 NA
ATOM     10  O   UNL     1       1.857  10.067  17.389  0.00  0.00    +0.000 OA
ATOM     11  N   UNL     1       2.423   8.814  17.526  0.00  0.00    +0.000 NA
ATOM     12  C   UNL     1       2.045   8.356  18.727  0.00  0.00    +0.000 A 
ENDBRANCH   1   4
BRANCH   1  13
ATOM     13  N   UNL     1       4.432   6.487  17.812  0.00  0.00    +0.000 N 
ATOM     14  H   UNL     1       4.140   7.353  17.339  0.00  0.00    +0.000 HD
BRANCH  13  20
ATOM     15  C   UNL     1       6.616   5.346  17.445  0.00  0.00    +0.000 A 
ATOM     16  C   UNL     1       7.399   4.495  16.654  0.00  0.00    +0.000 A 
ATOM     17  C   UNL     1       6.900   3.984  15.457  0.00  0.00    +0.000 A 
ATOM     18  C   UNL     1       5.609   4.310  15.047  0.00  0.00    +0.000 A 
ATOM     19  C   UNL     1       4.811   5.128  15.845  0.00  0.00    +0.000 A 
ATOM     20  C   UNL     1       5.297   5.643  17.050  0.00  0.00    +0.000 A 
BRANCH  15  22
ATOM     21  C   UNL     1       8.082   7.155  18.534  0.00  0.00    +0.000 C 
ATOM     22  C   UNL     1       7.196   5.939  18.679  0.00  0.00    +0.000 C 
ATOM     23  O   UNL     1       6.925   5.461  19.778  0.00  0.00    +0.000 OA
ENDBRANCH  15  22
ENDBRANCH  13  20
ENDBRANCH   1  13
TORSDOF 4
ENDMDL
MODEL 7
REMARK VINA RESULT:      -7.5      1.410      2.725
REMARK  Name = 
REMARK  5 active torsions:
REMARK  status: ('A' for Active; 'I' for Inactive)
REMARK    1  A    between atoms: C_1  and  C_2
REMARK    2  A    between atoms: C_2  and  C_4
REMARK    3  A    between atoms: C_9  and  N_10
REMARK    4  A    between atoms: N_10  and  S_11
REMARK    5  A    between atoms: S_11  and  C_14
REMARK                            x       y       z     vdW  Elec       q    Type
REMARK                         _______ _______ _______ _____ _____    ______ ____
ROOT
ATOM      1  S   UNL     1       3.136   3.706  17.383  0.00  0.00    +0.000 S 
ATOM      2  O   UNL     1       1.977   3.684  16.519  0.00  0.00    +0.000 OA
ATOM      3  O   UNL     1       4.311   2.932  17.042  0.00  0.00    +0.000 OA
ENDROOT
BRANCH   1   4
ATOM      4  C   UNL     1       2.656   3.195  18.992  0.00  0.00    +0.000 A 
ATOM      5  C   UNL     1       1.363   3.507  19.480  0.00  0.00    +0.000 A 
ATOM      6  C   UNL     1       0.937   3.208  20.797  0.00  0.00    +0.000 A 
ATOM      7  C   UNL     1       1.768   2.582  21.742  0.00  0.00    +0.000 A 
ATOM      8  C   UNL     1       3.056   2.259  21.275  0.00  0.00    +0.000 A 
ATOM      9  N   UNL     1       4.054   1.656  21.929  0.00  0.00    +0.000 NA
ATOM     10  O   UNL     1       5.100   1.577  21.029  0.00  0.00    +0.000 OA
ATOM     11  N   UNL     1       4.758   2.102  19.798  0.00  0.00    +0.000 NA
ATOM     12  C   UNL     1       3.504   2.557  19.914  0.00  0.00    +0.000 A 
ENDBRANCH   1   4
BRANCH   1  13
ATOM     13  N   UNL     1       3.669   5.297  17.590  0.00  0.00    +0.000 N 
ATOM     14  H   UNL     1       3.246   5.933  16.902  0.00  0.00    +0.000 HD
BRANCH  13  20
ATOM     15  C   UNL     1       5.983   5.851  16.849  0.00  0.00    +0.000 A 
ATOM     16  C   UNL     1       7.321   6.082  17.192  0.00  0.00    +0.000 A 
ATOM     17  C   UNL     1       7.748   5.944  18.512  0.00  0.00    +0.000 A 
ATOM     18  C   UNL     1       6.836   5.587  19.502  0.00  0.00    +0.000 A 
ATOM     19  C   UNL     1       5.495   5.389  19.177  0.00  0.00    +0.000 A 
ATOM     20  C   UNL     1       5.054   5.529  17.858  0.00  0.00    +0.000 A 
BRANCH  15  22
ATOM     21  C   UNL     1       5.838   4.736  14.538  0.00  0.00    +0.000 C 
ATOM     22  C   UNL     1       5.567   5.930  15.424  0.00  0.00    +0.000 C 
ATOM     23  O   UNL     1       4.991   6.931  15.005  0.00  0.00    +0.000 OA
ENDBRANCH  15  22
ENDBRANCH  13  20
ENDBRANCH   1  13
TORSDOF 4
ENDMDL
MODEL 8
REMARK VINA RESULT:      -7.4      2.074      5.996
REMARK  Name = 
REMARK  5 active torsions:
REMARK  status: ('A' for Active; 'I' for Inactive)
REMARK    1  A    between atoms: C_1  and  C_2
REMARK    2  A    between atoms: C_2  and  C_4
REMARK    3  A    between atoms: C_9  and  N_10
REMARK    4  A    between atoms: N_10  and  S_11
REMARK    5  A    between atoms: S_11  and  C_14
REMARK                            x       y       z     vdW  Elec       q    Type
REMARK                         _______ _______ _______ _____ _____    ______ ____
ROOT
ATOM      1  S   UNL     1       3.418   3.196  17.647  0.00  0.00    +0.000 S 
ATOM      2  O   UNL     1       3.498   1.752  17.677  0.00  0.00    +0.000 OA
ATOM      3  O   UNL     1       2.210   3.846  17.184  0.00  0.00    +0.000 OA
ENDROOT
BRANCH   1   4
ATOM      4  C   UNL     1       4.726   3.818  16.657  0.00  0.00    +0.000 A 
ATOM      5  C   UNL     1       4.566   3.924  15.254  0.00  0.00    +0.000 A 
ATOM      6  C   UNL     1       5.606   4.331  14.382  0.00  0.00    +0.000 A 
ATOM      7  C   UNL     1       6.895   4.655  14.835  0.00  0.00    +0.000 A 
ATOM      8  C   UNL     1       7.074   4.561  16.228  0.00  0.00    +0.000 A 
ATOM      9  N   UNL     1       8.172   4.814  16.948  0.00  0.00    +0.000 NA
ATOM     10  O   UNL     1       7.824   4.568  18.263  0.00  0.00    +0.000 OA
ATOM     11  N   UNL     1       6.502   4.188  18.382  0.00  0.00    +0.000 NA
ATOM     12  C   UNL     1       6.004   4.149  17.139  0.00  0.00    +0.000 A 
ENDBRANCH   1   4
BRANCH   1  13
ATOM     13  N   UNL     1       3.723   3.821  19.187  0.00  0.00    +0.000 N 
ATOM     14  H   UNL     1       3.812   3.076  19.891  0.00  0.00    +0.000 HD
BRANCH  13  20
ATOM     15  C   UNL     1       1.987   4.923  20.594  0.00  0.00    +0.000 A 
ATOM     16  C   UNL     1       1.333   6.102  20.976  0.00  0.00    +0.000 A 
ATOM     17  C   UNL     1       1.642   7.314  20.360  0.00  0.00    +0.000 A 
ATOM     18  C   UNL     1       2.616   7.359  19.365  0.00  0.00    +0.000 A 
ATOM     19  C   UNL     1       3.296   6.197  19.003  0.00  0.00    +0.000 A 
ATOM     20  C   UNL     1       2.999   4.977  19.617  0.00  0.00    +0.000 A 
BRANCH  15  22
ATOM     21  C   UNL     1       0.638   2.741  20.444  0.00  0.00    +0.000 C 
ATOM     22  C   UNL     1       1.587   3.631  21.212  0.00  0.00    +0.000 C 
ATOM     23  O   UNL     1       2.052   3.299  22.300  0.00  0.00    +0.000 OA
ENDBRANCH  15  22
ENDBRANCH  13  20
ENDBRANCH   1  13
TORSDOF 4
ENDMDL
MODEL 9
REMARK VINA RESULT:      -7.4      3.869      5.185
REMARK  Name = 
REMARK  5 active torsions:
REMARK  status: ('A' for Active; 'I' for Inactive)
REMARK    1  A    between atoms: C_1  and  C_2
REMARK    2  A    between atoms: C_2  and  C_4
REMARK    3  A    between atoms: C_9  and  N_10
REMARK    4  A    between atoms: N_10  and  S_11
REMARK    5  A    between atoms: S_11  and  C_14
REMARK                            x       y       z     vdW  Elec       q    Type
REMARK                         _______ _______ _______ _____ _____    ______ ____
ROOT
ATOM      1  S   UNL     1       2.449   5.696  19.532  0.00  0.00    +0.000 S 
ATOM      2  O   UNL     1       1.731   5.208  18.375  0.00  0.00    +0.000 OA
ATOM      3  O   UNL     1       2.435   4.939  20.766  0.00  0.00    +0.000 OA
ENDROOT
BRANCH   1   4
ATOM      4  C   UNL     1       1.864   7.302  19.929  0.00  0.00    +0.000 A 
ATOM      5  C   UNL     1       1.256   7.546  21.185  0.00  0.00    +0.000 A 
ATOM      6  C   UNL     1       0.680   8.791  21.541  0.00  0.00    +0.000 A 
ATOM      7  C   UNL     1       0.654   9.893  20.671  0.00  0.00    +0.000 A 
ATOM      8  C   UNL     1       1.258   9.673  19.419  0.00  0.00    +0.000 A 
ATOM      9  N   UNL     1       1.397  10.525  18.397  0.00  0.00    +0.000 NA
ATOM     10  O   UNL     1       2.055   9.820  17.406  0.00  0.00    +0.000 OA
ATOM     11  N   UNL     1       2.359   8.534  17.807  0.00  0.00    +0.000 NA
ATOM     12  C   UNL     1       1.862   8.393  19.043  0.00  0.00    +0.000 A 
ENDBRANCH   1   4
BRANCH   1  13
ATOM     13  N   UNL     1       4.078   5.927  19.144  0.00  0.00    +0.000 N 
ATOM     14  H   UNL     1       4.412   6.854  19.438  0.00  0.00    +0.000 HD
BRANCH  13  20
ATOM     15  C   UNL     1       4.745   4.131  17.552  0.00  0.00    +0.000 A 
ATOM     16  C   UNL     1       5.195   3.778  16.273  0.00  0.00    +0.000 A 
ATOM     17  C   UNL     1       5.498   4.761  15.333  0.00  0.00    +0.000 A 
ATOM     18  C   UNL     1       5.342   6.106  15.660  0.00  0.00    +0.000 A 
ATOM     19  C   UNL     1       4.862   6.465  16.919  0.00  0.00    +0.000 A 
ATOM     20  C   UNL     1       4.550   5.489  17.869  0.00  0.00    +0.000 A 
BRANCH  15  22
ATOM     21  C   UNL     1       3.496   1.989  18.231  0.00  0.00    +0.000 C 
ATOM     22  C   UNL     1       4.502   3.067  18.562  0.00  0.00    +0.000 C 
ATOM     23  O   UNL     1       5.133   3.063  19.617  0.00  0.00    +0.000 OA
ENDBRANCH  15  22
ENDBRANCH  13  20
ENDBRANCH   1  13
TORSDOF 4
ENDMDL
