MODEL 1
REMARK VINA RESULT:      -8.3      0.000      0.000
REMARK  Name = 
REMARK  5 active torsions:
REMARK  status: ('A' for Active; 'I' for Inactive)
REMARK    1  A    between atoms: S_2  and  C_4
REMARK    2  A    between atoms: S_2  and  N_11
REMARK    3  A    between atoms: N_14  and  C_15
REMARK    4  A    between atoms: C_23  and  N_24
REMARK    5  A    between atoms: N_24  and  C_25
REMARK                            x       y       z     vdW  Elec       q    Type
REMARK                         _______ _______ _______ _____ _____    ______ ____
ROOT
ATOM      1  N   UNL     1       0.213   9.782  20.357  0.00  0.00    +0.000 N 
ATOM      2  N   UNL     1      -0.702  10.459  19.620  0.00  0.00    +0.000 NA
ATOM      3  C   UNL     1      -0.405  10.175  18.354  0.00  0.00    +0.000 A 
ATOM      4  N   UNL     1      -1.135  10.496  17.261  0.00  0.00    +0.000 N 
ATOM      5  C   UNL     1       0.792   9.446  18.268  0.00  0.00    +0.000 A 
ATOM      6  C   UNL     1       1.118   9.089  19.567  0.00  0.00    +0.000 A 
ATOM      7  H   UNL     1      -0.729  10.385  16.335  0.00  0.00    +0.000 HD
ENDROOT
BRANCH   4   8
ATOM      8  C   UNL     1      -2.513  10.830  17.188  0.00  0.00    +0.000 A 
ATOM      9  C   UNL     1      -3.190  11.400  18.278  0.00  0.00    +0.000 A 
ATOM     10  C   UNL     1      -4.511  11.835  18.177  0.00  0.00    +0.000 A 
ATOM     11  C   UNL     1      -5.193  11.697  16.975  0.00  0.00    +0.000 A 
ATOM     12  C   UNL     1      -4.560  11.105  15.884  0.00  0.00    +0.000 A 
ATOM     13  C   UNL     1      -3.233  10.671  15.990  0.00  0.00    +0.000 A 
ATOM     14 CL   UNL     1      -2.505   9.913  14.613  0.00  0.00    +0.000 Cl
ENDBRANCH   4   8
BRANCH   1  16
ATOM     15  O   UNL     1       1.608   9.912  22.471  0.00  0.00    +0.000 OA
ATOM     16  S   UNL     1       0.213   9.792  22.080  0.00  0.00    +0.000 S 
ATOM     17  O   UNL     1      -0.601   8.660  22.492  0.00  0.00    +0.000 OA
BRANCH  16  18
ATOM     18  C   UNL     1      -0.639  11.296  22.532  0.00  0.00    +0.000 A 
ATOM     19  C   UNL     1      -1.842  11.225  23.253  0.00  0.00    +0.000 A 
ATOM     20  C   UNL     1      -2.508  12.402  23.609  0.00  0.00    +0.000 A 
ATOM     21  C   UNL     1      -1.980  13.634  23.238  0.00  0.00    +0.000 A 
ATOM     22  F   UNL     1      -2.609  14.760  23.598  0.00  0.00    +0.000 F 
ATOM     23  C   UNL     1      -0.803  13.713  22.499  0.00  0.00    +0.000 A 
ATOM     24  C   UNL     1      -0.131  12.541  22.133  0.00  0.00    +0.000 A 
ENDBRANCH  16  18
ENDBRANCH   1  16
BRANCH   6  25
ATOM     25  N   UNL     1       2.090   8.230  19.994  0.00  0.00    +0.000 N 
ATOM     26  H   UNL     1       2.710   8.442  20.783  0.00  0.00    +0.000 HD
BRANCH  25  27
ATOM     27  C   UNL     1       2.074   6.836  19.699  0.00  0.00    +0.000 A 
ATOM     28  C   UNL     1       1.404   5.936  20.550  0.00  0.00    +0.000 A 
ATOM     29  C   UNL     1       1.277   4.584  20.231  0.00  0.00    +0.000 A 
ATOM     30  C   UNL     1       1.827   4.098  19.050  0.00  0.00    +0.000 A 
ATOM     31  C   UNL     1       2.531   4.961  18.208  0.00  0.00    +0.000 A 
ATOM     32  C   UNL     1       2.667   6.317  18.536  0.00  0.00    +0.000 A 
ATOM     33 CL   UNL     1       3.548   7.332  17.451  0.00  0.00    +0.000 Cl
ENDBRANCH  25  27
ENDBRANCH   6  25
TORSDOF 5
ENDMDL
MODEL 2
REMARK VINA RESULT:      -8.1      0.984      1.438
REMARK  Name = 
REMARK  5 active torsions:
REMARK  status: ('A' for Active; 'I' for Inactive)
REMARK    1  A    between atoms: S_2  and  C_4
REMARK    2  A    between atoms: S_2  and  N_11
REMARK    3  A    between atoms: N_14  and  C_15
REMARK    4  A    between atoms: C_23  and  N_24
REMARK    5  A    between atoms: N_24  and  C_25
REMARK                            x       y       z     vdW  Elec       q    Type
REMARK                         _______ _______ _______ _____ _____    ______ ____
ROOT
ATOM      1  N   UNL     1       0.134   9.819  20.317  0.00  0.00    +0.000 N 
ATOM      2  N   UNL     1      -0.775  10.522  19.595  0.00  0.00    +0.000 NA
ATOM      3  C   UNL     1      -0.522  10.211  18.325  0.00  0.00    +0.000 A 
ATOM      4  N   UNL     1      -1.269  10.547  17.248  0.00  0.00    +0.000 N 
ATOM      5  C   UNL     1       0.644   9.436  18.218  0.00  0.00    +0.000 A 
ATOM      6  C   UNL     1       0.990   9.083  19.512  0.00  0.00    +0.000 A 
ATOM      7  H   UNL     1      -0.892  10.409  16.313  0.00  0.00    +0.000 HD
ENDROOT
BRANCH   4   8
ATOM      8  C   UNL     1      -2.634  10.932  17.207  0.00  0.00    +0.000 A 
ATOM      9  C   UNL     1      -3.272  11.501  18.321  0.00  0.00    +0.000 A 
ATOM     10  C   UNL     1      -4.577  11.986  18.253  0.00  0.00    +0.000 A 
ATOM     11  C   UNL     1      -5.285  11.900  17.061  0.00  0.00    +0.000 A 
ATOM     12  C   UNL     1      -4.692  11.308  15.946  0.00  0.00    +0.000 A 
ATOM     13  C   UNL     1      -3.381  10.825  16.019  0.00  0.00    +0.000 A 
ATOM     14 CL   UNL     1      -2.705  10.072  14.614  0.00  0.00    +0.000 Cl
ENDBRANCH   4   8
BRANCH   1  16
ATOM     15  O   UNL     1       1.585   9.978  22.391  0.00  0.00    +0.000 OA
ATOM     16  S   UNL     1       0.181   9.850  22.039  0.00  0.00    +0.000 S 
ATOM     17  O   UNL     1      -0.619   8.721  22.486  0.00  0.00    +0.000 OA
BRANCH  16  18
ATOM     18  C   UNL     1      -0.663  11.358  22.496  0.00  0.00    +0.000 A 
ATOM     19  C   UNL     1      -1.867  11.291  23.213  0.00  0.00    +0.000 A 
ATOM     20  C   UNL     1      -2.527  12.470  23.574  0.00  0.00    +0.000 A 
ATOM     21  C   UNL     1      -1.991  13.700  23.210  0.00  0.00    +0.000 A 
ATOM     22  F   UNL     1      -2.614  14.828  23.573  0.00  0.00    +0.000 F 
ATOM     23  C   UNL     1      -0.812  13.776  22.472  0.00  0.00    +0.000 A 
ATOM     24  C   UNL     1      -0.147  12.601  22.103  0.00  0.00    +0.000 A 
ENDBRANCH  16  18
ENDBRANCH   1  16
BRANCH   6  25
ATOM     25  N   UNL     1       1.941   8.194  19.924  0.00  0.00    +0.000 N 
ATOM     26  H   UNL     1       2.080   7.946  20.909  0.00  0.00    +0.000 HD
BRANCH  25  27
ATOM     27  C   UNL     1       2.523   7.226  19.054  0.00  0.00    +0.000 A 
ATOM     28  C   UNL     1       3.318   7.634  17.966  0.00  0.00    +0.000 A 
ATOM     29  C   UNL     1       3.989   6.711  17.163  0.00  0.00    +0.000 A 
ATOM     30  C   UNL     1       3.874   5.352  17.429  0.00  0.00    +0.000 A 
ATOM     31  C   UNL     1       3.060   4.918  18.477  0.00  0.00    +0.000 A 
ATOM     32  C   UNL     1       2.378   5.846  19.276  0.00  0.00    +0.000 A 
ATOM     33 CL   UNL     1       1.389   5.245  20.559  0.00  0.00    +0.000 Cl
ENDBRANCH  25  27
ENDBRANCH   6  25
TORSDOF 5
ENDMDL
MODEL 3
REMARK VINA RESULT:      -7.9      3.790      7.398
REMARK  Name = 
REMARK  5 active torsions:
REMARK  status: ('A' for Active; 'I' for Inactive)
REMARK    1  A    between atoms: S_2  and  C_4
REMARK    2  A    between atoms: S_2  and  N_11
REMARK    3  A    between atoms: N_14  and  C_15
REMARK    4  A    between atoms: C_23  and  N_24
REMARK    5  A    between atoms: N_24  and  C_25
REMARK                            x       y       z     vdW  Elec       q    Type
REMARK                         _______ _______ _______ _____ _____    ______ ____
ROOT
ATOM      1  N   UNL     1       0.627  10.822  20.702  0.00  0.00    +0.000 N 
ATOM      2  N   UNL     1       1.474  11.858  20.920  0.00  0.00    +0.000 NA
ATOM      3  C   UNL     1       1.016  12.846  20.153  0.00  0.00    +0.000 A 
ATOM      4  N   UNL     1       1.441  14.130  20.151  0.00  0.00    +0.000 N 
ATOM      5  C   UNL     1      -0.027  12.399  19.326  0.00  0.00    +0.000 A 
ATOM      6  C   UNL     1      -0.355  11.129  19.773  0.00  0.00    +0.000 A 
ATOM      7  H   UNL     1       1.145  14.756  19.405  0.00  0.00    +0.000 HD
ENDROOT
BRANCH   4   8
ATOM      8  C   UNL     1       2.145  14.828  21.166  0.00  0.00    +0.000 A 
ATOM      9  C   UNL     1       3.534  14.697  21.322  0.00  0.00    +0.000 A 
ATOM     10  C   UNL     1       4.247  15.465  22.241  0.00  0.00    +0.000 A 
ATOM     11  C   UNL     1       3.577  16.382  23.042  0.00  0.00    +0.000 A 
ATOM     12  C   UNL     1       2.193  16.511  22.936  0.00  0.00    +0.000 A 
ATOM     13  C   UNL     1       1.482  15.739  22.010  0.00  0.00    +0.000 A 
ATOM     14 CL   UNL     1      -0.239  15.917  21.942  0.00  0.00    +0.000 Cl
ENDBRANCH   4   8
BRANCH   1  16
ATOM     15  O   UNL     1      -0.584   8.877  21.790  0.00  0.00    +0.000 OA
ATOM     16  S   UNL     1       0.776   9.310  21.517  0.00  0.00    +0.000 S 
ATOM     17  O   UNL     1       1.740   9.519  22.585  0.00  0.00    +0.000 OA
BRANCH  16  18
ATOM     18  C   UNL     1       1.498   8.206  20.311  0.00  0.00    +0.000 A 
ATOM     19  C   UNL     1       1.784   6.879  20.666  0.00  0.00    +0.000 A 
ATOM     20  C   UNL     1       2.346   6.014  19.722  0.00  0.00    +0.000 A 
ATOM     21  C   UNL     1       2.628   6.477  18.442  0.00  0.00    +0.000 A 
ATOM     22  F   UNL     1       3.147   5.642  17.534  0.00  0.00    +0.000 F 
ATOM     23  C   UNL     1       2.374   7.800  18.089  0.00  0.00    +0.000 A 
ATOM     24  C   UNL     1       1.816   8.675  19.028  0.00  0.00    +0.000 A 
ENDBRANCH  16  18
ENDBRANCH   1  16
BRANCH   6  25
ATOM     25  N   UNL     1      -1.416  10.350  19.412  0.00  0.00    +0.000 N 
ATOM     26  H   UNL     1      -1.930   9.768  20.082  0.00  0.00    +0.000 HD
BRANCH  25  27
ATOM     27  C   UNL     1      -2.172  10.574  18.225  0.00  0.00    +0.000 A 
ATOM     28  C   UNL     1      -1.833   9.913  17.029  0.00  0.00    +0.000 A 
ATOM     29  C   UNL     1      -2.619  10.027  15.881  0.00  0.00    +0.000 A 
ATOM     30  C   UNL     1      -3.762  10.817  15.903  0.00  0.00    +0.000 A 
ATOM     31  C   UNL     1      -4.099  11.516  17.063  0.00  0.00    +0.000 A 
ATOM     32  C   UNL     1      -3.303  11.408  18.213  0.00  0.00    +0.000 A 
ATOM     33 CL   UNL     1      -3.776  12.297  19.616  0.00  0.00    +0.000 Cl
ENDBRANCH  25  27
ENDBRANCH   6  25
TORSDOF 5
ENDMDL
MODEL 4
REMARK VINA RESULT:      -7.9      3.749      7.350
REMARK  Name = 
REMARK  5 active torsions:
REMARK  status: ('A' for Active; 'I' for Inactive)
REMARK    1  A    between atoms: S_2  and  C_4
REMARK    2  A    between atoms: S_2  and  N_11
REMARK    3  A    between atoms: N_14  and  C_15
REMARK    4  A    between atoms: C_23  and  N_24
REMARK    5  A    between atoms: N_24  and  C_25
REMARK                            x       y       z     vdW  Elec       q    Type
REMARK                         _______ _______ _______ _____ _____    ______ ____
ROOT
ATOM      1  N   UNL     1       0.594  11.011  20.197  0.00  0.00    +0.000 N 
ATOM      2  N   UNL     1       1.503  12.016  20.260  0.00  0.00    +0.000 NA
ATOM      3  C   UNL     1       1.023  12.967  19.461  0.00  0.00    +0.000 A 
ATOM      4  N   UNL     1       1.504  14.223  19.321  0.00  0.00    +0.000 N 
ATOM      5  C   UNL     1      -0.109  12.515  18.764  0.00  0.00    +0.000 A 
ATOM      6  C   UNL     1      -0.453  11.301  19.335  0.00  0.00    +0.000 A 
ATOM      7  H   UNL     1       1.171  14.807  18.557  0.00  0.00    +0.000 HD
ENDROOT
BRANCH   4   8
ATOM      8  C   UNL     1       2.327  14.957  20.215  0.00  0.00    +0.000 A 
ATOM      9  C   UNL     1       1.856  15.380  21.469  0.00  0.00    +0.000 A 
ATOM     10  C   UNL     1       2.690  16.001  22.396  0.00  0.00    +0.000 A 
ATOM     11  C   UNL     1       4.025  16.225  22.083  0.00  0.00    +0.000 A 
ATOM     12  C   UNL     1       4.516  15.848  20.834  0.00  0.00    +0.000 A 
ATOM     13  C   UNL     1       3.674  15.224  19.906  0.00  0.00    +0.000 A 
ATOM     14 CL   UNL     1       4.326  14.804  18.358  0.00  0.00    +0.000 Cl
ENDBRANCH   4   8
BRANCH   1  16
ATOM     15  O   UNL     1      -0.612   9.109  21.363  0.00  0.00    +0.000 OA
ATOM     16  S   UNL     1       0.746   9.559  21.112  0.00  0.00    +0.000 S 
ATOM     17  O   UNL     1       1.665   9.859  22.198  0.00  0.00    +0.000 OA
BRANCH  16  18
ATOM     18  C   UNL     1       1.538   8.400  20.006  0.00  0.00    +0.000 A 
ATOM     19  C   UNL     1       1.912   7.132  20.477  0.00  0.00    +0.000 A 
ATOM     20  C   UNL     1       2.529   6.223  19.612  0.00  0.00    +0.000 A 
ATOM     21  C   UNL     1       2.778   6.586  18.293  0.00  0.00    +0.000 A 
ATOM     22  F   UNL     1       3.351   5.708  17.460  0.00  0.00    +0.000 F 
ATOM     23  C   UNL     1       2.437   7.852  17.823  0.00  0.00    +0.000 A 
ATOM     24  C   UNL     1       1.823   8.770  18.683  0.00  0.00    +0.000 A 
ENDBRANCH  16  18
ENDBRANCH   1  16
BRANCH   6  25
ATOM     25  N   UNL     1      -1.577  10.553  19.129  0.00  0.00    +0.000 N 
ATOM     26  H   UNL     1      -2.107  10.125  19.896  0.00  0.00    +0.000 HD
BRANCH  25  27
ATOM     27  C   UNL     1      -2.354  10.638  17.938  0.00  0.00    +0.000 A 
ATOM     28  C   UNL     1      -1.966   9.933  16.782  0.00  0.00    +0.000 A 
ATOM     29  C   UNL     1      -2.764   9.909  15.637  0.00  0.00    +0.000 A 
ATOM     30  C   UNL     1      -3.969  10.599  15.621  0.00  0.00    +0.000 A 
ATOM     31  C   UNL     1      -4.359  11.340  16.739  0.00  0.00    +0.000 A 
ATOM     32  C   UNL     1      -3.551  11.371  17.884  0.00  0.00    +0.000 A 
ATOM     33 CL   UNL     1      -4.091  12.304  19.235  0.00  0.00    +0.000 Cl
ENDBRANCH  25  27
ENDBRANCH   6  25
TORSDOF 5
ENDMDL
MODEL 5
REMARK VINA RESULT:      -7.8      5.390      8.118
REMARK  Name = 
REMARK  5 active torsions:
REMARK  status: ('A' for Active; 'I' for Inactive)
REMARK    1  A    between atoms: S_2  and  C_4
REMARK    2  A    between atoms: S_2  and  N_11
REMARK    3  A    between atoms: N_14  and  C_15
REMARK    4  A    between atoms: C_23  and  N_24
REMARK    5  A    between atoms: N_24  and  C_25
REMARK                            x       y       z     vdW  Elec       q    Type
REMARK                         _______ _______ _______ _____ _____    ______ ____
ROOT
ATOM      1  N   UNL     1       3.911   7.037  17.814  0.00  0.00    +0.000 N 
ATOM      2  N   UNL     1       3.501   8.330  17.808  0.00  0.00    +0.000 NA
ATOM      3  C   UNL     1       2.172   8.271  17.863  0.00  0.00    +0.000 A 
ATOM      4  N   UNL     1       1.324   9.311  18.036  0.00  0.00    +0.000 N 
ATOM      5  C   UNL     1       1.721   6.947  17.746  0.00  0.00    +0.000 A 
ATOM      6  C   UNL     1       2.849   6.147  17.840  0.00  0.00    +0.000 A 
ATOM      7  H   UNL     1       0.327   9.176  17.887  0.00  0.00    +0.000 HD
ENDROOT
BRANCH   4   8
ATOM      8  C   UNL     1       1.599  10.593  18.580  0.00  0.00    +0.000 A 
ATOM      9  C   UNL     1       2.352  11.545  17.873  0.00  0.00    +0.000 A 
ATOM     10  C   UNL     1       2.529  12.843  18.350  0.00  0.00    +0.000 A 
ATOM     11  C   UNL     1       1.963  13.217  19.563  0.00  0.00    +0.000 A 
ATOM     12  C   UNL     1       1.239  12.285  20.305  0.00  0.00    +0.000 A 
ATOM     13  C   UNL     1       1.063  10.983  19.821  0.00  0.00    +0.000 A 
ATOM     14 CL   UNL     1       0.181   9.857  20.798  0.00  0.00    +0.000 Cl
ENDBRANCH   4   8
BRANCH   1  16
ATOM     15  O   UNL     1       5.765   5.763  18.985  0.00  0.00    +0.000 OA
ATOM     16  S   UNL     1       5.575   6.588  17.804  0.00  0.00    +0.000 S 
ATOM     17  O   UNL     1       6.325   7.817  17.602  0.00  0.00    +0.000 OA
BRANCH  16  18
ATOM     18  C   UNL     1       5.766   5.563  16.353  0.00  0.00    +0.000 A 
ATOM     19  C   UNL     1       5.390   6.060  15.095  0.00  0.00    +0.000 A 
ATOM     20  C   UNL     1       5.543   5.260  13.959  0.00  0.00    +0.000 A 
ATOM     21  C   UNL     1       6.056   3.973  14.083  0.00  0.00    +0.000 A 
ATOM     22  F   UNL     1       6.220   3.216  12.992  0.00  0.00    +0.000 F 
ATOM     23  C   UNL     1       6.405   3.461  15.331  0.00  0.00    +0.000 A 
ATOM     24  C   UNL     1       6.252   4.253  16.475  0.00  0.00    +0.000 A 
ENDBRANCH  16  18
ENDBRANCH   1  16
BRANCH   6  25
ATOM     25  N   UNL     1       2.919   4.789  17.958  0.00  0.00    +0.000 N 
ATOM     26  H   UNL     1       3.481   4.205  17.330  0.00  0.00    +0.000 HD
BRANCH  25  27
ATOM     27  C   UNL     1       2.597   4.100  19.164  0.00  0.00    +0.000 A 
ATOM     28  C   UNL     1       2.561   4.790  20.391  0.00  0.00    +0.000 A 
ATOM     29  C   UNL     1       2.143   4.170  21.568  0.00  0.00    +0.000 A 
ATOM     30  C   UNL     1       1.756   2.835  21.545  0.00  0.00    +0.000 A 
ATOM     31  C   UNL     1       1.821   2.116  20.351  0.00  0.00    +0.000 A 
ATOM     32  C   UNL     1       2.251   2.738  19.170  0.00  0.00    +0.000 A 
ATOM     33 CL   UNL     1       2.305   1.794  17.725  0.00  0.00    +0.000 Cl
ENDBRANCH  25  27
ENDBRANCH   6  25
TORSDOF 5
ENDMDL
MODEL 6
REMARK VINA RESULT:      -7.6      3.780      7.397
REMARK  Name = 
REMARK  5 active torsions:
REMARK  status: ('A' for Active; 'I' for Inactive)
REMARK    1  A    between atoms: S_2  and  C_4
REMARK    2  A    between atoms: S_2  and  N_11
REMARK    3  A    between atoms: N_14  and  C_15
REMARK    4  A    between atoms: C_23  and  N_24
REMARK    5  A    between atoms: N_24  and  C_25
REMARK                            x       y       z     vdW  Elec       q    Type
REMARK                         _______ _______ _______ _____ _____    ______ ____
ROOT
ATOM      1  N   UNL     1       0.231  11.581  19.761  0.00  0.00    +0.000 N 
ATOM      2  N   UNL     1       1.059  12.654  19.701  0.00  0.00    +0.000 NA
ATOM      3  C   UNL     1       0.487  13.483  18.830  0.00  0.00    +0.000 A 
ATOM      4  N   UNL     1       0.864  14.754  18.558  0.00  0.00    +0.000 N 
ATOM      5  C   UNL     1      -0.622  12.882  18.214  0.00  0.00    +0.000 A 
ATOM      6  C   UNL     1      -0.855  11.705  18.908  0.00  0.00    +0.000 A 
ATOM      7  H   UNL     1       0.469  15.234  17.753  0.00  0.00    +0.000 HD
ENDROOT
BRANCH   4   8
ATOM      8  C   UNL     1       1.647  15.631  19.353  0.00  0.00    +0.000 A 
ATOM      9  C   UNL     1       1.219  16.053  20.622  0.00  0.00    +0.000 A 
ATOM     10  C   UNL     1       2.031  16.821  21.454  0.00  0.00    +0.000 A 
ATOM     11  C   UNL     1       3.298  17.198  21.026  0.00  0.00    +0.000 A 
ATOM     12  C   UNL     1       3.740  16.824  19.758  0.00  0.00    +0.000 A 
ATOM     13  C   UNL     1       2.921  16.051  18.927  0.00  0.00    +0.000 A 
ATOM     14 CL   UNL     1       3.507  15.641  17.350  0.00  0.00    +0.000 Cl
ENDBRANCH   4   8
BRANCH   1  16
ATOM     15  O   UNL     1      -0.793   9.706  21.128  0.00  0.00    +0.000 OA
ATOM     16  S   UNL     1       0.519  10.239  20.803  0.00  0.00    +0.000 S 
ATOM     17  O   UNL     1       1.426  10.715  21.835  0.00  0.00    +0.000 OA
BRANCH  16  18
ATOM     18  C   UNL     1       1.387   9.049  19.792  0.00  0.00    +0.000 A 
ATOM     19  C   UNL     1       1.655   9.343  18.446  0.00  0.00    +0.000 A 
ATOM     20  C   UNL     1       2.337   8.414  17.655  0.00  0.00    +0.000 A 
ATOM     21  C   UNL     1       2.735   7.200  18.203  0.00  0.00    +0.000 A 
ATOM     22  F   UNL     1       3.405   6.319  17.450  0.00  0.00    +0.000 F 
ATOM     23  C   UNL     1       2.448   6.887  19.530  0.00  0.00    +0.000 A 
ATOM     24  C   UNL     1       1.762   7.809  20.329  0.00  0.00    +0.000 A 
ENDBRANCH  16  18
ENDBRANCH   1  16
BRANCH   6  25
ATOM     25  N   UNL     1      -1.921  10.857  18.809  0.00  0.00    +0.000 N 
ATOM     26  H   UNL     1      -1.987   9.984  19.342  0.00  0.00    +0.000 HD
BRANCH  25  27
ATOM     27  C   UNL     1      -3.195  11.271  18.320  0.00  0.00    +0.000 A 
ATOM     28  C   UNL     1      -4.071  12.003  19.144  0.00  0.00    +0.000 A 
ATOM     29  C   UNL     1      -5.275  12.516  18.660  0.00  0.00    +0.000 A 
ATOM     30  C   UNL     1      -5.635  12.299  17.336  0.00  0.00    +0.000 A 
ATOM     31  C   UNL     1      -4.804  11.542  16.508  0.00  0.00    +0.000 A 
ATOM     32  C   UNL     1      -3.599  11.019  16.998  0.00  0.00    +0.000 A 
ATOM     33 CL   UNL     1      -2.615  10.093  15.922  0.00  0.00    +0.000 Cl
ENDBRANCH  25  27
ENDBRANCH   6  25
TORSDOF 5
ENDMDL
MODEL 7
REMARK VINA RESULT:      -7.5      4.364      7.635
REMARK  Name = 
REMARK  5 active torsions:
REMARK  status: ('A' for Active; 'I' for Inactive)
REMARK    1  A    between atoms: S_2  and  C_4
REMARK    2  A    between atoms: S_2  and  N_11
REMARK    3  A    between atoms: N_14  and  C_15
REMARK    4  A    between atoms: C_23  and  N_24
REMARK    5  A    between atoms: N_24  and  C_25
REMARK                            x       y       z     vdW  Elec       q    Type
REMARK                         _______ _______ _______ _____ _____    ______ ____
ROOT
ATOM      1  N   UNL     1       0.604  11.722  19.757  0.00  0.00    +0.000 N 
ATOM      2  N   UNL     1       1.745  12.432  19.572  0.00  0.00    +0.000 NA
ATOM      3  C   UNL     1       1.386  13.476  18.828  0.00  0.00    +0.000 A 
ATOM      4  N   UNL     1       2.152  14.546  18.516  0.00  0.00    +0.000 N 
ATOM      5  C   UNL     1       0.054  13.357  18.402  0.00  0.00    +0.000 A 
ATOM      6  C   UNL     1      -0.481  12.290  19.106  0.00  0.00    +0.000 A 
ATOM      7  H   UNL     1       1.839  15.197  17.799  0.00  0.00    +0.000 HD
ENDROOT
BRANCH   4   8
ATOM      8  C   UNL     1       3.313  15.023  19.178  0.00  0.00    +0.000 A 
ATOM      9  C   UNL     1       4.601  14.783  18.671  0.00  0.00    +0.000 A 
ATOM     10  C   UNL     1       5.737  15.343  19.252  0.00  0.00    +0.000 A 
ATOM     11  C   UNL     1       5.610  16.156  20.372  0.00  0.00    +0.000 A 
ATOM     12  C   UNL     1       4.349  16.386  20.920  0.00  0.00    +0.000 A 
ATOM     13  C   UNL     1       3.212  15.822  20.332  0.00  0.00    +0.000 A 
ATOM     14 CL   UNL     1       1.674  16.115  21.072  0.00  0.00    +0.000 Cl
ENDBRANCH   4   8
BRANCH   1  16
ATOM     15  O   UNL     1      -0.865   9.938  20.801  0.00  0.00    +0.000 OA
ATOM     16  S   UNL     1       0.542  10.288  20.711  0.00  0.00    +0.000 S 
ATOM     17  O   UNL     1       1.340  10.557  21.896  0.00  0.00    +0.000 OA
BRANCH  16  18
ATOM     18  C   UNL     1       1.380   9.049  19.734  0.00  0.00    +0.000 A 
ATOM     19  C   UNL     1       1.768   7.839  20.329  0.00  0.00    +0.000 A 
ATOM     20  C   UNL     1       2.422   6.867  19.565  0.00  0.00    +0.000 A 
ATOM     21  C   UNL     1       2.692   7.110  18.222  0.00  0.00    +0.000 A 
ATOM     22  F   UNL     1       3.299   6.171  17.487  0.00  0.00    +0.000 F 
ATOM     23  C   UNL     1       2.336   8.320  17.630  0.00  0.00    +0.000 A 
ATOM     24  C   UNL     1       1.687   9.301  18.388  0.00  0.00    +0.000 A 
ENDBRANCH  16  18
ENDBRANCH   1  16
BRANCH   6  25
ATOM     25  N   UNL     1      -1.784  11.886  19.177  0.00  0.00    +0.000 N 
ATOM     26  H   UNL     1      -2.391  12.109  19.973  0.00  0.00    +0.000 HD
BRANCH  25  27
ATOM     27  C   UNL     1      -2.540  11.512  18.029  0.00  0.00    +0.000 A 
ATOM     28  C   UNL     1      -1.910  10.902  16.928  0.00  0.00    +0.000 A 
ATOM     29  C   UNL     1      -2.639  10.425  15.838  0.00  0.00    +0.000 A 
ATOM     30  C   UNL     1      -4.023  10.556  15.823  0.00  0.00    +0.000 A 
ATOM     31  C   UNL     1      -4.670  11.193  16.883  0.00  0.00    +0.000 A 
ATOM     32  C   UNL     1      -3.934  11.681  17.973  0.00  0.00    +0.000 A 
ATOM     33 CL   UNL     1      -4.795  12.457  19.254  0.00  0.00    +0.000 Cl
ENDBRANCH  25  27
ENDBRANCH   6  25
TORSDOF 5
ENDMDL
MODEL 8
REMARK VINA RESULT:      -7.5      4.063      7.569
REMARK  Name = 
REMARK  5 active torsions:
REMARK  status: ('A' for Active; 'I' for Inactive)
REMARK    1  A    between atoms: S_2  and  C_4
REMARK    2  A    between atoms: S_2  and  N_11
REMARK    3  A    between atoms: N_14  and  C_15
REMARK    4  A    between atoms: C_23  and  N_24
REMARK    5  A    between atoms: N_24  and  C_25
REMARK                            x       y       z     vdW  Elec       q    Type
REMARK                         _______ _______ _______ _____ _____    ______ ____
ROOT
ATOM      1  N   UNL     1       0.549  11.301  20.308  0.00  0.00    +0.000 N 
ATOM      2  N   UNL     1       1.579  12.184  20.325  0.00  0.00    +0.000 NA
ATOM      3  C   UNL     1       1.136  13.243  19.651  0.00  0.00    +0.000 A 
ATOM      4  N   UNL     1       1.753  14.441  19.534  0.00  0.00    +0.000 N 
ATOM      5  C   UNL     1      -0.114  12.983  19.067  0.00  0.00    +0.000 A 
ATOM      6  C   UNL     1      -0.542  11.777  19.597  0.00  0.00    +0.000 A 
ATOM      7  H   UNL     1       1.413  15.117  18.854  0.00  0.00    +0.000 HD
ENDROOT
BRANCH   4   8
ATOM      8  C   UNL     1       2.755  15.002  20.368  0.00  0.00    +0.000 A 
ATOM      9  C   UNL     1       4.115  14.953  20.018  0.00  0.00    +0.000 A 
ATOM     10  C   UNL     1       5.092  15.600  20.773  0.00  0.00    +0.000 A 
ATOM     11  C   UNL     1       4.728  16.307  21.912  0.00  0.00    +0.000 A 
ATOM     12  C   UNL     1       3.392  16.346  22.306  0.00  0.00    +0.000 A 
ATOM     13  C   UNL     1       2.414  15.696  21.543  0.00  0.00    +0.000 A 
ATOM     14 CL   UNL     1       0.774  15.751  22.094  0.00  0.00    +0.000 Cl
ENDBRANCH   4   8
BRANCH   1  16
ATOM     15  O   UNL     1      -0.761   9.332  21.225  0.00  0.00    +0.000 OA
ATOM     16  S   UNL     1       0.618   9.774  21.104  0.00  0.00    +0.000 S 
ATOM     17  O   UNL     1       1.465   9.963  22.271  0.00  0.00    +0.000 OA
BRANCH  16  18
ATOM     18  C   UNL     1       1.467   8.696  19.959  0.00  0.00    +0.000 A 
ATOM     19  C   UNL     1       1.649   9.100  18.627  0.00  0.00    +0.000 A 
ATOM     20  C   UNL     1       2.316   8.258  17.731  0.00  0.00    +0.000 A 
ATOM     21  C   UNL     1       2.785   7.023  18.163  0.00  0.00    +0.000 A 
ATOM     22  F   UNL     1       3.440   6.227  17.309  0.00  0.00    +0.000 F 
ATOM     23  C   UNL     1       2.584   6.601  19.475  0.00  0.00    +0.000 A 
ATOM     24  C   UNL     1       1.914   7.434  20.378  0.00  0.00    +0.000 A 
ENDBRANCH  16  18
ENDBRANCH   1  16
BRANCH   6  25
ATOM     25  N   UNL     1      -1.767  11.184  19.480  0.00  0.00    +0.000 N 
ATOM     26  H   UNL     1      -2.413  11.085  20.270  0.00  0.00    +0.000 HD
BRANCH  25  27
ATOM     27  C   UNL     1      -2.439  11.038  18.232  0.00  0.00    +0.000 A 
ATOM     28  C   UNL     1      -1.821  10.357  17.166  0.00  0.00    +0.000 A 
ATOM     29  C   UNL     1      -2.494  10.103  15.970  0.00  0.00    +0.000 A 
ATOM     30  C   UNL     1      -3.806  10.534  15.812  0.00  0.00    +0.000 A 
ATOM     31  C   UNL     1      -4.429  11.246  16.838  0.00  0.00    +0.000 A 
ATOM     32  C   UNL     1      -3.748  11.510  18.034  0.00  0.00    +0.000 A 
ATOM     33 CL   UNL     1      -4.576  12.394  19.266  0.00  0.00    +0.000 Cl
ENDBRANCH  25  27
ENDBRANCH   6  25
TORSDOF 5
ENDMDL
MODEL 9
REMARK VINA RESULT:      -7.5      3.675      6.118
REMARK  Name = 
REMARK  5 active torsions:
REMARK  status: ('A' for Active; 'I' for Inactive)
REMARK    1  A    between atoms: S_2  and  C_4
REMARK    2  A    between atoms: S_2  and  N_11
REMARK    3  A    between atoms: N_14  and  C_15
REMARK    4  A    between atoms: C_23  and  N_24
REMARK    5  A    between atoms: N_24  and  C_25
REMARK                            x       y       z     vdW  Elec       q    Type
REMARK                         _______ _______ _______ _____ _____    ______ ____
ROOT
ATOM      1  N   UNL     1      -0.403  11.065  21.082  0.00  0.00    +0.000 N 
ATOM      2  N   UNL     1      -1.736  11.172  20.858  0.00  0.00    +0.000 NA
ATOM      3  C   UNL     1      -1.916  12.423  20.440  0.00  0.00    +0.000 A 
ATOM      4  N   UNL     1      -3.059  12.953  19.946  0.00  0.00    +0.000 N 
ATOM      5  C   UNL     1      -0.730  13.166  20.544  0.00  0.00    +0.000 A 
ATOM      6  C   UNL     1       0.270  12.252  20.840  0.00  0.00    +0.000 A 
ATOM      7  H   UNL     1      -3.134  13.960  19.822  0.00  0.00    +0.000 HD
ENDROOT
BRANCH   4   8
ATOM      8  C   UNL     1      -4.176  12.277  19.389  0.00  0.00    +0.000 A 
ATOM      9  C   UNL     1      -5.428  12.279  20.024  0.00  0.00    +0.000 A 
ATOM     10  C   UNL     1      -6.556  11.716  19.428  0.00  0.00    +0.000 A 
ATOM     11  C   UNL     1      -6.451  11.121  18.177  0.00  0.00    +0.000 A 
ATOM     12  C   UNL     1      -5.215  11.071  17.535  0.00  0.00    +0.000 A 
ATOM     13  C   UNL     1      -4.086  11.640  18.137  0.00  0.00    +0.000 A 
ATOM     14 CL   UNL     1      -2.569  11.523  17.310  0.00  0.00    +0.000 Cl
ENDBRANCH   4   8
BRANCH   1  16
ATOM     15  O   UNL     1      -0.754   8.693  21.910  0.00  0.00    +0.000 OA
ATOM     16  S   UNL     1       0.340   9.597  21.596  0.00  0.00    +0.000 S 
ATOM     17  O   UNL     1       1.332   9.971  22.591  0.00  0.00    +0.000 OA
BRANCH  16  18
ATOM     18  C   UNL     1       1.193   8.982  20.151  0.00  0.00    +0.000 A 
ATOM     19  C   UNL     1       1.126   9.698  18.946  0.00  0.00    +0.000 A 
ATOM     20  C   UNL     1       1.796   9.220  17.816  0.00  0.00    +0.000 A 
ATOM     21  C   UNL     1       2.515   8.032  17.890  0.00  0.00    +0.000 A 
ATOM     22  F   UNL     1       3.172   7.585  16.813  0.00  0.00    +0.000 F 
ATOM     23  C   UNL     1       2.563   7.299  19.074  0.00  0.00    +0.000 A 
ATOM     24  C   UNL     1       1.892   7.767  20.209  0.00  0.00    +0.000 A 
ENDBRANCH  16  18
ENDBRANCH   1  16
BRANCH   6  25
ATOM     25  N   UNL     1       1.621  12.450  20.867  0.00  0.00    +0.000 N 
ATOM     26  H   UNL     1       2.276  11.754  21.237  0.00  0.00    +0.000 HD
BRANCH  25  27
ATOM     27  C   UNL     1       2.280  13.399  20.033  0.00  0.00    +0.000 A 
ATOM     28  C   UNL     1       2.553  13.095  18.686  0.00  0.00    +0.000 A 
ATOM     29  C   UNL     1       3.096  14.042  17.817  0.00  0.00    +0.000 A 
ATOM     30  C   UNL     1       3.387  15.319  18.281  0.00  0.00    +0.000 A 
ATOM     31  C   UNL     1       3.163  15.636  19.623  0.00  0.00    +0.000 A 
ATOM     32  C   UNL     1       2.627  14.680  20.497  0.00  0.00    +0.000 A 
ATOM     33 CL   UNL     1       2.372  15.135  22.144  0.00  0.00    +0.000 Cl
ENDBRANCH  25  27
ENDBRANCH   6  25
TORSDOF 5
ENDMDL
