MODEL 1
REMARK VINA RESULT:      -5.8      0.000      0.000
REMARK  Name = 
REMARK  13 active torsions:
REMARK  status: ('A' for Active; 'I' for Inactive)
REMARK    1  A    between atoms: C_1  and  C_2
REMARK    2  A    between atoms: C_2  and  C_3
REMARK    3  A    between atoms: C_3  and  C_4
REMARK    4  A    between atoms: C_4  and  C_5
REMARK    5  A    between atoms: C_5  and  C_6
REMARK    6  A    between atoms: C_6  and  C_7
REMARK    7  A    between atoms: C_7  and  C_8
REMARK    8  A    between atoms: C_8  and  O_9
REMARK    9  A    between atoms: O_9  and  C_10
REMARK   10  A    between atoms: C_10  and  N_11
REMARK   11  A    between atoms: N_14  and  C_15
REMARK   12  A    between atoms: C_16  and  C_17
REMARK   13  A    between atoms: N_18  and  O_19
REMARK                            x       y       z     vdW  Elec       q    Type
REMARK                         _______ _______ _______ _____ _____    ______ ____
ROOT
ATOM      1  C   UNL     1       4.855   3.618  18.136  0.00  0.00    +0.000 C 
ENDROOT
BRANCH   1   2
ATOM      2  N   UNL     1       5.438   4.790  17.504  0.00  0.00    +0.000 N 
ATOM      3  C   UNL     1       5.124   5.203  16.224  0.00  0.00    +0.000 A 
ATOM      4  C   UNL     1       5.804   6.358  15.997  0.00  0.00    +0.000 A 
ATOM      5  N   UNL     1       6.518   6.628  17.144  0.00  0.00    +0.000 N 
ATOM      6  C   UNL     1       7.381   7.795  17.335  0.00  0.00    +0.000 C 
ATOM      7  C   UNL     1       6.289   5.674  18.099  0.00  0.00    +0.000 A 
BRANCH   7   8
ATOM      8  C   UNL     1       6.840   5.624  19.393  0.00  0.00    +0.000 C 
ATOM      9  N   UNL     1       8.021   5.154  19.686  0.00  0.00    +0.000 NA
BRANCH   9  10
ATOM     10  O   UNL     1       8.227   5.259  21.065  0.00  0.00    +0.000 OA
ATOM     11  H   UNL     1       8.511   6.187  21.183  0.00  0.00    +0.000 HD
ENDBRANCH   9  10
ENDBRANCH   7   8
ENDBRANCH   1   2
BRANCH   1  12
ATOM     12  O   UNL     1       3.621   3.379  17.500  0.00  0.00    +0.000 OA
BRANCH  12  13
ATOM     13  C   UNL     1       3.145   2.071  17.818  0.00  0.00    +0.000 C 
BRANCH  13  14
ATOM     14  C   UNL     1       1.754   2.191  18.409  0.00  0.00    +0.000 C 
BRANCH  14  15
ATOM     15  C   UNL     1       1.850   2.628  19.864  0.00  0.00    +0.000 C 
BRANCH  15  16
ATOM     16  C   UNL     1       0.999   3.862  20.112  0.00  0.00    +0.000 C 
BRANCH  16  17
ATOM     17  C   UNL     1       1.724   4.854  21.012  0.00  0.00    +0.000 C 
BRANCH  17  18
ATOM     18  C   UNL     1       2.849   5.521  20.228  0.00  0.00    +0.000 C 
BRANCH  18  20
ATOM     19  C   UNL     1       2.457   6.839  18.142  0.00  0.00    +0.000 C 
ATOM     20  C   UNL     1       2.414   6.863  19.660  0.00  0.00    +0.000 C 
ENDBRANCH  18  20
ENDBRANCH  17  18
ENDBRANCH  16  17
ENDBRANCH  15  16
ENDBRANCH  14  15
ENDBRANCH  13  14
ENDBRANCH  12  13
ENDBRANCH   1  12
TORSDOF 11
ENDMDL
MODEL 2
REMARK VINA RESULT:      -5.7      2.956      6.107
REMARK  Name = 
REMARK  13 active torsions:
REMARK  status: ('A' for Active; 'I' for Inactive)
REMARK    1  A    between atoms: C_1  and  C_2
REMARK    2  A    between atoms: C_2  and  C_3
REMARK    3  A    between atoms: C_3  and  C_4
REMARK    4  A    between atoms: C_4  and  C_5
REMARK    5  A    between atoms: C_5  and  C_6
REMARK    6  A    between atoms: C_6  and  C_7
REMARK    7  A    between atoms: C_7  and  C_8
REMARK    8  A    between atoms: C_8  and  O_9
REMARK    9  A    between atoms: O_9  and  C_10
REMARK   10  A    between atoms: C_10  and  N_11
REMARK   11  A    between atoms: N_14  and  C_15
REMARK   12  A    between atoms: C_16  and  C_17
REMARK   13  A    between atoms: N_18  and  O_19
REMARK                            x       y       z     vdW  Elec       q    Type
REMARK                         _______ _______ _______ _____ _____    ______ ____
ROOT
ATOM      1  C   UNL     1       4.630   5.546  19.383  0.00  0.00    +0.000 C 
ENDROOT
BRANCH   1   2
ATOM      2  N   UNL     1       3.429   4.825  18.997  0.00  0.00    +0.000 N 
ATOM      3  C   UNL     1       2.520   5.297  18.071  0.00  0.00    +0.000 A 
ATOM      4  C   UNL     1       1.570   4.338  17.917  0.00  0.00    +0.000 A 
ATOM      5  N   UNL     1       1.918   3.299  18.751  0.00  0.00    +0.000 N 
ATOM      6  C   UNL     1       1.168   2.049  18.886  0.00  0.00    +0.000 C 
ATOM      7  C   UNL     1       3.082   3.576  19.418  0.00  0.00    +0.000 A 
BRANCH   7   8
ATOM      8  C   UNL     1       3.742   2.748  20.344  0.00  0.00    +0.000 C 
ATOM      9  N   UNL     1       4.913   2.202  20.159  0.00  0.00    +0.000 NA
BRANCH   9  10
ATOM     10  O   UNL     1       5.248   1.443  21.284  0.00  0.00    +0.000 OA
ATOM     11  H   UNL     1       5.266   2.101  22.006  0.00  0.00    +0.000 HD
ENDBRANCH   9  10
ENDBRANCH   7   8
ENDBRANCH   1   2
BRANCH   1  12
ATOM     12  O   UNL     1       5.647   5.165  18.485  0.00  0.00    +0.000 OA
BRANCH  12  13
ATOM     13  C   UNL     1       6.288   6.320  17.943  0.00  0.00    +0.000 C 
BRANCH  13  14
ATOM     14  C   UNL     1       5.719   6.588  16.564  0.00  0.00    +0.000 C 
BRANCH  14  15
ATOM     15  C   UNL     1       5.500   5.270  15.833  0.00  0.00    +0.000 C 
BRANCH  15  16
ATOM     16  C   UNL     1       6.827   4.656  15.423  0.00  0.00    +0.000 C 
BRANCH  16  17
ATOM     17  C   UNL     1       6.990   4.669  13.908  0.00  0.00    +0.000 C 
BRANCH  17  18
ATOM     18  C   UNL     1       5.980   3.715  13.282  0.00  0.00    +0.000 C 
BRANCH  18  20
ATOM     19  C   UNL     1       5.744   1.976  11.504  0.00  0.00    +0.000 C 
ATOM     20  C   UNL     1       6.407   3.288  11.887  0.00  0.00    +0.000 C 
ENDBRANCH  18  20
ENDBRANCH  17  18
ENDBRANCH  16  17
ENDBRANCH  15  16
ENDBRANCH  14  15
ENDBRANCH  13  14
ENDBRANCH  12  13
ENDBRANCH   1  12
TORSDOF 11
ENDMDL
MODEL 3
REMARK VINA RESULT:      -5.6      3.336      6.180
REMARK  Name = 
REMARK  13 active torsions:
REMARK  status: ('A' for Active; 'I' for Inactive)
REMARK    1  A    between atoms: C_1  and  C_2
REMARK    2  A    between atoms: C_2  and  C_3
REMARK    3  A    between atoms: C_3  and  C_4
REMARK    4  A    between atoms: C_4  and  C_5
REMARK    5  A    between atoms: C_5  and  C_6
REMARK    6  A    between atoms: C_6  and  C_7
REMARK    7  A    between atoms: C_7  and  C_8
REMARK    8  A    between atoms: C_8  and  O_9
REMARK    9  A    between atoms: O_9  and  C_10
REMARK   10  A    between atoms: C_10  and  N_11
REMARK   11  A    between atoms: N_14  and  C_15
REMARK   12  A    between atoms: C_16  and  C_17
REMARK   13  A    between atoms: N_18  and  O_19
REMARK                            x       y       z     vdW  Elec       q    Type
REMARK                         _______ _______ _______ _____ _____    ______ ____
ROOT
ATOM      1  C   UNL     1       5.568   5.214  19.324  0.00  0.00    +0.000 C 
ENDROOT
BRANCH   1   2
ATOM      2  N   UNL     1       4.192   4.781  19.150  0.00  0.00    +0.000 N 
ATOM      3  C   UNL     1       3.153   5.641  18.855  0.00  0.00    +0.000 A 
ATOM      4  C   UNL     1       2.036   4.883  18.703  0.00  0.00    +0.000 A 
ATOM      5  N   UNL     1       2.415   3.574  18.906  0.00  0.00    +0.000 N 
ATOM      6  C   UNL     1       1.517   2.421  18.822  0.00  0.00    +0.000 C 
ATOM      7  C   UNL     1       3.757   3.489  19.168  0.00  0.00    +0.000 A 
BRANCH   7   8
ATOM      8  C   UNL     1       4.496   2.319  19.419  0.00  0.00    +0.000 C 
ATOM      9  N   UNL     1       4.882   1.916  20.599  0.00  0.00    +0.000 NA
BRANCH   9  10
ATOM     10  O   UNL     1       5.598   0.723  20.464  0.00  0.00    +0.000 OA
ATOM     11  H   UNL     1       6.487   1.020  20.185  0.00  0.00    +0.000 HD
ENDBRANCH   9  10
ENDBRANCH   7   8
ENDBRANCH   1   2
BRANCH   1  12
ATOM     12  O   UNL     1       6.357   4.445  18.445  0.00  0.00    +0.000 OA
BRANCH  12  13
ATOM     13  C   UNL     1       6.410   5.061  17.158  0.00  0.00    +0.000 C 
BRANCH  13  14
ATOM     14  C   UNL     1       5.810   4.110  16.141  0.00  0.00    +0.000 C 
BRANCH  14  15
ATOM     15  C   UNL     1       6.547   4.243  14.816  0.00  0.00    +0.000 C 
BRANCH  15  16
ATOM     16  C   UNL     1       5.590   4.069  13.648  0.00  0.00    +0.000 C 
BRANCH  16  17
ATOM     17  C   UNL     1       6.219   3.223  12.549  0.00  0.00    +0.000 C 
BRANCH  17  18
ATOM     18  C   UNL     1       5.124   2.669  11.646  0.00  0.00    +0.000 C 
BRANCH  18  20
ATOM     19  C   UNL     1       3.101   3.190  10.277  0.00  0.00    +0.000 C 
ATOM     20  C   UNL     1       4.183   3.766  11.173  0.00  0.00    +0.000 C 
ENDBRANCH  18  20
ENDBRANCH  17  18
ENDBRANCH  16  17
ENDBRANCH  15  16
ENDBRANCH  14  15
ENDBRANCH  13  14
ENDBRANCH  12  13
ENDBRANCH   1  12
TORSDOF 11
ENDMDL
MODEL 4
REMARK VINA RESULT:      -5.5      3.303      6.529
REMARK  Name = 
REMARK  13 active torsions:
REMARK  status: ('A' for Active; 'I' for Inactive)
REMARK    1  A    between atoms: C_1  and  C_2
REMARK    2  A    between atoms: C_2  and  C_3
REMARK    3  A    between atoms: C_3  and  C_4
REMARK    4  A    between atoms: C_4  and  C_5
REMARK    5  A    between atoms: C_5  and  C_6
REMARK    6  A    between atoms: C_6  and  C_7
REMARK    7  A    between atoms: C_7  and  C_8
REMARK    8  A    between atoms: C_8  and  O_9
REMARK    9  A    between atoms: O_9  and  C_10
REMARK   10  A    between atoms: C_10  and  N_11
REMARK   11  A    between atoms: N_14  and  C_15
REMARK   12  A    between atoms: C_16  and  C_17
REMARK   13  A    between atoms: N_18  and  O_19
REMARK                            x       y       z     vdW  Elec       q    Type
REMARK                         _______ _______ _______ _____ _____    ______ ____
ROOT
ATOM      1  C   UNL     1       5.683   5.112  19.171  0.00  0.00    +0.000 C 
ENDROOT
BRANCH   1   2
ATOM      2  N   UNL     1       4.463   4.372  19.450  0.00  0.00    +0.000 N 
ATOM      3  C   UNL     1       4.430   3.008  19.659  0.00  0.00    +0.000 A 
ATOM      4  C   UNL     1       3.144   2.679  19.952  0.00  0.00    +0.000 A 
ATOM      5  N   UNL     1       2.419   3.849  19.919  0.00  0.00    +0.000 N 
ATOM      6  C   UNL     1       0.984   3.951  20.192  0.00  0.00    +0.000 C 
ATOM      7  C   UNL     1       3.226   4.916  19.626  0.00  0.00    +0.000 A 
BRANCH   7   8
ATOM      8  C   UNL     1       2.837   6.264  19.514  0.00  0.00    +0.000 C 
ATOM      9  N   UNL     1       2.645   6.896  18.388  0.00  0.00    +0.000 NA
BRANCH   9  10
ATOM     10  O   UNL     1       2.275   8.216  18.661  0.00  0.00    +0.000 OA
ATOM     11  H   UNL     1       1.629   8.423  17.957  0.00  0.00    +0.000 HD
ENDBRANCH   9  10
ENDBRANCH   7   8
ENDBRANCH   1   2
BRANCH   1  12
ATOM     12  O   UNL     1       6.449   4.326  18.288  0.00  0.00    +0.000 OA
BRANCH  12  13
ATOM     13  C   UNL     1       6.490   4.931  16.995  0.00  0.00    +0.000 C 
BRANCH  13  14
ATOM     14  C   UNL     1       5.371   4.349  16.153  0.00  0.00    +0.000 C 
BRANCH  14  15
ATOM     15  C   UNL     1       5.958   3.604  14.962  0.00  0.00    +0.000 C 
BRANCH  15  16
ATOM     16  C   UNL     1       6.545   4.579  13.954  0.00  0.00    +0.000 C 
BRANCH  16  17
ATOM     17  C   UNL     1       6.820   3.889  12.624  0.00  0.00    +0.000 C 
BRANCH  17  18
ATOM     18  C   UNL     1       5.519   3.322  12.069  0.00  0.00    +0.000 C 
BRANCH  18  20
ATOM     19  C   UNL     1       7.137   1.719  11.043  0.00  0.00    +0.000 C 
ATOM     20  C   UNL     1       5.710   1.915  11.527  0.00  0.00    +0.000 C 
ENDBRANCH  18  20
ENDBRANCH  17  18
ENDBRANCH  16  17
ENDBRANCH  15  16
ENDBRANCH  14  15
ENDBRANCH  13  14
ENDBRANCH  12  13
ENDBRANCH   1  12
TORSDOF 11
ENDMDL
MODEL 5
REMARK VINA RESULT:      -5.5      2.861      6.336
REMARK  Name = 
REMARK  13 active torsions:
REMARK  status: ('A' for Active; 'I' for Inactive)
REMARK    1  A    between atoms: C_1  and  C_2
REMARK    2  A    between atoms: C_2  and  C_3
REMARK    3  A    between atoms: C_3  and  C_4
REMARK    4  A    between atoms: C_4  and  C_5
REMARK    5  A    between atoms: C_5  and  C_6
REMARK    6  A    between atoms: C_6  and  C_7
REMARK    7  A    between atoms: C_7  and  C_8
REMARK    8  A    between atoms: C_8  and  O_9
REMARK    9  A    between atoms: O_9  and  C_10
REMARK   10  A    between atoms: C_10  and  N_11
REMARK   11  A    between atoms: N_14  and  C_15
REMARK   12  A    between atoms: C_16  and  C_17
REMARK   13  A    between atoms: N_18  and  O_19
REMARK                            x       y       z     vdW  Elec       q    Type
REMARK                         _______ _______ _______ _____ _____    ______ ____
ROOT
ATOM      1  C   UNL     1       4.255   5.230  18.390  0.00  0.00    +0.000 C 
ENDROOT
BRANCH   1   2
ATOM      2  N   UNL     1       3.279   4.841  19.394  0.00  0.00    +0.000 N 
ATOM      3  C   UNL     1       2.353   5.711  19.934  0.00  0.00    +0.000 A 
ATOM      4  C   UNL     1       1.573   4.989  20.782  0.00  0.00    +0.000 A 
ATOM      5  N   UNL     1       2.037   3.693  20.740  0.00  0.00    +0.000 N 
ATOM      6  C   UNL     1       1.468   2.577  21.498  0.00  0.00    +0.000 C 
ATOM      7  C   UNL     1       3.087   3.577  19.868  0.00  0.00    +0.000 A 
BRANCH   7   8
ATOM      8  C   UNL     1       3.807   2.408  19.564  0.00  0.00    +0.000 C 
ATOM      9  N   UNL     1       3.507   1.572  18.607  0.00  0.00    +0.000 NA
BRANCH   9  10
ATOM     10  O   UNL     1       4.435   0.526  18.604  0.00  0.00    +0.000 OA
ATOM     11  H   UNL     1       4.488   0.272  17.662  0.00  0.00    +0.000 HD
ENDBRANCH   9  10
ENDBRANCH   7   8
ENDBRANCH   1   2
BRANCH   1  12
ATOM     12  O   UNL     1       4.184   6.632  18.267  0.00  0.00    +0.000 OA
BRANCH  12  13
ATOM     13  C   UNL     1       4.692   7.044  16.998  0.00  0.00    +0.000 C 
BRANCH  13  14
ATOM     14  C   UNL     1       5.175   5.818  16.247  0.00  0.00    +0.000 C 
BRANCH  14  15
ATOM     15  C   UNL     1       6.697   5.778  16.252  0.00  0.00    +0.000 C 
BRANCH  15  16
ATOM     16  C   UNL     1       7.208   4.636  15.391  0.00  0.00    +0.000 C 
BRANCH  16  17
ATOM     17  C   UNL     1       6.700   4.761  13.961  0.00  0.00    +0.000 C 
BRANCH  17  18
ATOM     18  C   UNL     1       5.928   3.502  13.584  0.00  0.00    +0.000 C 
BRANCH  18  20
ATOM     19  C   UNL     1       4.491   3.306  11.551  0.00  0.00    +0.000 C 
ATOM     20  C   UNL     1       5.915   3.285  12.079  0.00  0.00    +0.000 C 
ENDBRANCH  18  20
ENDBRANCH  17  18
ENDBRANCH  16  17
ENDBRANCH  15  16
ENDBRANCH  14  15
ENDBRANCH  13  14
ENDBRANCH  12  13
ENDBRANCH   1  12
TORSDOF 11
ENDMDL
MODEL 6
REMARK VINA RESULT:      -5.5      3.361      6.777
REMARK  Name = 
REMARK  13 active torsions:
REMARK  status: ('A' for Active; 'I' for Inactive)
REMARK    1  A    between atoms: C_1  and  C_2
REMARK    2  A    between atoms: C_2  and  C_3
REMARK    3  A    between atoms: C_3  and  C_4
REMARK    4  A    between atoms: C_4  and  C_5
REMARK    5  A    between atoms: C_5  and  C_6
REMARK    6  A    between atoms: C_6  and  C_7
REMARK    7  A    between atoms: C_7  and  C_8
REMARK    8  A    between atoms: C_8  and  O_9
REMARK    9  A    between atoms: O_9  and  C_10
REMARK   10  A    between atoms: C_10  and  N_11
REMARK   11  A    between atoms: N_14  and  C_15
REMARK   12  A    between atoms: C_16  and  C_17
REMARK   13  A    between atoms: N_18  and  O_19
REMARK                            x       y       z     vdW  Elec       q    Type
REMARK                         _______ _______ _______ _____ _____    ______ ____
ROOT
ATOM      1  C   UNL     1       3.321   4.726  17.511  0.00  0.00    +0.000 C 
ENDROOT
BRANCH   1   2
ATOM      2  N   UNL     1       2.782   4.554  18.849  0.00  0.00    +0.000 N 
ATOM      3  C   UNL     1       1.956   5.475  19.463  0.00  0.00    +0.000 A 
ATOM      4  C   UNL     1       1.601   4.954  20.667  0.00  0.00    +0.000 A 
ATOM      5  N   UNL     1       2.216   3.726  20.764  0.00  0.00    +0.000 N 
ATOM      6  C   UNL     1       2.088   2.815  21.903  0.00  0.00    +0.000 C 
ATOM      7  C   UNL     1       2.940   3.451  19.635  0.00  0.00    +0.000 A 
BRANCH   7   8
ATOM      8  C   UNL     1       3.692   2.291  19.375  0.00  0.00    +0.000 C 
ATOM      9  N   UNL     1       3.493   1.479  18.373  0.00  0.00    +0.000 NA
BRANCH   9  10
ATOM     10  O   UNL     1       4.422   0.436  18.437  0.00  0.00    +0.000 OA
ATOM     11  H   UNL     1       4.938   0.539  17.613  0.00  0.00    +0.000 HD
ENDBRANCH   9  10
ENDBRANCH   7   8
ENDBRANCH   1   2
BRANCH   1  12
ATOM     12  O   UNL     1       4.724   4.765  17.633  0.00  0.00    +0.000 OA
BRANCH  12  13
ATOM     13  C   UNL     1       5.340   4.310  16.428  0.00  0.00    +0.000 C 
BRANCH  13  14
ATOM     14  C   UNL     1       6.473   5.254  16.077  0.00  0.00    +0.000 C 
BRANCH  14  15
ATOM     15  C   UNL     1       7.049   4.883  14.717  0.00  0.00    +0.000 C 
BRANCH  15  16
ATOM     16  C   UNL     1       6.085   3.994  13.949  0.00  0.00    +0.000 C 
BRANCH  16  17
ATOM     17  C   UNL     1       6.555   3.789  12.515  0.00  0.00    +0.000 C 
BRANCH  17  18
ATOM     18  C   UNL     1       5.439   3.141  11.704  0.00  0.00    +0.000 C 
BRANCH  18  20
ATOM     19  C   UNL     1       6.990   1.397  10.813  0.00  0.00    +0.000 C 
ATOM     20  C   UNL     1       5.674   1.649  11.527  0.00  0.00    +0.000 C 
ENDBRANCH  18  20
ENDBRANCH  17  18
ENDBRANCH  16  17
ENDBRANCH  15  16
ENDBRANCH  14  15
ENDBRANCH  13  14
ENDBRANCH  12  13
ENDBRANCH   1  12
TORSDOF 11
ENDMDL
MODEL 7
REMARK VINA RESULT:      -5.5      2.888      6.202
REMARK  Name = 
REMARK  13 active torsions:
REMARK  status: ('A' for Active; 'I' for Inactive)
REMARK    1  A    between atoms: C_1  and  C_2
REMARK    2  A    between atoms: C_2  and  C_3
REMARK    3  A    between atoms: C_3  and  C_4
REMARK    4  A    between atoms: C_4  and  C_5
REMARK    5  A    between atoms: C_5  and  C_6
REMARK    6  A    between atoms: C_6  and  C_7
REMARK    7  A    between atoms: C_7  and  C_8
REMARK    8  A    between atoms: C_8  and  O_9
REMARK    9  A    between atoms: O_9  and  C_10
REMARK   10  A    between atoms: C_10  and  N_11
REMARK   11  A    between atoms: N_14  and  C_15
REMARK   12  A    between atoms: C_16  and  C_17
REMARK   13  A    between atoms: N_18  and  O_19
REMARK                            x       y       z     vdW  Elec       q    Type
REMARK                         _______ _______ _______ _____ _____    ______ ____
ROOT
ATOM      1  C   UNL     1       5.396   3.996  18.088  0.00  0.00    +0.000 C 
ENDROOT
BRANCH   1   2
ATOM      2  N   UNL     1       3.973   3.951  18.378  0.00  0.00    +0.000 N 
ATOM      3  C   UNL     1       3.009   4.501  17.557  0.00  0.00    +0.000 A 
ATOM      4  C   UNL     1       1.801   4.213  18.108  0.00  0.00    +0.000 A 
ATOM      5  N   UNL     1       2.051   3.491  19.254  0.00  0.00    +0.000 N 
ATOM      6  C   UNL     1       1.020   2.963  20.150  0.00  0.00    +0.000 C 
ATOM      7  C   UNL     1       3.396   3.301  19.429  0.00  0.00    +0.000 A 
BRANCH   7   8
ATOM      8  C   UNL     1       4.021   2.608  20.481  0.00  0.00    +0.000 C 
ATOM      9  N   UNL     1       5.045   1.810  20.347  0.00  0.00    +0.000 NA
BRANCH   9  10
ATOM     10  O   UNL     1       5.392   1.294  21.599  0.00  0.00    +0.000 OA
ATOM     11  H   UNL     1       5.217   2.038  22.208  0.00  0.00    +0.000 HD
ENDBRANCH   9  10
ENDBRANCH   7   8
ENDBRANCH   1   2
BRANCH   1  12
ATOM     12  O   UNL     1       5.541   4.609  16.828  0.00  0.00    +0.000 OA
BRANCH  12  13
ATOM     13  C   UNL     1       6.912   4.926  16.585  0.00  0.00    +0.000 C 
BRANCH  13  14
ATOM     14  C   UNL     1       7.439   5.727  17.759  0.00  0.00    +0.000 C 
BRANCH  14  15
ATOM     15  C   UNL     1       7.312   7.215  17.465  0.00  0.00    +0.000 C 
BRANCH  15  16
ATOM     16  C   UNL     1       8.315   8.013  18.281  0.00  0.00    +0.000 C 
BRANCH  16  17
ATOM     17  C   UNL     1       8.249   9.493  17.930  0.00  0.00    +0.000 C 
BRANCH  17  18
ATOM     18  C   UNL     1       9.142  10.280  18.883  0.00  0.00    +0.000 C 
BRANCH  18  20
ATOM     19  C   UNL     1       9.763  12.691  18.686  0.00  0.00    +0.000 C 
ATOM     20  C   UNL     1       9.995  11.294  18.138  0.00  0.00    +0.000 C 
ENDBRANCH  18  20
ENDBRANCH  17  18
ENDBRANCH  16  17
ENDBRANCH  15  16
ENDBRANCH  14  15
ENDBRANCH  13  14
ENDBRANCH  12  13
ENDBRANCH   1  12
TORSDOF 11
ENDMDL
MODEL 8
REMARK VINA RESULT:      -5.5      1.921      2.846
REMARK  Name = 
REMARK  13 active torsions:
REMARK  status: ('A' for Active; 'I' for Inactive)
REMARK    1  A    between atoms: C_1  and  C_2
REMARK    2  A    between atoms: C_2  and  C_3
REMARK    3  A    between atoms: C_3  and  C_4
REMARK    4  A    between atoms: C_4  and  C_5
REMARK    5  A    between atoms: C_5  and  C_6
REMARK    6  A    between atoms: C_6  and  C_7
REMARK    7  A    between atoms: C_7  and  C_8
REMARK    8  A    between atoms: C_8  and  O_9
REMARK    9  A    between atoms: O_9  and  C_10
REMARK   10  A    between atoms: C_10  and  N_11
REMARK   11  A    between atoms: N_14  and  C_15
REMARK   12  A    between atoms: C_16  and  C_17
REMARK   13  A    between atoms: N_18  and  O_19
REMARK                            x       y       z     vdW  Elec       q    Type
REMARK                         _______ _______ _______ _____ _____    ______ ____
ROOT
ATOM      1  C   UNL     1       4.789   3.559  16.982  0.00  0.00    +0.000 C 
ENDROOT
BRANCH   1   2
ATOM      2  N   UNL     1       5.583   4.532  17.713  0.00  0.00    +0.000 N 
ATOM      3  C   UNL     1       5.633   4.595  19.091  0.00  0.00    +0.000 A 
ATOM      4  C   UNL     1       6.517   5.575  19.416  0.00  0.00    +0.000 A 
ATOM      5  N   UNL     1       6.990   6.090  18.229  0.00  0.00    +0.000 N 
ATOM      6  C   UNL     1       7.980   7.163  18.120  0.00  0.00    +0.000 C 
ATOM      7  C   UNL     1       6.434   5.441  17.159  0.00  0.00    +0.000 A 
BRANCH   7   8
ATOM      8  C   UNL     1       6.684   5.691  15.797  0.00  0.00    +0.000 C 
ATOM      9  N   UNL     1       7.651   5.155  15.103  0.00  0.00    +0.000 NA
BRANCH   9  10
ATOM     10  O   UNL     1       7.597   5.638  13.792  0.00  0.00    +0.000 OA
ATOM     11  H   UNL     1       7.454   4.832  13.258  0.00  0.00    +0.000 HD
ENDBRANCH   9  10
ENDBRANCH   7   8
ENDBRANCH   1   2
BRANCH   1  12
ATOM     12  O   UNL     1       3.545   4.161  16.710  0.00  0.00    +0.000 OA
BRANCH  12  13
ATOM     13  C   UNL     1       2.479   3.279  17.063  0.00  0.00    +0.000 C 
BRANCH  13  14
ATOM     14  C   UNL     1       3.067   2.057  17.741  0.00  0.00    +0.000 C 
BRANCH  14  15
ATOM     15  C   UNL     1       2.339   1.796  19.052  0.00  0.00    +0.000 C 
BRANCH  15  16
ATOM     16  C   UNL     1       0.888   2.238  18.959  0.00  0.00    +0.000 C 
BRANCH  16  17
ATOM     17  C   UNL     1       0.577   3.313  19.992  0.00  0.00    +0.000 C 
BRANCH  17  18
ATOM     18  C   UNL     1       1.554   3.196  21.155  0.00  0.00    +0.000 C 
BRANCH  18  20
ATOM     19  C   UNL     1       2.029   5.480  20.261  0.00  0.00    +0.000 C 
ATOM     20  C   UNL     1       2.304   4.499  21.387  0.00  0.00    +0.000 C 
ENDBRANCH  18  20
ENDBRANCH  17  18
ENDBRANCH  16  17
ENDBRANCH  15  16
ENDBRANCH  14  15
ENDBRANCH  13  14
ENDBRANCH  12  13
ENDBRANCH   1  12
TORSDOF 11
ENDMDL
MODEL 9
REMARK VINA RESULT:      -5.4      3.068      6.315
REMARK  Name = 
REMARK  13 active torsions:
REMARK  status: ('A' for Active; 'I' for Inactive)
REMARK    1  A    between atoms: C_1  and  C_2
REMARK    2  A    between atoms: C_2  and  C_3
REMARK    3  A    between atoms: C_3  and  C_4
REMARK    4  A    between atoms: C_4  and  C_5
REMARK    5  A    between atoms: C_5  and  C_6
REMARK    6  A    between atoms: C_6  and  C_7
REMARK    7  A    between atoms: C_7  and  C_8
REMARK    8  A    between atoms: C_8  and  O_9
REMARK    9  A    between atoms: O_9  and  C_10
REMARK   10  A    between atoms: C_10  and  N_11
REMARK   11  A    between atoms: N_14  and  C_15
REMARK   12  A    between atoms: C_16  and  C_17
REMARK   13  A    between atoms: N_18  and  O_19
REMARK                            x       y       z     vdW  Elec       q    Type
REMARK                         _______ _______ _______ _____ _____    ______ ____
ROOT
ATOM      1  C   UNL     1       5.622   4.792  19.171  0.00  0.00    +0.000 C 
ENDROOT
BRANCH   1   2
ATOM      2  N   UNL     1       4.201   4.811  19.474  0.00  0.00    +0.000 N 
ATOM      3  C   UNL     1       3.480   5.970  19.676  0.00  0.00    +0.000 A 
ATOM      4  C   UNL     1       2.184   5.608  19.869  0.00  0.00    +0.000 A 
ATOM      5  N   UNL     1       2.140   4.234  19.779  0.00  0.00    +0.000 N 
ATOM      6  C   UNL     1       0.926   3.426  19.912  0.00  0.00    +0.000 C 
ATOM      7  C   UNL     1       3.382   3.721  19.515  0.00  0.00    +0.000 A 
BRANCH   7   8
ATOM      8  C   UNL     1       3.719   2.366  19.351  0.00  0.00    +0.000 C 
ATOM      9  N   UNL     1       3.730   1.730  18.211  0.00  0.00    +0.000 NA
BRANCH   9  10
ATOM     10  O   UNL     1       4.105   0.401  18.430  0.00  0.00    +0.000 OA
ATOM     11  H   UNL     1       4.722   0.214  17.696  0.00  0.00    +0.000 HD
ENDBRANCH   9  10
ENDBRANCH   7   8
ENDBRANCH   1   2
BRANCH   1  12
ATOM     12  O   UNL     1       5.744   4.704  17.770  0.00  0.00    +0.000 OA
BRANCH  12  13
ATOM     13  C   UNL     1       5.887   6.006  17.202  0.00  0.00    +0.000 C 
BRANCH  13  14
ATOM     14  C   UNL     1       5.597   5.921  15.716  0.00  0.00    +0.000 C 
BRANCH  14  15
ATOM     15  C   UNL     1       5.858   4.505  15.222  0.00  0.00    +0.000 C 
BRANCH  15  16
ATOM     16  C   UNL     1       5.230   4.288  13.855  0.00  0.00    +0.000 C 
BRANCH  16  17
ATOM     17  C   UNL     1       6.172   3.518  12.938  0.00  0.00    +0.000 C 
BRANCH  17  18
ATOM     18  C   UNL     1       5.364   2.829  11.845  0.00  0.00    +0.000 C 
BRANCH  18  20
ATOM     19  C   UNL     1       3.217   2.999  10.580  0.00  0.00    +0.000 C 
ATOM     20  C   UNL     1       4.357   3.777  11.214  0.00  0.00    +0.000 C 
ENDBRANCH  18  20
ENDBRANCH  17  18
ENDBRANCH  16  17
ENDBRANCH  15  16
ENDBRANCH  14  15
ENDBRANCH  13  14
ENDBRANCH  12  13
ENDBRANCH   1  12
TORSDOF 11
ENDMDL
