MODEL 1
REMARK VINA RESULT:      -7.7      0.000      0.000
REMARK  Name = 
REMARK  4 active torsions:
REMARK  status: ('A' for Active; 'I' for Inactive)
REMARK    1  A    between atoms: C_1  and  O_2
REMARK    2  A    between atoms: O_2  and  C_3
REMARK    3  A    between atoms: C_7  and  N_8
REMARK    4  A    between atoms: C_13  and  C_14
REMARK                            x       y       z     vdW  Elec       q    Type
REMARK                         _______ _______ _______ _____ _____    ______ ____
ROOT
ATOM      1  N   UNL     1       3.910   3.768  19.706  0.00  0.00    +0.000 N 
ATOM      2  C   UNL     1       4.128   2.576  20.391  0.00  0.00    +0.000 C 
ATOM      3  O   UNL     1       5.171   1.927  20.395  0.00  0.00    +0.000 OA
ATOM      4  C   UNL     1       2.925   2.171  21.221  0.00  0.00    +0.000 C 
ATOM      5  S   UNL     1       1.644   3.419  20.961  0.00  0.00    +0.000 S 
ATOM      6  C   UNL     1       2.506   4.135  19.539  0.00  0.00    +0.000 C 
ENDROOT
BRANCH   6   7
ATOM      7  C   UNL     1       2.203   5.608  19.341  0.00  0.00    +0.000 A 
ATOM      8  C   UNL     1       2.463   6.213  18.099  0.00  0.00    +0.000 A 
ATOM      9  C   UNL     1       2.401   7.601  17.950  0.00  0.00    +0.000 A 
ATOM     10  C   UNL     1       2.069   8.405  19.038  0.00  0.00    +0.000 A 
ATOM     11  C   UNL     1       1.728   7.812  20.250  0.00  0.00    +0.000 A 
ATOM     12 BR   UNL     1       1.284   8.900  21.731  0.00  0.00    +0.000 Br
ATOM     13  C   UNL     1       1.761   6.425  20.398  0.00  0.00    +0.000 A 
ENDBRANCH   6   7
BRANCH   1  18
ATOM     14  C   UNL     1       5.956   4.253  16.656  0.00  0.00    +0.000 A 
ATOM     15  C   UNL     1       6.901   5.179  17.102  0.00  0.00    +0.000 A 
ATOM     16  C   UNL     1       6.812   5.716  18.385  0.00  0.00    +0.000 A 
ATOM     17  C   UNL     1       5.813   5.285  19.268  0.00  0.00    +0.000 A 
ATOM     18  C   UNL     1       4.903   4.312  18.853  0.00  0.00    +0.000 A 
ATOM     19  C   UNL     1       4.953   3.853  17.531  0.00  0.00    +0.000 A 
BRANCH  14  21
ATOM     20  C   UNL     1       6.578   4.663  14.397  0.00  0.00    +0.000 C 
ATOM     21  O   UNL     1       6.156   3.745  15.403  0.00  0.00    +0.000 OA
ENDBRANCH  14  21
ENDBRANCH   1  18
TORSDOF 3
ENDMDL
MODEL 2
REMARK VINA RESULT:      -7.7      1.121      1.764
REMARK  Name = 
REMARK  4 active torsions:
REMARK  status: ('A' for Active; 'I' for Inactive)
REMARK    1  A    between atoms: C_1  and  O_2
REMARK    2  A    between atoms: O_2  and  C_3
REMARK    3  A    between atoms: C_7  and  N_8
REMARK    4  A    between atoms: C_13  and  C_14
REMARK                            x       y       z     vdW  Elec       q    Type
REMARK                         _______ _______ _______ _____ _____    ______ ____
ROOT
ATOM      1  N   UNL     1       3.862   3.737  19.674  0.00  0.00    +0.000 N 
ATOM      2  C   UNL     1       4.127   2.568  20.382  0.00  0.00    +0.000 C 
ATOM      3  O   UNL     1       5.149   1.892  20.301  0.00  0.00    +0.000 OA
ATOM      4  C   UNL     1       3.014   2.231  21.356  0.00  0.00    +0.000 C 
ATOM      5  S   UNL     1       1.741   3.500  21.183  0.00  0.00    +0.000 S 
ATOM      6  C   UNL     1       2.456   4.134  19.646  0.00  0.00    +0.000 C 
ENDROOT
BRANCH   6   7
ATOM      7  C   UNL     1       2.166   5.605  19.418  0.00  0.00    +0.000 A 
ATOM      8  C   UNL     1       2.451   6.187  18.170  0.00  0.00    +0.000 A 
ATOM      9  C   UNL     1       2.401   7.573  17.997  0.00  0.00    +0.000 A 
ATOM     10  C   UNL     1       2.055   8.398  19.065  0.00  0.00    +0.000 A 
ATOM     11  C   UNL     1       1.688   7.828  20.281  0.00  0.00    +0.000 A 
ATOM     12 BR   UNL     1       1.225   8.943  21.735  0.00  0.00    +0.000 Br
ATOM     13  C   UNL     1       1.710   6.443  20.452  0.00  0.00    +0.000 A 
ENDBRANCH   6   7
BRANCH   1  18
ATOM     14  C   UNL     1       6.655   5.677  18.205  0.00  0.00    +0.000 A 
ATOM     15  C   UNL     1       6.524   5.366  16.850  0.00  0.00    +0.000 A 
ATOM     16  C   UNL     1       5.570   4.443  16.427  0.00  0.00    +0.000 A 
ATOM     17  C   UNL     1       4.683   3.865  17.346  0.00  0.00    +0.000 A 
ATOM     18  C   UNL     1       4.765   4.218  18.694  0.00  0.00    +0.000 A 
ATOM     19  C   UNL     1       5.790   5.077  19.111  0.00  0.00    +0.000 A 
BRANCH  14  21
ATOM     20  C   UNL     1       7.678   7.747  17.636  0.00  0.00    +0.000 C 
ATOM     21  O   UNL     1       7.584   6.630  18.516  0.00  0.00    +0.000 OA
ENDBRANCH  14  21
ENDBRANCH   1  18
TORSDOF 3
ENDMDL
MODEL 3
REMARK VINA RESULT:      -7.5      3.112      5.521
REMARK  Name = 
REMARK  4 active torsions:
REMARK  status: ('A' for Active; 'I' for Inactive)
REMARK    1  A    between atoms: C_1  and  O_2
REMARK    2  A    between atoms: O_2  and  C_3
REMARK    3  A    between atoms: C_7  and  N_8
REMARK    4  A    between atoms: C_13  and  C_14
REMARK                            x       y       z     vdW  Elec       q    Type
REMARK                         _______ _______ _______ _____ _____    ______ ____
ROOT
ATOM      1  N   UNL     1       2.724   4.415  19.280  0.00  0.00    +0.000 N 
ATOM      2  C   UNL     1       1.696   3.561  19.670  0.00  0.00    +0.000 C 
ATOM      3  O   UNL     1       0.527   3.884  19.866  0.00  0.00    +0.000 OA
ATOM      4  C   UNL     1       2.161   2.121  19.767  0.00  0.00    +0.000 C 
ATOM      5  S   UNL     1       3.919   2.092  19.354  0.00  0.00    +0.000 S 
ATOM      6  C   UNL     1       4.072   3.890  19.489  0.00  0.00    +0.000 C 
ENDROOT
BRANCH   6   7
ATOM      7  C   UNL     1       5.170   4.460  18.611  0.00  0.00    +0.000 A 
ATOM      8  C   UNL     1       6.071   5.399  19.144  0.00  0.00    +0.000 A 
ATOM      9  C   UNL     1       6.950   6.101  18.313  0.00  0.00    +0.000 A 
ATOM     10  C   UNL     1       6.949   5.867  16.940  0.00  0.00    +0.000 A 
ATOM     11  C   UNL     1       6.121   4.879  16.414  0.00  0.00    +0.000 A 
ATOM     12 BR   UNL     1       6.110   4.564  14.549  0.00  0.00    +0.000 Br
ATOM     13  C   UNL     1       5.261   4.156  17.241  0.00  0.00    +0.000 A 
ENDBRANCH   6   7
BRANCH   1  18
ATOM     14  C   UNL     1       1.852   7.880  20.256  0.00  0.00    +0.000 A 
ATOM     15  C   UNL     1       1.900   8.535  19.024  0.00  0.00    +0.000 A 
ATOM     16  C   UNL     1       2.309   7.853  17.879  0.00  0.00    +0.000 A 
ATOM     17  C   UNL     1       2.613   6.486  17.935  0.00  0.00    +0.000 A 
ATOM     18  C   UNL     1       2.507   5.809  19.151  0.00  0.00    +0.000 A 
ATOM     19  C   UNL     1       2.183   6.532  20.307  0.00  0.00    +0.000 A 
BRANCH  14  21
ATOM     20  C   UNL     1      -0.022   8.654  21.499  0.00  0.00    +0.000 C 
ATOM     21  O   UNL     1       1.390   8.617  21.311  0.00  0.00    +0.000 OA
ENDBRANCH  14  21
ENDBRANCH   1  18
TORSDOF 3
ENDMDL
MODEL 4
REMARK VINA RESULT:      -7.5      1.608      1.924
REMARK  Name = 
REMARK  4 active torsions:
REMARK  status: ('A' for Active; 'I' for Inactive)
REMARK    1  A    between atoms: C_1  and  O_2
REMARK    2  A    between atoms: O_2  and  C_3
REMARK    3  A    between atoms: C_7  and  N_8
REMARK    4  A    between atoms: C_13  and  C_14
REMARK                            x       y       z     vdW  Elec       q    Type
REMARK                         _______ _______ _______ _____ _____    ______ ____
ROOT
ATOM      1  N   UNL     1       3.573   3.634  18.369  0.00  0.00    +0.000 N 
ATOM      2  C   UNL     1       3.442   2.259  18.189  0.00  0.00    +0.000 C 
ATOM      3  O   UNL     1       4.359   1.469  17.984  0.00  0.00    +0.000 OA
ATOM      4  C   UNL     1       2.004   1.802  18.345  0.00  0.00    +0.000 C 
ATOM      5  S   UNL     1       1.005   3.269  18.683  0.00  0.00    +0.000 S 
ATOM      6  C   UNL     1       2.337   4.397  18.207  0.00  0.00    +0.000 C 
ENDROOT
BRANCH   6   7
ATOM      7  C   UNL     1       2.264   5.736  18.915  0.00  0.00    +0.000 A 
ATOM      8  C   UNL     1       2.011   5.781  20.297  0.00  0.00    +0.000 A 
ATOM      9  C   UNL     1       1.723   6.991  20.935  0.00  0.00    +0.000 A 
ATOM     10  C   UNL     1       1.696   8.176  20.203  0.00  0.00    +0.000 A 
ATOM     11  C   UNL     1       2.029   8.155  18.852  0.00  0.00    +0.000 A 
ATOM     12 BR   UNL     1       1.985   9.759  17.852  0.00  0.00    +0.000 Br
ATOM     13  C   UNL     1       2.343   6.954  18.215  0.00  0.00    +0.000 A 
ENDBRANCH   6   7
BRANCH   1  18
ATOM     14  C   UNL     1       6.701   4.818  16.776  0.00  0.00    +0.000 A 
ATOM     15  C   UNL     1       7.384   5.353  17.870  0.00  0.00    +0.000 A 
ATOM     16  C   UNL     1       6.775   5.406  19.123  0.00  0.00    +0.000 A 
ATOM     17  C   UNL     1       5.497   4.863  19.317  0.00  0.00    +0.000 A 
ATOM     18  C   UNL     1       4.834   4.270  18.242  0.00  0.00    +0.000 A 
ATOM     19  C   UNL     1       5.424   4.308  16.972  0.00  0.00    +0.000 A 
BRANCH  14  21
ATOM     20  C   UNL     1       6.641   4.544  14.414  0.00  0.00    +0.000 C 
ATOM     21  O   UNL     1       7.398   4.762  15.602  0.00  0.00    +0.000 OA
ENDBRANCH  14  21
ENDBRANCH   1  18
TORSDOF 3
ENDMDL
MODEL 5
REMARK VINA RESULT:      -7.2      1.868      2.597
REMARK  Name = 
REMARK  4 active torsions:
REMARK  status: ('A' for Active; 'I' for Inactive)
REMARK    1  A    between atoms: C_1  and  O_2
REMARK    2  A    between atoms: O_2  and  C_3
REMARK    3  A    between atoms: C_7  and  N_8
REMARK    4  A    between atoms: C_13  and  C_14
REMARK                            x       y       z     vdW  Elec       q    Type
REMARK                         _______ _______ _______ _____ _____    ______ ____
ROOT
ATOM      1  N   UNL     1       3.172   3.375  18.424  0.00  0.00    +0.000 N 
ATOM      2  C   UNL     1       3.012   1.992  18.383  0.00  0.00    +0.000 C 
ATOM      3  O   UNL     1       3.858   1.179  18.019  0.00  0.00    +0.000 OA
ATOM      4  C   UNL     1       1.660   1.562  18.918  0.00  0.00    +0.000 C 
ATOM      5  S   UNL     1       0.761   3.059  19.381  0.00  0.00    +0.000 S 
ATOM      6  C   UNL     1       1.929   4.136  18.513  0.00  0.00    +0.000 C 
ENDROOT
BRANCH   6   7
ATOM      7  C   UNL     1       2.020   5.524  19.119  0.00  0.00    +0.000 A 
ATOM      8  C   UNL     1       1.810   5.699  20.498  0.00  0.00    +0.000 A 
ATOM      9  C   UNL     1       1.672   6.977  21.046  0.00  0.00    +0.000 A 
ATOM     10  C   UNL     1       1.753   8.100  20.226  0.00  0.00    +0.000 A 
ATOM     11  C   UNL     1       2.045   7.943  18.875  0.00  0.00    +0.000 A 
ATOM     12 BR   UNL     1       2.147   9.464  17.756  0.00  0.00    +0.000 Br
ATOM     13  C   UNL     1       2.210   6.671  18.326  0.00  0.00    +0.000 A 
ENDBRANCH   6   7
BRANCH   1  18
ATOM     14  C   UNL     1       6.504   4.991  18.518  0.00  0.00    +0.000 A 
ATOM     15  C   UNL     1       6.683   5.335  17.177  0.00  0.00    +0.000 A 
ATOM     16  C   UNL     1       5.744   4.953  16.220  0.00  0.00    +0.000 A 
ATOM     17  C   UNL     1       4.575   4.279  16.600  0.00  0.00    +0.000 A 
ATOM     18  C   UNL     1       4.359   3.987  17.948  0.00  0.00    +0.000 A 
ATOM     19  C   UNL     1       5.356   4.298  18.880  0.00  0.00    +0.000 A 
BRANCH  14  21
ATOM     20  C   UNL     1       8.204   6.592  18.974  0.00  0.00    +0.000 C 
ATOM     21  O   UNL     1       7.452   5.454  19.388  0.00  0.00    +0.000 OA
ENDBRANCH  14  21
ENDBRANCH   1  18
TORSDOF 3
ENDMDL
MODEL 6
REMARK VINA RESULT:      -7.2      2.902      5.425
REMARK  Name = 
REMARK  4 active torsions:
REMARK  status: ('A' for Active; 'I' for Inactive)
REMARK    1  A    between atoms: C_1  and  O_2
REMARK    2  A    between atoms: O_2  and  C_3
REMARK    3  A    between atoms: C_7  and  N_8
REMARK    4  A    between atoms: C_13  and  C_14
REMARK                            x       y       z     vdW  Elec       q    Type
REMARK                         _______ _______ _______ _____ _____    ______ ____
ROOT
ATOM      1  N   UNL     1       2.565   4.483  19.039  0.00  0.00    +0.000 N 
ATOM      2  C   UNL     1       1.634   3.600  19.579  0.00  0.00    +0.000 C 
ATOM      3  O   UNL     1       0.539   3.902  20.044  0.00  0.00    +0.000 OA
ATOM      4  C   UNL     1       2.093   2.158  19.472  0.00  0.00    +0.000 C 
ATOM      5  S   UNL     1       3.722   2.166  18.691  0.00  0.00    +0.000 S 
ATOM      6  C   UNL     1       3.920   3.951  18.917  0.00  0.00    +0.000 C 
ENDROOT
BRANCH   6   7
ATOM      7  C   UNL     1       4.811   4.587  17.867  0.00  0.00    +0.000 A 
ATOM      8  C   UNL     1       4.929   3.992  16.598  0.00  0.00    +0.000 A 
ATOM      9  C   UNL     1       5.899   4.426  15.690  0.00  0.00    +0.000 A 
ATOM     10  C   UNL     1       6.759   5.467  16.032  0.00  0.00    +0.000 A 
ATOM     11  C   UNL     1       6.595   6.119  17.250  0.00  0.00    +0.000 A 
ATOM     12 BR   UNL     1       7.765   7.528  17.722  0.00  0.00    +0.000 Br
ATOM     13  C   UNL     1       5.611   5.709  18.151  0.00  0.00    +0.000 A 
ENDBRANCH   6   7
BRANCH   1  18
ATOM     14  C   UNL     1       1.775   7.836  20.401  0.00  0.00    +0.000 A 
ATOM     15  C   UNL     1       1.731   8.605  19.236  0.00  0.00    +0.000 A 
ATOM     16  C   UNL     1       2.051   8.036  18.004  0.00  0.00    +0.000 A 
ATOM     17  C   UNL     1       2.356   6.672  17.908  0.00  0.00    +0.000 A 
ATOM     18  C   UNL     1       2.341   5.883  19.060  0.00  0.00    +0.000 A 
ATOM     19  C   UNL     1       2.107   6.491  20.299  0.00  0.00    +0.000 A 
BRANCH  14  21
ATOM     20  C   UNL     1       0.120   9.104  21.546  0.00  0.00    +0.000 C 
ATOM     21  O   UNL     1       1.396   8.468  21.552  0.00  0.00    +0.000 OA
ENDBRANCH  14  21
ENDBRANCH   1  18
TORSDOF 3
ENDMDL
MODEL 7
REMARK VINA RESULT:      -7.1      3.038      5.035
REMARK  Name = 
REMARK  4 active torsions:
REMARK  status: ('A' for Active; 'I' for Inactive)
REMARK    1  A    between atoms: C_1  and  O_2
REMARK    2  A    between atoms: O_2  and  C_3
REMARK    3  A    between atoms: C_7  and  N_8
REMARK    4  A    between atoms: C_13  and  C_14
REMARK                            x       y       z     vdW  Elec       q    Type
REMARK                         _______ _______ _______ _____ _____    ______ ____
ROOT
ATOM      1  N   UNL     1       2.494   3.862  19.027  0.00  0.00    +0.000 N 
ATOM      2  C   UNL     1       1.462   2.932  19.128  0.00  0.00    +0.000 C 
ATOM      3  O   UNL     1       0.285   3.185  19.370  0.00  0.00    +0.000 OA
ATOM      4  C   UNL     1       1.938   1.523  18.830  0.00  0.00    +0.000 C 
ATOM      5  S   UNL     1       3.708   1.613  18.482  0.00  0.00    +0.000 S 
ATOM      6  C   UNL     1       3.839   3.301  19.123  0.00  0.00    +0.000 C 
ENDROOT
BRANCH   6   7
ATOM      7  C   UNL     1       4.958   4.096  18.477  0.00  0.00    +0.000 A 
ATOM      8  C   UNL     1       5.692   5.017  19.245  0.00  0.00    +0.000 A 
ATOM      9  C   UNL     1       6.575   5.915  18.638  0.00  0.00    +0.000 A 
ATOM     10  C   UNL     1       6.745   5.899  17.255  0.00  0.00    +0.000 A 
ATOM     11  C   UNL     1       6.088   4.936  16.495  0.00  0.00    +0.000 A 
ATOM     12 BR   UNL     1       6.309   4.916  14.617  0.00  0.00    +0.000 Br
ATOM     13  C   UNL     1       5.226   4.019  17.098  0.00  0.00    +0.000 A 
ENDBRANCH   6   7
BRANCH   1  18
ATOM     14  C   UNL     1       2.230   7.502  18.396  0.00  0.00    +0.000 A 
ATOM     15  C   UNL     1       1.994   7.990  19.683  0.00  0.00    +0.000 A 
ATOM     16  C   UNL     1       1.830   7.109  20.751  0.00  0.00    +0.000 A 
ATOM     17  C   UNL     1       1.967   5.727  20.562  0.00  0.00    +0.000 A 
ATOM     18  C   UNL     1       2.266   5.236  19.290  0.00  0.00    +0.000 A 
ATOM     19  C   UNL     1       2.336   6.129  18.214  0.00  0.00    +0.000 A 
BRANCH  14  21
ATOM     20  C   UNL     1       2.069   9.785  17.746  0.00  0.00    +0.000 C 
ATOM     21  O   UNL     1       2.427   8.443  17.424  0.00  0.00    +0.000 OA
ENDBRANCH  14  21
ENDBRANCH   1  18
TORSDOF 3
ENDMDL
MODEL 8
REMARK VINA RESULT:      -7.0      2.818      4.896
REMARK  Name = 
REMARK  4 active torsions:
REMARK  status: ('A' for Active; 'I' for Inactive)
REMARK    1  A    between atoms: C_1  and  O_2
REMARK    2  A    between atoms: O_2  and  C_3
REMARK    3  A    between atoms: C_7  and  N_8
REMARK    4  A    between atoms: C_13  and  C_14
REMARK                            x       y       z     vdW  Elec       q    Type
REMARK                         _______ _______ _______ _____ _____    ______ ____
ROOT
ATOM      1  N   UNL     1       2.432   4.098  18.974  0.00  0.00    +0.000 N 
ATOM      2  C   UNL     1       1.507   3.119  19.326  0.00  0.00    +0.000 C 
ATOM      3  O   UNL     1       0.407   3.317  19.835  0.00  0.00    +0.000 OA
ATOM      4  C   UNL     1       1.978   1.729  18.942  0.00  0.00    +0.000 C 
ATOM      5  S   UNL     1       3.609   1.902  18.186  0.00  0.00    +0.000 S 
ATOM      6  C   UNL     1       3.792   3.609  18.757  0.00  0.00    +0.000 C 
ENDROOT
BRANCH   6   7
ATOM      7  C   UNL     1       4.682   4.445  17.856  0.00  0.00    +0.000 A 
ATOM      8  C   UNL     1       4.666   4.231  16.467  0.00  0.00    +0.000 A 
ATOM      9  C   UNL     1       5.621   4.826  15.638  0.00  0.00    +0.000 A 
ATOM     10  C   UNL     1       6.601   5.653  16.185  0.00  0.00    +0.000 A 
ATOM     11  C   UNL     1       6.574   5.939  17.546  0.00  0.00    +0.000 A 
ATOM     12 BR   UNL     1       7.906   7.054  18.293  0.00  0.00    +0.000 Br
ATOM     13  C   UNL     1       5.607   5.370  18.375  0.00  0.00    +0.000 A 
ENDBRANCH   6   7
BRANCH   1  18
ATOM     14  C   UNL     1       2.107   7.745  18.413  0.00  0.00    +0.000 A 
ATOM     15  C   UNL     1       1.903   8.208  19.714  0.00  0.00    +0.000 A 
ATOM     16  C   UNL     1       1.780   7.308  20.771  0.00  0.00    +0.000 A 
ATOM     17  C   UNL     1       1.928   5.931  20.554  0.00  0.00    +0.000 A 
ATOM     18  C   UNL     1       2.196   5.464  19.266  0.00  0.00    +0.000 A 
ATOM     19  C   UNL     1       2.224   6.376  18.204  0.00  0.00    +0.000 A 
BRANCH  14  21
ATOM     20  C   UNL     1       2.033  10.054  17.846  0.00  0.00    +0.000 C 
ATOM     21  O   UNL     1       2.266   8.704  17.451  0.00  0.00    +0.000 OA
ENDBRANCH  14  21
ENDBRANCH   1  18
TORSDOF 3
ENDMDL
MODEL 9
REMARK VINA RESULT:      -6.7      2.208      4.681
REMARK  Name = 
REMARK  4 active torsions:
REMARK  status: ('A' for Active; 'I' for Inactive)
REMARK    1  A    between atoms: C_1  and  O_2
REMARK    2  A    between atoms: O_2  and  C_3
REMARK    3  A    between atoms: C_7  and  N_8
REMARK    4  A    between atoms: C_13  and  C_14
REMARK                            x       y       z     vdW  Elec       q    Type
REMARK                         _______ _______ _______ _____ _____    ______ ____
ROOT
ATOM      1  N   UNL     1       3.762   5.092  17.685  0.00  0.00    +0.000 N 
ATOM      2  C   UNL     1       4.734   4.455  16.918  0.00  0.00    +0.000 C 
ATOM      3  O   UNL     1       4.807   3.248  16.705  0.00  0.00    +0.000 OA
ATOM      4  C   UNL     1       5.696   5.443  16.288  0.00  0.00    +0.000 C 
ATOM      5  S   UNL     1       5.200   7.096  16.822  0.00  0.00    +0.000 S 
ATOM      6  C   UNL     1       4.102   6.449  18.107  0.00  0.00    +0.000 C 
ENDROOT
BRANCH   6   7
ATOM      7  C   UNL     1       2.944   7.376  18.422  0.00  0.00    +0.000 A 
ATOM      8  C   UNL     1       2.479   8.270  17.441  0.00  0.00    +0.000 A 
ATOM      9  C   UNL     1       1.568   9.279  17.764  0.00  0.00    +0.000 A 
ATOM     10  C   UNL     1       1.099   9.404  19.070  0.00  0.00    +0.000 A 
ATOM     11  C   UNL     1       1.486   8.473  20.029  0.00  0.00    +0.000 A 
ATOM     12 BR   UNL     1       0.859   8.643  21.805  0.00  0.00    +0.000 Br
ATOM     13  C   UNL     1       2.375   7.447  19.707  0.00  0.00    +0.000 A 
ENDBRANCH   6   7
BRANCH   1  18
ATOM     14  C   UNL     1       2.186   3.160  20.425  0.00  0.00    +0.000 A 
ATOM     15  C   UNL     1       0.995   2.747  19.823  0.00  0.00    +0.000 A 
ATOM     16  C   UNL     1       0.666   3.182  18.540  0.00  0.00    +0.000 A 
ATOM     17  C   UNL     1       1.556   3.983  17.811  0.00  0.00    +0.000 A 
ATOM     18  C   UNL     1       2.776   4.347  18.381  0.00  0.00    +0.000 A 
ATOM     19  C   UNL     1       3.047   3.977  19.704  0.00  0.00    +0.000 A 
BRANCH  14  21
ATOM     20  C   UNL     1       1.319   2.240  22.440  0.00  0.00    +0.000 C 
ATOM     21  O   UNL     1       2.445   2.641  21.663  0.00  0.00    +0.000 OA
ENDBRANCH  14  21
ENDBRANCH   1  18
TORSDOF 3
ENDMDL
