MODEL 1
REMARK VINA RESULT:      -6.3      0.000      0.000
REMARK  Name = 
REMARK  12 active torsions:
REMARK  status: ('A' for Active; 'I' for Inactive)
REMARK    1  A    between atoms: C_1  and  C_2
REMARK    2  A    between atoms: C_2  and  O_4
REMARK    3  A    between atoms: O_4  and  C_5
REMARK    4  A    between atoms: C_5  and  C_6
REMARK    5  A    between atoms: C_6  and  C_7
REMARK    6  A    between atoms: C_7  and  C_8
REMARK    7  A    between atoms: C_8  and  C_9
REMARK    8  A    between atoms: C_9  and  S_10
REMARK    9  A    between atoms: S_10  and  C_11
REMARK   10  A    between atoms: C_16  and  O_17
REMARK   11  A    between atoms: O_17  and  C_18
REMARK   12  A    between atoms: C_18  and  C_19
REMARK                            x       y       z     vdW  Elec       q    Type
REMARK                         _______ _______ _______ _____ _____    ______ ____
ROOT
ATOM      1  S   UNL     1       4.834   3.998  18.797  0.00  0.00    +0.000 S 
ENDROOT
BRANCH   1   2
ATOM      2  C   UNL     1       3.380   3.747  19.808  0.00  0.00    +0.000 A 
ATOM      3  C   UNL     1       3.349   2.701  20.742  0.00  0.00    +0.000 A 
ATOM      4  C   UNL     1       2.175   2.397  21.434  0.00  0.00    +0.000 A 
ATOM      5  C   UNL     1       1.013   3.123  21.191  0.00  0.00    +0.000 A 
ATOM      6  C   UNL     1       1.020   4.163  20.266  0.00  0.00    +0.000 A 
ATOM      7  C   UNL     1       2.204   4.490  19.594  0.00  0.00    +0.000 A 
BRANCH   7   8
ATOM      8  O   UNL     1       2.219   5.507  18.604  0.00  0.00    +0.000 OA
BRANCH   8   9
ATOM      9  C   UNL     1       2.554   6.828  18.904  0.00  0.00    +0.000 C 
ATOM     10  C   UNL     1       3.321   7.417  17.758  0.00  0.00    +0.000 C 
ATOM     11  O   UNL     1       2.253   7.453  19.913  0.00  0.00    +0.000 OA
ENDBRANCH   8   9
ENDBRANCH   7   8
ENDBRANCH   1   2
BRANCH   1  12
ATOM     12  C   UNL     1       4.291   3.363  17.169  0.00  0.00    +0.000 C 
BRANCH  12  13
ATOM     13  C   UNL     1       4.713   4.303  16.032  0.00  0.00    +0.000 C 
BRANCH  13  14
ATOM     14  C   UNL     1       5.898   3.835  15.174  0.00  0.00    +0.000 C 
BRANCH  14  15
ATOM     15  C   UNL     1       7.058   4.833  15.164  0.00  0.00    +0.000 C 
BRANCH  15  16
ATOM     16  C   UNL     1       7.292   5.453  16.540  0.00  0.00    +0.000 C 
BRANCH  16  17
ATOM     17  O   UNL     1       7.527   6.864  16.441  0.00  0.00    +0.000 OA
BRANCH  17  19
ATOM     18  C   UNL     1       7.847   6.503  18.731  0.00  0.00    +0.000 C 
ATOM     19  C   UNL     1       7.774   7.498  17.616  0.00  0.00    +0.000 C 
ATOM     20  O   UNL     1       7.906   8.706  17.762  0.00  0.00    +0.000 OA
ENDBRANCH  17  19
ENDBRANCH  16  17
ENDBRANCH  15  16
ENDBRANCH  14  15
ENDBRANCH  13  14
ENDBRANCH  12  13
ENDBRANCH   1  12
TORSDOF 10
ENDMDL
MODEL 2
REMARK VINA RESULT:      -6.2      1.786      5.838
REMARK  Name = 
REMARK  12 active torsions:
REMARK  status: ('A' for Active; 'I' for Inactive)
REMARK    1  A    between atoms: C_1  and  C_2
REMARK    2  A    between atoms: C_2  and  O_4
REMARK    3  A    between atoms: O_4  and  C_5
REMARK    4  A    between atoms: C_5  and  C_6
REMARK    5  A    between atoms: C_6  and  C_7
REMARK    6  A    between atoms: C_7  and  C_8
REMARK    7  A    between atoms: C_8  and  C_9
REMARK    8  A    between atoms: C_9  and  S_10
REMARK    9  A    between atoms: S_10  and  C_11
REMARK   10  A    between atoms: C_16  and  O_17
REMARK   11  A    between atoms: O_17  and  C_18
REMARK   12  A    between atoms: C_18  and  C_19
REMARK                            x       y       z     vdW  Elec       q    Type
REMARK                         _______ _______ _______ _____ _____    ______ ____
ROOT
ATOM      1  S   UNL     1       3.728   3.557  17.163  0.00  0.00    +0.000 S 
ENDROOT
BRANCH   1   2
ATOM      2  C   UNL     1       5.285   4.211  17.754  0.00  0.00    +0.000 A 
ATOM      3  C   UNL     1       5.352   4.830  19.011  0.00  0.00    +0.000 A 
ATOM      4  C   UNL     1       6.518   5.475  19.427  0.00  0.00    +0.000 A 
ATOM      5  C   UNL     1       7.627   5.525  18.587  0.00  0.00    +0.000 A 
ATOM      6  C   UNL     1       7.581   4.920  17.334  0.00  0.00    +0.000 A 
ATOM      7  C   UNL     1       6.423   4.246  16.927  0.00  0.00    +0.000 A 
BRANCH   7   8
ATOM      8  O   UNL     1       6.334   3.674  15.632  0.00  0.00    +0.000 OA
BRANCH   8   9
ATOM      9  C   UNL     1       6.678   4.385  14.481  0.00  0.00    +0.000 C 
ATOM     10  C   UNL     1       5.954   3.802  13.305  0.00  0.00    +0.000 C 
ATOM     11  O   UNL     1       7.417   5.358  14.411  0.00  0.00    +0.000 OA
ENDBRANCH   8   9
ENDBRANCH   7   8
ENDBRANCH   1   2
BRANCH   1  12
ATOM     12  C   UNL     1       3.536   2.040  18.169  0.00  0.00    +0.000 C 
BRANCH  12  13
ATOM     13  C   UNL     1       2.596   2.272  19.359  0.00  0.00    +0.000 C 
BRANCH  13  14
ATOM     14  C   UNL     1       1.586   3.418  19.207  0.00  0.00    +0.000 C 
BRANCH  14  15
ATOM     15  C   UNL     1       1.060   3.932  20.549  0.00  0.00    +0.000 C 
BRANCH  15  16
ATOM     16  C   UNL     1       1.522   5.360  20.835  0.00  0.00    +0.000 C 
BRANCH  16  17
ATOM     17  O   UNL     1       2.385   5.844  19.797  0.00  0.00    +0.000 OA
BRANCH  17  19
ATOM     18  C   UNL     1       2.647   7.422  18.088  0.00  0.00    +0.000 C 
ATOM     19  C   UNL     1       2.272   7.168  19.515  0.00  0.00    +0.000 C 
ATOM     20  O   UNL     1       1.927   8.040  20.301  0.00  0.00    +0.000 OA
ENDBRANCH  17  19
ENDBRANCH  16  17
ENDBRANCH  15  16
ENDBRANCH  14  15
ENDBRANCH  13  14
ENDBRANCH  12  13
ENDBRANCH   1  12
TORSDOF 10
ENDMDL
MODEL 3
REMARK VINA RESULT:      -6.1      3.051      5.245
REMARK  Name = 
REMARK  12 active torsions:
REMARK  status: ('A' for Active; 'I' for Inactive)
REMARK    1  A    between atoms: C_1  and  C_2
REMARK    2  A    between atoms: C_2  and  O_4
REMARK    3  A    between atoms: O_4  and  C_5
REMARK    4  A    between atoms: C_5  and  C_6
REMARK    5  A    between atoms: C_6  and  C_7
REMARK    6  A    between atoms: C_7  and  C_8
REMARK    7  A    between atoms: C_8  and  C_9
REMARK    8  A    between atoms: C_9  and  S_10
REMARK    9  A    between atoms: S_10  and  C_11
REMARK   10  A    between atoms: C_16  and  O_17
REMARK   11  A    between atoms: O_17  and  C_18
REMARK   12  A    between atoms: C_18  and  C_19
REMARK                            x       y       z     vdW  Elec       q    Type
REMARK                         _______ _______ _______ _____ _____    ______ ____
ROOT
ATOM      1  S   UNL     1       7.559   4.859  18.082  0.00  0.00    +0.000 S 
ENDROOT
BRANCH   1   2
ATOM      2  C   UNL     1       5.781   4.732  17.936  0.00  0.00    +0.000 A 
ATOM      3  C   UNL     1       4.961   5.120  19.006  0.00  0.00    +0.000 A 
ATOM      4  C   UNL     1       3.584   4.892  18.970  0.00  0.00    +0.000 A 
ATOM      5  C   UNL     1       3.010   4.260  17.871  0.00  0.00    +0.000 A 
ATOM      6  C   UNL     1       3.805   3.865  16.799  0.00  0.00    +0.000 A 
ATOM      7  C   UNL     1       5.181   4.120  16.820  0.00  0.00    +0.000 A 
BRANCH   7   8
ATOM      8  O   UNL     1       6.018   3.672  15.765  0.00  0.00    +0.000 OA
BRANCH   8   9
ATOM      9  C   UNL     1       6.270   4.453  14.636  0.00  0.00    +0.000 C 
ATOM     10  C   UNL     1       5.858   3.696  13.409  0.00  0.00    +0.000 C 
ATOM     11  O   UNL     1       6.718   5.592  14.614  0.00  0.00    +0.000 OA
ENDBRANCH   8   9
ENDBRANCH   7   8
ENDBRANCH   1   2
BRANCH   1  12
ATOM     12  C   UNL     1       7.783   6.596  18.613  0.00  0.00    +0.000 C 
BRANCH  12  13
ATOM     13  C   UNL     1       7.746   7.557  17.416  0.00  0.00    +0.000 C 
BRANCH  13  14
ATOM     14  C   UNL     1       7.823   9.053  17.750  0.00  0.00    +0.000 C 
BRANCH  14  15
ATOM     15  C   UNL     1       8.899   9.379  18.787  0.00  0.00    +0.000 C 
BRANCH  15  16
ATOM     16  C   UNL     1       9.310  10.850  18.743  0.00  0.00    +0.000 C 
BRANCH  16  17
ATOM     17  O   UNL     1      10.316  11.078  17.747  0.00  0.00    +0.000 OA
BRANCH  17  19
ATOM     18  C   UNL     1      12.081  12.168  18.830  0.00  0.00    +0.000 C 
ATOM     19  C   UNL     1      10.966  12.267  17.837  0.00  0.00    +0.000 C 
ATOM     20  O   UNL     1      10.688  13.283  17.214  0.00  0.00    +0.000 OA
ENDBRANCH  17  19
ENDBRANCH  16  17
ENDBRANCH  15  16
ENDBRANCH  14  15
ENDBRANCH  13  14
ENDBRANCH  12  13
ENDBRANCH   1  12
TORSDOF 10
ENDMDL
MODEL 4
REMARK VINA RESULT:      -6.0      2.275      6.257
REMARK  Name = 
REMARK  12 active torsions:
REMARK  status: ('A' for Active; 'I' for Inactive)
REMARK    1  A    between atoms: C_1  and  C_2
REMARK    2  A    between atoms: C_2  and  O_4
REMARK    3  A    between atoms: O_4  and  C_5
REMARK    4  A    between atoms: C_5  and  C_6
REMARK    5  A    between atoms: C_6  and  C_7
REMARK    6  A    between atoms: C_7  and  C_8
REMARK    7  A    between atoms: C_8  and  C_9
REMARK    8  A    between atoms: C_9  and  S_10
REMARK    9  A    between atoms: S_10  and  C_11
REMARK   10  A    between atoms: C_16  and  O_17
REMARK   11  A    between atoms: O_17  and  C_18
REMARK   12  A    between atoms: C_18  and  C_19
REMARK                            x       y       z     vdW  Elec       q    Type
REMARK                         _______ _______ _______ _____ _____    ______ ____
ROOT
ATOM      1  S   UNL     1       3.561   4.853  17.197  0.00  0.00    +0.000 S 
ENDROOT
BRANCH   1   2
ATOM      2  C   UNL     1       5.251   4.834  17.780  0.00  0.00    +0.000 A 
ATOM      3  C   UNL     1       5.558   5.333  19.054  0.00  0.00    +0.000 A 
ATOM      4  C   UNL     1       6.884   5.463  19.471  0.00  0.00    +0.000 A 
ATOM      5  C   UNL     1       7.922   5.112  18.613  0.00  0.00    +0.000 A 
ATOM      6  C   UNL     1       7.641   4.618  17.342  0.00  0.00    +0.000 A 
ATOM      7  C   UNL     1       6.311   4.457  16.935  0.00  0.00    +0.000 A 
BRANCH   7   8
ATOM      8  O   UNL     1       6.003   4.011  15.623  0.00  0.00    +0.000 OA
BRANCH   8   9
ATOM      9  C   UNL     1       6.696   4.469  14.502  0.00  0.00    +0.000 C 
ATOM     10  C   UNL     1       6.235   3.712  13.293  0.00  0.00    +0.000 C 
ATOM     11  O   UNL     1       7.525   5.369  14.466  0.00  0.00    +0.000 OA
ENDBRANCH   8   9
ENDBRANCH   7   8
ENDBRANCH   1   2
BRANCH   1  12
ATOM     12  C   UNL     1       2.690   5.721  18.553  0.00  0.00    +0.000 C 
BRANCH  12  13
ATOM     13  C   UNL     1       1.550   4.866  19.124  0.00  0.00    +0.000 C 
BRANCH  13  14
ATOM     14  C   UNL     1       1.433   4.833  20.654  0.00  0.00    +0.000 C 
BRANCH  14  15
ATOM     15  C   UNL     1       1.280   3.416  21.210  0.00  0.00    +0.000 C 
BRANCH  15  16
ATOM     16  C   UNL     1       2.139   2.407  20.449  0.00  0.00    +0.000 C 
BRANCH  16  17
ATOM     17  O   UNL     1       3.534   2.722  20.565  0.00  0.00    +0.000 OA
BRANCH  17  19
ATOM     18  C   UNL     1       3.894   1.416  18.656  0.00  0.00    +0.000 C 
ATOM     19  C   UNL     1       4.384   1.818  20.012  0.00  0.00    +0.000 C 
ATOM     20  O   UNL     1       5.398   1.377  20.535  0.00  0.00    +0.000 OA
ENDBRANCH  17  19
ENDBRANCH  16  17
ENDBRANCH  15  16
ENDBRANCH  14  15
ENDBRANCH  13  14
ENDBRANCH  12  13
ENDBRANCH   1  12
TORSDOF 10
ENDMDL
MODEL 5
REMARK VINA RESULT:      -5.9      1.430      3.283
REMARK  Name = 
REMARK  12 active torsions:
REMARK  status: ('A' for Active; 'I' for Inactive)
REMARK    1  A    between atoms: C_1  and  C_2
REMARK    2  A    between atoms: C_2  and  O_4
REMARK    3  A    between atoms: O_4  and  C_5
REMARK    4  A    between atoms: C_5  and  C_6
REMARK    5  A    between atoms: C_6  and  C_7
REMARK    6  A    between atoms: C_7  and  C_8
REMARK    7  A    between atoms: C_8  and  C_9
REMARK    8  A    between atoms: C_9  and  S_10
REMARK    9  A    between atoms: S_10  and  C_11
REMARK   10  A    between atoms: C_16  and  O_17
REMARK   11  A    between atoms: O_17  and  C_18
REMARK   12  A    between atoms: C_18  and  C_19
REMARK                            x       y       z     vdW  Elec       q    Type
REMARK                         _______ _______ _______ _____ _____    ______ ____
ROOT
ATOM      1  S   UNL     1       4.812   4.538  19.150  0.00  0.00    +0.000 S 
ENDROOT
BRANCH   1   2
ATOM      2  C   UNL     1       3.655   5.883  18.923  0.00  0.00    +0.000 A 
ATOM      3  C   UNL     1       3.855   6.811  17.891  0.00  0.00    +0.000 A 
ATOM      4  C   UNL     1       3.051   7.948  17.786  0.00  0.00    +0.000 A 
ATOM      5  C   UNL     1       2.047   8.180  18.721  0.00  0.00    +0.000 A 
ATOM      6  C   UNL     1       1.833   7.274  19.756  0.00  0.00    +0.000 A 
ATOM      7  C   UNL     1       2.618   6.118  19.844  0.00  0.00    +0.000 A 
BRANCH   7   8
ATOM      8  O   UNL     1       2.456   5.211  20.924  0.00  0.00    +0.000 OA
BRANCH   8   9
ATOM      9  C   UNL     1       1.604   4.109  20.845  0.00  0.00    +0.000 C 
ATOM     10  C   UNL     1       2.112   3.026  21.749  0.00  0.00    +0.000 C 
ATOM     11  O   UNL     1       0.576   4.019  20.186  0.00  0.00    +0.000 OA
ENDBRANCH   8   9
ENDBRANCH   7   8
ENDBRANCH   1   2
BRANCH   1  12
ATOM     12  C   UNL     1       3.994   3.165  18.258  0.00  0.00    +0.000 C 
BRANCH  12  13
ATOM     13  C   UNL     1       3.938   3.433  16.748  0.00  0.00    +0.000 C 
BRANCH  13  14
ATOM     14  C   UNL     1       5.284   3.420  16.011  0.00  0.00    +0.000 C 
BRANCH  14  15
ATOM     15  C   UNL     1       5.478   4.635  15.101  0.00  0.00    +0.000 C 
BRANCH  15  16
ATOM     16  C   UNL     1       6.860   5.263  15.272  0.00  0.00    +0.000 C 
BRANCH  16  17
ATOM     17  O   UNL     1       6.788   6.476  16.033  0.00  0.00    +0.000 OA
BRANCH  17  19
ATOM     18  C   UNL     1       7.692   7.873  17.679  0.00  0.00    +0.000 C 
ATOM     19  C   UNL     1       7.475   6.471  17.205  0.00  0.00    +0.000 C 
ATOM     20  O   UNL     1       7.877   5.476  17.794  0.00  0.00    +0.000 OA
ENDBRANCH  17  19
ENDBRANCH  16  17
ENDBRANCH  15  16
ENDBRANCH  14  15
ENDBRANCH  13  14
ENDBRANCH  12  13
ENDBRANCH   1  12
TORSDOF 10
ENDMDL
MODEL 6
REMARK VINA RESULT:      -5.9      1.880      6.268
REMARK  Name = 
REMARK  12 active torsions:
REMARK  status: ('A' for Active; 'I' for Inactive)
REMARK    1  A    between atoms: C_1  and  C_2
REMARK    2  A    between atoms: C_2  and  O_4
REMARK    3  A    between atoms: O_4  and  C_5
REMARK    4  A    between atoms: C_5  and  C_6
REMARK    5  A    between atoms: C_6  and  C_7
REMARK    6  A    between atoms: C_7  and  C_8
REMARK    7  A    between atoms: C_8  and  C_9
REMARK    8  A    between atoms: C_9  and  S_10
REMARK    9  A    between atoms: S_10  and  C_11
REMARK   10  A    between atoms: C_16  and  O_17
REMARK   11  A    between atoms: O_17  and  C_18
REMARK   12  A    between atoms: C_18  and  C_19
REMARK                            x       y       z     vdW  Elec       q    Type
REMARK                         _______ _______ _______ _____ _____    ______ ____
ROOT
ATOM      1  S   UNL     1       4.233   3.820  16.848  0.00  0.00    +0.000 S 
ENDROOT
BRANCH   1   2
ATOM      2  C   UNL     1       5.638   4.713  17.500  0.00  0.00    +0.000 A 
ATOM      3  C   UNL     1       5.920   4.670  18.873  0.00  0.00    +0.000 A 
ATOM      4  C   UNL     1       6.919   5.474  19.424  0.00  0.00    +0.000 A 
ATOM      5  C   UNL     1       7.640   6.345  18.612  0.00  0.00    +0.000 A 
ATOM      6  C   UNL     1       7.376   6.406  17.246  0.00  0.00    +0.000 A 
ATOM      7  C   UNL     1       6.395   5.579  16.688  0.00  0.00    +0.000 A 
BRANCH   7   8
ATOM      8  O   UNL     1       6.069   5.668  15.309  0.00  0.00    +0.000 OA
BRANCH   8   9
ATOM      9  C   UNL     1       6.867   5.093  14.320  0.00  0.00    +0.000 C 
ATOM     10  C   UNL     1       6.182   3.876  13.776  0.00  0.00    +0.000 C 
ATOM     11  O   UNL     1       7.942   5.510  13.907  0.00  0.00    +0.000 OA
ENDBRANCH   8   9
ENDBRANCH   7   8
ENDBRANCH   1   2
BRANCH   1  12
ATOM     12  C   UNL     1       2.871   4.396  17.925  0.00  0.00    +0.000 C 
BRANCH  12  13
ATOM     13  C   UNL     1       2.798   5.928  17.966  0.00  0.00    +0.000 C 
BRANCH  13  14
ATOM     14  C   UNL     1       3.026   6.578  19.338  0.00  0.00    +0.000 C 
BRANCH  14  15
ATOM     15  C   UNL     1       1.786   6.531  20.233  0.00  0.00    +0.000 C 
BRANCH  15  16
ATOM     16  C   UNL     1       1.461   5.109  20.685  0.00  0.00    +0.000 C 
BRANCH  16  17
ATOM     17  O   UNL     1       2.598   4.485  21.298  0.00  0.00    +0.000 OA
BRANCH  17  19
ATOM     18  C   UNL     1       1.326   2.554  21.660  0.00  0.00    +0.000 C 
ATOM     19  C   UNL     1       2.635   3.130  21.217  0.00  0.00    +0.000 C 
ATOM     20  O   UNL     1       3.592   2.461  20.851  0.00  0.00    +0.000 OA
ENDBRANCH  17  19
ENDBRANCH  16  17
ENDBRANCH  15  16
ENDBRANCH  14  15
ENDBRANCH  13  14
ENDBRANCH  12  13
ENDBRANCH   1  12
TORSDOF 10
ENDMDL
MODEL 7
REMARK VINA RESULT:      -5.9      2.355      3.666
REMARK  Name = 
REMARK  12 active torsions:
REMARK  status: ('A' for Active; 'I' for Inactive)
REMARK    1  A    between atoms: C_1  and  C_2
REMARK    2  A    between atoms: C_2  and  O_4
REMARK    3  A    between atoms: O_4  and  C_5
REMARK    4  A    between atoms: C_5  and  C_6
REMARK    5  A    between atoms: C_6  and  C_7
REMARK    6  A    between atoms: C_7  and  C_8
REMARK    7  A    between atoms: C_8  and  C_9
REMARK    8  A    between atoms: C_9  and  S_10
REMARK    9  A    between atoms: S_10  and  C_11
REMARK   10  A    between atoms: C_16  and  O_17
REMARK   11  A    between atoms: O_17  and  C_18
REMARK   12  A    between atoms: C_18  and  C_19
REMARK                            x       y       z     vdW  Elec       q    Type
REMARK                         _______ _______ _______ _____ _____    ______ ____
ROOT
ATOM      1  S   UNL     1       5.264   5.136  19.155  0.00  0.00    +0.000 S 
ENDROOT
BRANCH   1   2
ATOM      2  C   UNL     1       3.712   4.268  18.974  0.00  0.00    +0.000 A 
ATOM      3  C   UNL     1       3.610   2.926  19.368  0.00  0.00    +0.000 A 
ATOM      4  C   UNL     1       2.456   2.188  19.101  0.00  0.00    +0.000 A 
ATOM      5  C   UNL     1       1.393   2.776  18.422  0.00  0.00    +0.000 A 
ATOM      6  C   UNL     1       1.473   4.106  18.019  0.00  0.00    +0.000 A 
ATOM      7  C   UNL     1       2.618   4.856  18.313  0.00  0.00    +0.000 A 
BRANCH   7   8
ATOM      8  O   UNL     1       2.744   6.195  17.859  0.00  0.00    +0.000 OA
BRANCH   8   9
ATOM      9  C   UNL     1       2.386   7.285  18.654  0.00  0.00    +0.000 C 
ATOM     10  C   UNL     1       2.272   8.508  17.795  0.00  0.00    +0.000 C 
ATOM     11  O   UNL     1       2.155   7.274  19.857  0.00  0.00    +0.000 OA
ENDBRANCH   8   9
ENDBRANCH   7   8
ENDBRANCH   1   2
BRANCH   1  12
ATOM     12  C   UNL     1       6.334   4.280  17.942  0.00  0.00    +0.000 C 
BRANCH  12  13
ATOM     13  C   UNL     1       7.251   5.268  17.209  0.00  0.00    +0.000 C 
BRANCH  13  14
ATOM     14  C   UNL     1       7.077   5.348  15.685  0.00  0.00    +0.000 C 
BRANCH  14  15
ATOM     15  C   UNL     1       5.611   5.290  15.249  0.00  0.00    +0.000 C 
BRANCH  15  16
ATOM     16  C   UNL     1       5.369   4.205  14.202  0.00  0.00    +0.000 C 
BRANCH  16  17
ATOM     17  O   UNL     1       6.502   4.057  13.335  0.00  0.00    +0.000 OA
BRANCH  17  19
ATOM     18  C   UNL     1       4.832   3.238  11.916  0.00  0.00    +0.000 C 
ATOM     19  C   UNL     1       6.294   3.303  12.225  0.00  0.00    +0.000 C 
ATOM     20  O   UNL     1       7.162   2.740  11.570  0.00  0.00    +0.000 OA
ENDBRANCH  17  19
ENDBRANCH  16  17
ENDBRANCH  15  16
ENDBRANCH  14  15
ENDBRANCH  13  14
ENDBRANCH  12  13
ENDBRANCH   1  12
TORSDOF 10
ENDMDL
MODEL 8
REMARK VINA RESULT:      -5.8      1.841      3.733
REMARK  Name = 
REMARK  12 active torsions:
REMARK  status: ('A' for Active; 'I' for Inactive)
REMARK    1  A    between atoms: C_1  and  C_2
REMARK    2  A    between atoms: C_2  and  O_4
REMARK    3  A    between atoms: O_4  and  C_5
REMARK    4  A    between atoms: C_5  and  C_6
REMARK    5  A    between atoms: C_6  and  C_7
REMARK    6  A    between atoms: C_7  and  C_8
REMARK    7  A    between atoms: C_8  and  C_9
REMARK    8  A    between atoms: C_9  and  S_10
REMARK    9  A    between atoms: S_10  and  C_11
REMARK   10  A    between atoms: C_16  and  O_17
REMARK   11  A    between atoms: O_17  and  C_18
REMARK   12  A    between atoms: C_18  and  C_19
REMARK                            x       y       z     vdW  Elec       q    Type
REMARK                         _______ _______ _______ _____ _____    ______ ____
ROOT
ATOM      1  S   UNL     1       2.686   3.711  17.452  0.00  0.00    +0.000 S 
ENDROOT
BRANCH   1   2
ATOM      2  C   UNL     1       2.283   5.100  18.503  0.00  0.00    +0.000 A 
ATOM      3  C   UNL     1       2.557   6.406  18.072  0.00  0.00    +0.000 A 
ATOM      4  C   UNL     1       2.387   7.493  18.932  0.00  0.00    +0.000 A 
ATOM      5  C   UNL     1       1.956   7.287  20.239  0.00  0.00    +0.000 A 
ATOM      6  C   UNL     1       1.680   5.999  20.689  0.00  0.00    +0.000 A 
ATOM      7  C   UNL     1       1.821   4.912  19.819  0.00  0.00    +0.000 A 
BRANCH   7   8
ATOM      8  O   UNL     1       1.602   3.585  20.273  0.00  0.00    +0.000 OA
BRANCH   8   9
ATOM      9  C   UNL     1       2.360   3.019  21.299  0.00  0.00    +0.000 C 
ATOM     10  C   UNL     1       3.417   2.137  20.705  0.00  0.00    +0.000 C 
ATOM     11  O   UNL     1       2.236   3.217  22.501  0.00  0.00    +0.000 OA
ENDBRANCH   8   9
ENDBRANCH   7   8
ENDBRANCH   1   2
BRANCH   1  12
ATOM     12  C   UNL     1       4.509   3.824  17.339  0.00  0.00    +0.000 C 
BRANCH  12  13
ATOM     13  C   UNL     1       5.144   4.031  18.721  0.00  0.00    +0.000 C 
BRANCH  13  14
ATOM     14  C   UNL     1       5.918   5.341  18.918  0.00  0.00    +0.000 C 
BRANCH  14  15
ATOM     15  C   UNL     1       7.306   5.318  18.274  0.00  0.00    +0.000 C 
BRANCH  15  16
ATOM     16  C   UNL     1       7.339   6.088  16.956  0.00  0.00    +0.000 C 
BRANCH  16  17
ATOM     17  O   UNL     1       7.442   5.198  15.837  0.00  0.00    +0.000 OA
BRANCH  17  19
ATOM     18  C   UNL     1       6.443   4.057  14.054  0.00  0.00    +0.000 C 
ATOM     19  C   UNL     1       6.417   5.257  14.948  0.00  0.00    +0.000 C 
ATOM     20  O   UNL     1       5.591   6.157  14.867  0.00  0.00    +0.000 OA
ENDBRANCH  17  19
ENDBRANCH  16  17
ENDBRANCH  15  16
ENDBRANCH  14  15
ENDBRANCH  13  14
ENDBRANCH  12  13
ENDBRANCH   1  12
TORSDOF 10
ENDMDL
MODEL 9
REMARK VINA RESULT:      -5.8      2.346      3.612
REMARK  Name = 
REMARK  12 active torsions:
REMARK  status: ('A' for Active; 'I' for Inactive)
REMARK    1  A    between atoms: C_1  and  C_2
REMARK    2  A    between atoms: C_2  and  O_4
REMARK    3  A    between atoms: O_4  and  C_5
REMARK    4  A    between atoms: C_5  and  C_6
REMARK    5  A    between atoms: C_6  and  C_7
REMARK    6  A    between atoms: C_7  and  C_8
REMARK    7  A    between atoms: C_8  and  C_9
REMARK    8  A    between atoms: C_9  and  S_10
REMARK    9  A    between atoms: S_10  and  C_11
REMARK   10  A    between atoms: C_16  and  O_17
REMARK   11  A    between atoms: O_17  and  C_18
REMARK   12  A    between atoms: C_18  and  C_19
REMARK                            x       y       z     vdW  Elec       q    Type
REMARK                         _______ _______ _______ _____ _____    ______ ____
ROOT
ATOM      1  S   UNL     1       5.220   4.709  19.293  0.00  0.00    +0.000 S 
ENDROOT
BRANCH   1   2
ATOM      2  C   UNL     1       3.583   4.065  19.619  0.00  0.00    +0.000 A 
ATOM      3  C   UNL     1       3.271   2.741  19.280  0.00  0.00    +0.000 A 
ATOM      4  C   UNL     1       1.963   2.264  19.390  0.00  0.00    +0.000 A 
ATOM      5  C   UNL     1       0.947   3.110  19.826  0.00  0.00    +0.000 A 
ATOM      6  C   UNL     1       1.234   4.429  20.165  0.00  0.00    +0.000 A 
ATOM      7  C   UNL     1       2.550   4.900  20.085  0.00  0.00    +0.000 A 
BRANCH   7   8
ATOM      8  O   UNL     1       2.854   6.256  20.370  0.00  0.00    +0.000 OA
BRANCH   8   9
ATOM      9  C   UNL     1       2.148   7.312  19.792  0.00  0.00    +0.000 C 
ATOM     10  C   UNL     1       1.445   8.084  20.867  0.00  0.00    +0.000 C 
ATOM     11  O   UNL     1       2.116   7.614  18.605  0.00  0.00    +0.000 OA
ENDBRANCH   8   9
ENDBRANCH   7   8
ENDBRANCH   1   2
BRANCH   1  12
ATOM     12  C   UNL     1       4.928   5.807  17.858  0.00  0.00    +0.000 C 
BRANCH  12  13
ATOM     13  C   UNL     1       4.402   5.021  16.649  0.00  0.00    +0.000 C 
BRANCH  13  14
ATOM     14  C   UNL     1       5.201   3.770  16.258  0.00  0.00    +0.000 C 
BRANCH  14  15
ATOM     15  C   UNL     1       6.525   4.101  15.564  0.00  0.00    +0.000 C 
BRANCH  15  16
ATOM     16  C   UNL     1       6.308   4.703  14.177  0.00  0.00    +0.000 C 
BRANCH  16  17
ATOM     17  O   UNL     1       5.267   4.016  13.470  0.00  0.00    +0.000 OA
BRANCH  17  19
ATOM     18  C   UNL     1       4.441   3.169  11.450  0.00  0.00    +0.000 C 
ATOM     19  C   UNL     1       5.642   3.428  12.305  0.00  0.00    +0.000 C 
ATOM     20  O   UNL     1       6.787   3.132  11.989  0.00  0.00    +0.000 OA
ENDBRANCH  17  19
ENDBRANCH  16  17
ENDBRANCH  15  16
ENDBRANCH  14  15
ENDBRANCH  13  14
ENDBRANCH  12  13
ENDBRANCH   1  12
TORSDOF 10
ENDMDL
