MODEL 1
REMARK VINA RESULT:      -6.8      0.000      0.000
REMARK  Name = 
REMARK  5 active torsions:
REMARK  status: ('A' for Active; 'I' for Inactive)
REMARK    1  A    between atoms: C_1  and  C_2
REMARK    2  A    between atoms: C_2  and  O_3
REMARK    3  A    between atoms: O_3  and  C_4
REMARK    4  A    between atoms: C_4  and  C_6
REMARK    5  A    between atoms: C_30  and  C_31
REMARK                            x       y       z     vdW  Elec       q    Type
REMARK                         _______ _______ _______ _____ _____    ______ ____
ROOT
ATOM      1  C   UNL     1      -2.792  11.738  18.172  0.00  0.00    +0.000 C 
ATOM      2  C   UNL     1      -3.974  12.242  19.037  0.00  0.00    +0.000 C 
ATOM      3  C   UNL     1      -5.331  11.592  19.064  0.00  0.00    +0.000 C 
ATOM      4  O   UNL     1      -6.208  12.344  19.930  0.00  0.00    +0.000 OA
ATOM      5  C   UNL     1      -5.703  12.607  21.183  0.00  0.00    +0.000 A 
ATOM      6  C   UNL     1      -6.640  12.849  22.189  0.00  0.00    +0.000 A 
ATOM      7  C   UNL     1      -6.219  13.015  23.510  0.00  0.00    +0.000 A 
ATOM      8  C   UNL     1      -4.866  12.936  23.826  0.00  0.00    +0.000 A 
ATOM      9  C   UNL     1      -3.929  12.729  22.815  0.00  0.00    +0.000 A 
ATOM     10  C   UNL     1      -4.334  12.612  21.479  0.00  0.00    +0.000 A 
ATOM     11  C   UNL     1      -3.368  12.229  20.415  0.00  0.00    +0.000 C 
ATOM     12  N   UNL     1      -2.115  12.908  20.107  0.00  0.00    +0.000 N 
ATOM     13  C   UNL     1      -1.515  13.931  20.803  0.00  0.00    +0.000 C 
ATOM     14  O   UNL     1      -2.057  14.689  21.593  0.00  0.00    +0.000 OA
ATOM     15  C   UNL     1      -0.083  14.094  20.549  0.00  0.00    +0.000 A 
ATOM     16  C   UNL     1       0.374  15.329  20.080  0.00  0.00    +0.000 A 
ATOM     17  C   UNL     1       1.725  15.466  19.791  0.00  0.00    +0.000 A 
ATOM     18 CL   UNL     1       2.268  16.825  18.888  0.00  0.00    +0.000 Cl
ATOM     19  C   UNL     1       2.630  14.462  20.145  0.00  0.00    +0.000 A 
ATOM     20  C   UNL     1       2.169  13.235  20.639  0.00  0.00    +0.000 A 
ATOM     21  C   UNL     1       0.794  13.004  20.683  0.00  0.00    +0.000 A 
ATOM     22  N   UNL     1       0.368  11.656  20.610  0.00  0.00    +0.000 N 
ATOM     23  C   UNL     1      -0.633  11.172  19.770  0.00  0.00    +0.000 C 
ATOM     24  O   UNL     1      -0.786   9.954  19.692  0.00  0.00    +0.000 OA
ATOM     25  C   UNL     1      -1.508  12.195  18.959  0.00  0.00    +0.000 C 
ATOM     26  C   UNL     1      -0.652  12.979  17.940  0.00  0.00    +0.000 C 
ATOM     27  H   UNL     1       0.992  10.931  20.944  0.00  0.00    +0.000 HD
ENDROOT
BRANCH   1  28
ATOM     28  C   UNL     1      -2.781  10.298  17.745  0.00  0.00    +0.000 C 
ATOM     29  O   UNL     1      -3.318   9.382  18.345  0.00  0.00    +0.000 OA
BRANCH  28  30
ATOM     30  O   UNL     1      -2.205  10.210  16.511  0.00  0.00    +0.000 OA
BRANCH  30  32
ATOM     31  C   UNL     1      -3.028   9.937  14.255  0.00  0.00    +0.000 C 
ATOM     32  C   UNL     1      -2.904  10.865  15.447  0.00  0.00    +0.000 C 
ENDBRANCH  30  32
ENDBRANCH  28  30
ENDBRANCH   1  28
TORSDOF 3
ENDMDL
MODEL 2
REMARK VINA RESULT:      -6.7      8.810     12.165
REMARK  Name = 
REMARK  5 active torsions:
REMARK  status: ('A' for Active; 'I' for Inactive)
REMARK    1  A    between atoms: C_1  and  C_2
REMARK    2  A    between atoms: C_2  and  O_3
REMARK    3  A    between atoms: O_3  and  C_4
REMARK    4  A    between atoms: C_4  and  C_6
REMARK    5  A    between atoms: C_30  and  C_31
REMARK                            x       y       z     vdW  Elec       q    Type
REMARK                         _______ _______ _______ _____ _____    ______ ____
ROOT
ATOM      1  C   UNL     1       6.947  15.120  20.552  0.00  0.00    +0.000 C 
ATOM      2  C   UNL     1       7.714  14.197  19.573  0.00  0.00    +0.000 C 
ATOM      3  C   UNL     1       8.146  14.611  18.192  0.00  0.00    +0.000 C 
ATOM      4  O   UNL     1       8.786  13.497  17.533  0.00  0.00    +0.000 OA
ATOM      5  C   UNL     1       9.784  12.887  18.258  0.00  0.00    +0.000 A 
ATOM      6  C   UNL     1      10.745  12.191  17.523  0.00  0.00    +0.000 A 
ATOM      7  C   UNL     1      11.852  11.636  18.169  0.00  0.00    +0.000 A 
ATOM      8  C   UNL     1      12.000  11.780  19.545  0.00  0.00    +0.000 A 
ATOM      9  C   UNL     1      11.022  12.445  20.282  0.00  0.00    +0.000 A 
ATOM     10  C   UNL     1       9.882  12.962  19.653  0.00  0.00    +0.000 A 
ATOM     11  C   UNL     1       8.914  13.813  20.396  0.00  0.00    +0.000 C 
ATOM     12  N   UNL     1       8.225  13.455  21.631  0.00  0.00    +0.000 N 
ATOM     13  C   UNL     1       8.423  12.343  22.416  0.00  0.00    +0.000 C 
ATOM     14  O   UNL     1       8.948  11.294  22.074  0.00  0.00    +0.000 OA
ATOM     15  C   UNL     1       7.947  12.470  23.795  0.00  0.00    +0.000 A 
ATOM     16  C   UNL     1       7.010  11.545  24.263  0.00  0.00    +0.000 A 
ATOM     17  C   UNL     1       6.522  11.696  25.553  0.00  0.00    +0.000 A 
ATOM     18 CL   UNL     1       5.128  10.817  26.045  0.00  0.00    +0.000 Cl
ATOM     19  C   UNL     1       7.097  12.627  26.423  0.00  0.00    +0.000 A 
ATOM     20  C   UNL     1       8.055  13.535  25.955  0.00  0.00    +0.000 A 
ATOM     21  C   UNL     1       8.354  13.552  24.593  0.00  0.00    +0.000 A 
ATOM     22  N   UNL     1       8.828  14.773  24.056  0.00  0.00    +0.000 N 
ATOM     23  C   UNL     1       8.354  15.381  22.895  0.00  0.00    +0.000 C 
ATOM     24  O   UNL     1       8.742  16.519  22.636  0.00  0.00    +0.000 OA
ATOM     25  C   UNL     1       7.346  14.594  21.980  0.00  0.00    +0.000 C 
ATOM     26  C   UNL     1       6.012  14.331  22.714  0.00  0.00    +0.000 C 
ATOM     27  H   UNL     1       9.319  15.415  24.667  0.00  0.00    +0.000 HD
ENDROOT
BRANCH   1  28
ATOM     28  C   UNL     1       7.072  16.607  20.379  0.00  0.00    +0.000 C 
ATOM     29  O   UNL     1       8.011  17.178  19.850  0.00  0.00    +0.000 OA
BRANCH  28  30
ATOM     30  O   UNL     1       5.905  17.195  20.772  0.00  0.00    +0.000 OA
BRANCH  30  32
ATOM     31  C   UNL     1       3.541  16.754  21.014  0.00  0.00    +0.000 C 
ATOM     32  C   UNL     1       4.727  16.776  20.072  0.00  0.00    +0.000 C 
ENDBRANCH  30  32
ENDBRANCH  28  30
ENDBRANCH   1  28
TORSDOF 3
ENDMDL
MODEL 3
REMARK VINA RESULT:      -6.6      3.100      5.798
REMARK  Name = 
REMARK  5 active torsions:
REMARK  status: ('A' for Active; 'I' for Inactive)
REMARK    1  A    between atoms: C_1  and  C_2
REMARK    2  A    between atoms: C_2  and  O_3
REMARK    3  A    between atoms: O_3  and  C_4
REMARK    4  A    between atoms: C_4  and  C_6
REMARK    5  A    between atoms: C_30  and  C_31
REMARK                            x       y       z     vdW  Elec       q    Type
REMARK                         _______ _______ _______ _____ _____    ______ ____
ROOT
ATOM      1  C   UNL     1      -1.323  13.034  22.941  0.00  0.00    +0.000 C 
ATOM      2  C   UNL     1      -0.490  11.743  22.749  0.00  0.00    +0.000 C 
ATOM      3  C   UNL     1      -0.939  10.380  23.205  0.00  0.00    +0.000 C 
ATOM      4  O   UNL     1       0.095   9.413  22.921  0.00  0.00    +0.000 OA
ATOM      5  C   UNL     1       0.568   9.429  21.628  0.00  0.00    +0.000 A 
ATOM      6  C   UNL     1       1.148   8.247  21.166  0.00  0.00    +0.000 A 
ATOM      7  C   UNL     1       1.553   8.141  19.834  0.00  0.00    +0.000 A 
ATOM      8  C   UNL     1       1.376   9.212  18.965  0.00  0.00    +0.000 A 
ATOM      9  C   UNL     1       0.828  10.404  19.435  0.00  0.00    +0.000 A 
ATOM     10  C   UNL     1       0.464  10.540  20.782  0.00  0.00    +0.000 A 
ATOM     11  C   UNL     1      -0.269  11.742  21.261  0.00  0.00    +0.000 C 
ATOM     12  N   UNL     1       0.158  13.129  21.105  0.00  0.00    +0.000 N 
ATOM     13  C   UNL     1       1.226  13.607  20.385  0.00  0.00    +0.000 C 
ATOM     14  O   UNL     1       2.206  12.971  20.026  0.00  0.00    +0.000 OA
ATOM     15  C   UNL     1       1.144  15.024  20.026  0.00  0.00    +0.000 A 
ATOM     16  C   UNL     1       2.172  15.877  20.438  0.00  0.00    +0.000 A 
ATOM     17  C   UNL     1       2.067  17.228  20.141  0.00  0.00    +0.000 A 
ATOM     18 CL   UNL     1       3.106  18.354  20.922  0.00  0.00    +0.000 Cl
ATOM     19  C   UNL     1       1.061  17.689  19.287  0.00  0.00    +0.000 A 
ATOM     20  C   UNL     1       0.047  16.825  18.856  0.00  0.00    +0.000 A 
ATOM     21  C   UNL     1       0.009  15.528  19.367  0.00  0.00    +0.000 A 
ATOM     22  N   UNL     1      -1.255  14.892  19.408  0.00  0.00    +0.000 N 
ATOM     23  C   UNL     1      -1.785  14.223  20.510  0.00  0.00    +0.000 C 
ATOM     24  O   UNL     1      -2.959  13.861  20.459  0.00  0.00    +0.000 OA
ATOM     25  C   UNL     1      -0.868  13.972  21.762  0.00  0.00    +0.000 C 
ATOM     26  C   UNL     1      -0.450  15.302  22.426  0.00  0.00    +0.000 C 
ATOM     27  H   UNL     1      -1.959  15.167  18.734  0.00  0.00    +0.000 HD
ENDROOT
BRANCH   1  28
ATOM     28  C   UNL     1      -2.812  12.909  23.098  0.00  0.00    +0.000 C 
ATOM     29  O   UNL     1      -3.502  12.039  22.594  0.00  0.00    +0.000 OA
BRANCH  28  30
ATOM     30  O   UNL     1      -3.237  13.832  24.009  0.00  0.00    +0.000 OA
BRANCH  30  32
ATOM     31  C   UNL     1      -4.069  15.904  23.084  0.00  0.00    +0.000 C 
ATOM     32  C   UNL     1      -4.427  14.550  23.661  0.00  0.00    +0.000 C 
ENDBRANCH  30  32
ENDBRANCH  28  30
ENDBRANCH   1  28
TORSDOF 3
ENDMDL
MODEL 4
REMARK VINA RESULT:      -6.6      2.686      6.324
REMARK  Name = 
REMARK  5 active torsions:
REMARK  status: ('A' for Active; 'I' for Inactive)
REMARK    1  A    between atoms: C_1  and  C_2
REMARK    2  A    between atoms: C_2  and  O_3
REMARK    3  A    between atoms: O_3  and  C_4
REMARK    4  A    between atoms: C_4  and  C_6
REMARK    5  A    between atoms: C_30  and  C_31
REMARK                            x       y       z     vdW  Elec       q    Type
REMARK                         _______ _______ _______ _____ _____    ______ ____
ROOT
ATOM      1  C   UNL     1       0.497  11.915  20.168  0.00  0.00    +0.000 C 
ATOM      2  C   UNL     1       1.141  13.317  20.042  0.00  0.00    +0.000 C 
ATOM      3  C   UNL     1       2.486  13.569  19.413  0.00  0.00    +0.000 C 
ATOM      4  O   UNL     1       2.806  14.974  19.509  0.00  0.00    +0.000 OA
ATOM      5  C   UNL     1       1.824  15.827  19.058  0.00  0.00    +0.000 A 
ATOM      6  C   UNL     1       2.243  17.093  18.649  0.00  0.00    +0.000 A 
ATOM      7  C   UNL     1       1.330  17.980  18.075  0.00  0.00    +0.000 A 
ATOM      8  C   UNL     1       0.002  17.602  17.909  0.00  0.00    +0.000 A 
ATOM      9  C   UNL     1      -0.424  16.350  18.349  0.00  0.00    +0.000 A 
ATOM     10  C   UNL     1       0.472  15.470  18.972  0.00  0.00    +0.000 A 
ATOM     11  C   UNL     1       0.075  14.075  19.299  0.00  0.00    +0.000 C 
ATOM     12  N   UNL     1      -1.076  13.674  20.102  0.00  0.00    +0.000 N 
ATOM     13  C   UNL     1      -2.080  14.472  20.596  0.00  0.00    +0.000 C 
ATOM     14  O   UNL     1      -2.036  15.682  20.756  0.00  0.00    +0.000 OA
ATOM     15  C   UNL     1      -3.312  13.765  20.950  0.00  0.00    +0.000 A 
ATOM     16  C   UNL     1      -3.788  13.871  22.260  0.00  0.00    +0.000 A 
ATOM     17  C   UNL     1      -4.927  13.159  22.608  0.00  0.00    +0.000 A 
ATOM     18 CL   UNL     1      -5.341  12.973  24.267  0.00  0.00    +0.000 Cl
ATOM     19  C   UNL     1      -5.685  12.514  21.627  0.00  0.00    +0.000 A 
ATOM     20  C   UNL     1      -5.217  12.432  20.310  0.00  0.00    +0.000 A 
ATOM     21  C   UNL     1      -3.945  12.924  20.019  0.00  0.00    +0.000 A 
ATOM     22  N   UNL     1      -3.270  12.344  18.918  0.00  0.00    +0.000 N 
ATOM     23  C   UNL     1      -1.952  11.891  18.928  0.00  0.00    +0.000 C 
ATOM     24  O   UNL     1      -1.548  11.260  17.953  0.00  0.00    +0.000 OA
ATOM     25  C   UNL     1      -1.052  12.195  20.180  0.00  0.00    +0.000 C 
ATOM     26  C   UNL     1      -1.593  11.490  21.444  0.00  0.00    +0.000 C 
ATOM     27  H   UNL     1      -3.820  11.948  18.165  0.00  0.00    +0.000 HD
ENDROOT
BRANCH   1  28
ATOM     28  C   UNL     1       0.928  10.840  19.212  0.00  0.00    +0.000 C 
ATOM     29  O   UNL     1       1.670  11.004  18.257  0.00  0.00    +0.000 OA
BRANCH  28  30
ATOM     30  O   UNL     1       0.477   9.636  19.670  0.00  0.00    +0.000 OA
BRANCH  30  32
ATOM     31  C   UNL     1       0.193   8.352  21.698  0.00  0.00    +0.000 C 
ATOM     32  C   UNL     1       1.163   9.105  20.810  0.00  0.00    +0.000 C 
ENDBRANCH  30  32
ENDBRANCH  28  30
ENDBRANCH   1  28
TORSDOF 3
ENDMDL
MODEL 5
REMARK VINA RESULT:      -6.5      3.497      6.194
REMARK  Name = 
REMARK  5 active torsions:
REMARK  status: ('A' for Active; 'I' for Inactive)
REMARK    1  A    between atoms: C_1  and  C_2
REMARK    2  A    between atoms: C_2  and  O_3
REMARK    3  A    between atoms: O_3  and  C_4
REMARK    4  A    between atoms: C_4  and  C_6
REMARK    5  A    between atoms: C_30  and  C_31
REMARK                            x       y       z     vdW  Elec       q    Type
REMARK                         _______ _______ _______ _____ _____    ______ ____
ROOT
ATOM      1  C   UNL     1      -0.583  14.849  20.256  0.00  0.00    +0.000 C 
ATOM      2  C   UNL     1      -0.630  13.310  20.091  0.00  0.00    +0.000 C 
ATOM      3  C   UNL     1       0.381  12.519  19.305  0.00  0.00    +0.000 C 
ATOM      4  O   UNL     1       0.009  11.123  19.310  0.00  0.00    +0.000 OA
ATOM      5  C   UNL     1      -0.252  10.595  20.554  0.00  0.00    +0.000 A 
ATOM      6  C   UNL     1      -0.106   9.213  20.682  0.00  0.00    +0.000 A 
ATOM      7  C   UNL     1      -0.243   8.609  21.933  0.00  0.00    +0.000 A 
ATOM      8  C   UNL     1      -0.522   9.384  23.054  0.00  0.00    +0.000 A 
ATOM      9  C   UNL     1      -0.702  10.760  22.920  0.00  0.00    +0.000 A 
ATOM     10  C   UNL     1      -0.617  11.371  21.661  0.00  0.00    +0.000 A 
ATOM     11  C   UNL     1      -0.644  12.851  21.523  0.00  0.00    +0.000 C 
ATOM     12  N   UNL     1      -1.684  13.743  22.026  0.00  0.00    +0.000 N 
ATOM     13  C   UNL     1      -2.754  13.424  22.828  0.00  0.00    +0.000 C 
ATOM     14  O   UNL     1      -3.236  12.313  22.991  0.00  0.00    +0.000 OA
ATOM     15  C   UNL     1      -3.348  14.555  23.543  0.00  0.00    +0.000 A 
ATOM     16  C   UNL     1      -4.704  14.828  23.349  0.00  0.00    +0.000 A 
ATOM     17  C   UNL     1      -5.254  15.931  23.988  0.00  0.00    +0.000 A 
ATOM     18 CL   UNL     1      -6.800  16.510  23.509  0.00  0.00    +0.000 Cl
ATOM     19  C   UNL     1      -4.519  16.629  24.951  0.00  0.00    +0.000 A 
ATOM     20  C   UNL     1      -3.166  16.334  25.161  0.00  0.00    +0.000 A 
ATOM     21  C   UNL     1      -2.547  15.399  24.331  0.00  0.00    +0.000 A 
ATOM     22  N   UNL     1      -1.150  15.531  24.148  0.00  0.00    +0.000 N 
ATOM     23  C   UNL     1      -0.491  15.505  22.920  0.00  0.00    +0.000 C 
ATOM     24  O   UNL     1       0.703  15.795  22.896  0.00  0.00    +0.000 OA
ATOM     25  C   UNL     1      -1.301  15.118  21.630  0.00  0.00    +0.000 C 
ATOM     26  C   UNL     1      -2.403  16.158  21.327  0.00  0.00    +0.000 C 
ATOM     27  H   UNL     1      -0.602  15.964  24.883  0.00  0.00    +0.000 HD
ENDROOT
BRANCH   1  28
ATOM     28  C   UNL     1       0.739  15.545  20.098  0.00  0.00    +0.000 C 
ATOM     29  O   UNL     1       1.829  15.044  20.321  0.00  0.00    +0.000 OA
BRANCH  28  30
ATOM     30  O   UNL     1       0.528  16.767  19.529  0.00  0.00    +0.000 OA
BRANCH  30  32
ATOM     31  C   UNL     1      -1.110  18.015  18.265  0.00  0.00    +0.000 C 
ATOM     32  C   UNL     1      -0.250  16.769  18.326  0.00  0.00    +0.000 C 
ENDBRANCH  30  32
ENDBRANCH  28  30
ENDBRANCH   1  28
TORSDOF 3
ENDMDL
MODEL 6
REMARK VINA RESULT:      -6.5      3.420      6.747
REMARK  Name = 
REMARK  5 active torsions:
REMARK  status: ('A' for Active; 'I' for Inactive)
REMARK    1  A    between atoms: C_1  and  C_2
REMARK    2  A    between atoms: C_2  and  O_3
REMARK    3  A    between atoms: O_3  and  C_4
REMARK    4  A    between atoms: C_4  and  C_6
REMARK    5  A    between atoms: C_30  and  C_31
REMARK                            x       y       z     vdW  Elec       q    Type
REMARK                         _______ _______ _______ _____ _____    ______ ____
ROOT
ATOM      1  C   UNL     1       0.564  13.681  21.016  0.00  0.00    +0.000 C 
ATOM      2  C   UNL     1       1.217  14.844  20.229  0.00  0.00    +0.000 C 
ATOM      3  C   UNL     1       2.400  14.678  19.312  0.00  0.00    +0.000 C 
ATOM      4  O   UNL     1       2.785  15.967  18.786  0.00  0.00    +0.000 OA
ATOM      5  C   UNL     1       1.761  16.698  18.229  0.00  0.00    +0.000 A 
ATOM      6  C   UNL     1       2.128  17.657  17.285  0.00  0.00    +0.000 A 
ATOM      7  C   UNL     1       1.145  18.366  16.591  0.00  0.00    +0.000 A 
ATOM      8  C   UNL     1      -0.201  18.116  16.839  0.00  0.00    +0.000 A 
ATOM      9  C   UNL     1      -0.566  17.182  17.807  0.00  0.00    +0.000 A 
ATOM     10  C   UNL     1       0.410  16.501  18.546  0.00  0.00    +0.000 A 
ATOM     11  C   UNL     1       0.043  15.389  19.463  0.00  0.00    +0.000 C 
ATOM     12  N   UNL     1      -0.917  15.461  20.559  0.00  0.00    +0.000 N 
ATOM     13  C   UNL     1      -1.758  16.501  20.879  0.00  0.00    +0.000 C 
ATOM     14  O   UNL     1      -1.634  17.668  20.539  0.00  0.00    +0.000 OA
ATOM     15  C   UNL     1      -2.908  16.132  21.707  0.00  0.00    +0.000 A 
ATOM     16  C   UNL     1      -3.080  16.780  22.933  0.00  0.00    +0.000 A 
ATOM     17  C   UNL     1      -4.141  16.394  23.740  0.00  0.00    +0.000 A 
ATOM     18 CL   UNL     1      -4.187  16.897  25.384  0.00  0.00    +0.000 Cl
ATOM     19  C   UNL     1      -5.119  15.523  23.253  0.00  0.00    +0.000 A 
ATOM     20  C   UNL     1      -4.955  14.896  22.012  0.00  0.00    +0.000 A 
ATOM     21  C   UNL     1      -3.760  15.085  21.318  0.00  0.00    +0.000 A 
ATOM     22  N   UNL     1      -3.366  14.057  20.428  0.00  0.00    +0.000 N 
ATOM     23  C   UNL     1      -2.096  13.486  20.368  0.00  0.00    +0.000 C 
ATOM     24  O   UNL     1      -1.940  12.492  19.662  0.00  0.00    +0.000 OA
ATOM     25  C   UNL     1      -0.932  14.129  21.207  0.00  0.00    +0.000 C 
ATOM     26  C   UNL     1      -1.208  14.022  22.723  0.00  0.00    +0.000 C 
ATOM     27  H   UNL     1      -4.083  13.477  20.009  0.00  0.00    +0.000 HD
ENDROOT
BRANCH   1  28
ATOM     28  C   UNL     1       0.734  12.282  20.496  0.00  0.00    +0.000 C 
ATOM     29  O   UNL     1       0.850  11.977  19.321  0.00  0.00    +0.000 OA
BRANCH  28  30
ATOM     30  O   UNL     1       0.886  11.435  21.555  0.00  0.00    +0.000 OA
BRANCH  30  32
ATOM     31  C   UNL     1      -0.656  10.253  22.992  0.00  0.00    +0.000 C 
ATOM     32  C   UNL     1      -0.033  10.338  21.614  0.00  0.00    +0.000 C 
ENDBRANCH  30  32
ENDBRANCH  28  30
ENDBRANCH   1  28
TORSDOF 3
ENDMDL
MODEL 7
REMARK VINA RESULT:      -6.5      2.462      5.278
REMARK  Name = 
REMARK  5 active torsions:
REMARK  status: ('A' for Active; 'I' for Inactive)
REMARK    1  A    between atoms: C_1  and  C_2
REMARK    2  A    between atoms: C_2  and  O_3
REMARK    3  A    between atoms: O_3  and  C_4
REMARK    4  A    between atoms: C_4  and  C_6
REMARK    5  A    between atoms: C_30  and  C_31
REMARK                            x       y       z     vdW  Elec       q    Type
REMARK                         _______ _______ _______ _____ _____    ______ ____
ROOT
ATOM      1  C   UNL     1      -2.548  12.980  22.510  0.00  0.00    +0.000 C 
ATOM      2  C   UNL     1      -3.933  12.513  21.998  0.00  0.00    +0.000 C 
ATOM      3  C   UNL     1      -5.242  12.962  22.592  0.00  0.00    +0.000 C 
ATOM      4  O   UNL     1      -6.331  12.297  21.915  0.00  0.00    +0.000 OA
ATOM      5  C   UNL     1      -6.298  12.376  20.541  0.00  0.00    +0.000 A 
ATOM      6  C   UNL     1      -7.519  12.227  19.883  0.00  0.00    +0.000 A 
ATOM      7  C   UNL     1      -7.594  12.403  18.500  0.00  0.00    +0.000 A 
ATOM      8  C   UNL     1      -6.452  12.731  17.777  0.00  0.00    +0.000 A 
ATOM      9  C   UNL     1      -5.226  12.846  18.430  0.00  0.00    +0.000 A 
ATOM     10  C   UNL     1      -5.128  12.622  19.810  0.00  0.00    +0.000 A 
ATOM     11  C   UNL     1      -3.866  12.899  20.546  0.00  0.00    +0.000 C 
ATOM     12  N   UNL     1      -2.551  12.349  20.236  0.00  0.00    +0.000 N 
ATOM     13  C   UNL     1      -2.189  11.588  19.149  0.00  0.00    +0.000 C 
ATOM     14  O   UNL     1      -2.938  10.948  18.427  0.00  0.00    +0.000 OA
ATOM     15  C   UNL     1      -0.755  11.573  18.857  0.00  0.00    +0.000 A 
ATOM     16  C   UNL     1      -0.095  10.342  18.825  0.00  0.00    +0.000 A 
ATOM     17  C   UNL     1       1.275  10.333  18.598  0.00  0.00    +0.000 A 
ATOM     18 CL   UNL     1       2.178   8.901  18.900  0.00  0.00    +0.000 Cl
ATOM     19  C   UNL     1       1.936  11.504  18.219  0.00  0.00    +0.000 A 
ATOM     20  C   UNL     1       1.264  12.732  18.227  0.00  0.00    +0.000 A 
ATOM     21  C   UNL     1      -0.045  12.777  18.707  0.00  0.00    +0.000 A 
ATOM     22  N   UNL     1      -0.487  14.007  19.249  0.00  0.00    +0.000 N 
ATOM     23  C   UNL     1      -1.142  14.162  20.469  0.00  0.00    +0.000 C 
ATOM     24  O   UNL     1      -1.322  15.303  20.892  0.00  0.00    +0.000 OA
ATOM     25  C   UNL     1      -1.611  12.880  21.249  0.00  0.00    +0.000 C 
ATOM     26  C   UNL     1      -0.405  12.023  21.694  0.00  0.00    +0.000 C 
ATOM     27  H   UNL     1      -0.065  14.865  18.914  0.00  0.00    +0.000 HD
ENDROOT
BRANCH   1  28
ATOM     28  C   UNL     1      -2.461  14.284  23.249  0.00  0.00    +0.000 C 
ATOM     29  O   UNL     1      -3.286  15.181  23.194  0.00  0.00    +0.000 OA
BRANCH  28  30
ATOM     30  O   UNL     1      -1.393  14.239  24.098  0.00  0.00    +0.000 OA
BRANCH  30  32
ATOM     31  C   UNL     1      -1.352  15.592  26.100  0.00  0.00    +0.000 C 
ATOM     32  C   UNL     1      -0.970  15.497  24.637  0.00  0.00    +0.000 C 
ENDBRANCH  30  32
ENDBRANCH  28  30
ENDBRANCH   1  28
TORSDOF 3
ENDMDL
MODEL 8
REMARK VINA RESULT:      -6.4      3.164      6.408
REMARK  Name = 
REMARK  5 active torsions:
REMARK  status: ('A' for Active; 'I' for Inactive)
REMARK    1  A    between atoms: C_1  and  C_2
REMARK    2  A    between atoms: C_2  and  O_3
REMARK    3  A    between atoms: O_3  and  C_4
REMARK    4  A    between atoms: C_4  and  C_6
REMARK    5  A    between atoms: C_30  and  C_31
REMARK                            x       y       z     vdW  Elec       q    Type
REMARK                         _______ _______ _______ _____ _____    ______ ____
ROOT
ATOM      1  C   UNL     1       0.434  11.953  20.301  0.00  0.00    +0.000 C 
ATOM      2  C   UNL     1       1.532  12.860  19.693  0.00  0.00    +0.000 C 
ATOM      3  C   UNL     1       2.390  12.468  18.519  0.00  0.00    +0.000 C 
ATOM      4  O   UNL     1       3.343  13.519  18.247  0.00  0.00    +0.000 OA
ATOM      5  C   UNL     1       2.802  14.780  18.132  0.00  0.00    +0.000 A 
ATOM      6  C   UNL     1       3.539  15.704  17.390  0.00  0.00    +0.000 A 
ATOM      7  C   UNL     1       3.012  16.970  17.131  0.00  0.00    +0.000 A 
ATOM      8  C   UNL     1       1.751  17.312  17.609  0.00  0.00    +0.000 A 
ATOM      9  C   UNL     1       1.031  16.401  18.379  0.00  0.00    +0.000 A 
ATOM     10  C   UNL     1       1.570  15.145  18.689  0.00  0.00    +0.000 A 
ATOM     11  C   UNL     1       0.752  14.105  19.368  0.00  0.00    +0.000 C 
ATOM     12  N   UNL     1       0.049  14.257  20.637  0.00  0.00    +0.000 N 
ATOM     13  C   UNL     1      -0.112  15.402  21.382  0.00  0.00    +0.000 C 
ATOM     14  O   UNL     1       0.569  16.415  21.316  0.00  0.00    +0.000 OA
ATOM     15  C   UNL     1      -1.223  15.368  22.335  0.00  0.00    +0.000 A 
ATOM     16  C   UNL     1      -0.947  15.583  23.687  0.00  0.00    +0.000 A 
ATOM     17  C   UNL     1      -1.993  15.500  24.596  0.00  0.00    +0.000 A 
ATOM     18 CL   UNL     1      -1.653  15.403  26.279  0.00  0.00    +0.000 Cl
ATOM     19  C   UNL     1      -3.313  15.398  24.147  0.00  0.00    +0.000 A 
ATOM     20  C   UNL     1      -3.586  15.207  22.787  0.00  0.00    +0.000 A 
ATOM     21  C   UNL     1      -2.519  15.030  21.907  0.00  0.00    +0.000 A 
ATOM     22  N   UNL     1      -2.775  14.288  20.730  0.00  0.00    +0.000 N 
ATOM     23  C   UNL     1      -1.987  13.245  20.246  0.00  0.00    +0.000 C 
ATOM     24  O   UNL     1      -2.417  12.582  19.304  0.00  0.00    +0.000 OA
ATOM     25  C   UNL     1      -0.601  12.958  20.929  0.00  0.00    +0.000 C 
ATOM     26  C   UNL     1      -0.780  12.508  22.396  0.00  0.00    +0.000 C 
ATOM     27  H   UNL     1      -3.717  14.280  20.356  0.00  0.00    +0.000 HD
ENDROOT
BRANCH   1  28
ATOM     28  C   UNL     1      -0.178  10.891  19.433  0.00  0.00    +0.000 C 
ATOM     29  O   UNL     1      -0.144  10.872  18.213  0.00  0.00    +0.000 OA
BRANCH  28  30
ATOM     30  O   UNL     1      -0.642   9.885  20.230  0.00  0.00    +0.000 OA
BRANCH  30  32
ATOM     31  C   UNL     1      -0.251   8.909  22.406  0.00  0.00    +0.000 C 
ATOM     32  C   UNL     1       0.337   9.234  21.047  0.00  0.00    +0.000 C 
ENDBRANCH  30  32
ENDBRANCH  28  30
ENDBRANCH   1  28
TORSDOF 3
ENDMDL
MODEL 9
REMARK VINA RESULT:      -6.4      9.967     12.405
REMARK  Name = 
REMARK  5 active torsions:
REMARK  status: ('A' for Active; 'I' for Inactive)
REMARK    1  A    between atoms: C_1  and  C_2
REMARK    2  A    between atoms: C_2  and  O_3
REMARK    3  A    between atoms: O_3  and  C_4
REMARK    4  A    between atoms: C_4  and  C_6
REMARK    5  A    between atoms: C_30  and  C_31
REMARK                            x       y       z     vdW  Elec       q    Type
REMARK                         _______ _______ _______ _____ _____    ______ ____
ROOT
ATOM      1  C   UNL     1       6.936  15.242  20.774  0.00  0.00    +0.000 C 
ATOM      2  C   UNL     1       7.659  14.336  19.748  0.00  0.00    +0.000 C 
ATOM      3  C   UNL     1       8.095  14.797  18.382  0.00  0.00    +0.000 C 
ATOM      4  O   UNL     1       8.687  13.690  17.667  0.00  0.00    +0.000 OA
ATOM      5  C   UNL     1       9.667  13.011  18.354  0.00  0.00    +0.000 A 
ATOM      6  C   UNL     1      10.595  12.313  17.580  0.00  0.00    +0.000 A 
ATOM      7  C   UNL     1      11.685  11.689  18.189  0.00  0.00    +0.000 A 
ATOM      8  C   UNL     1      11.849  11.763  19.568  0.00  0.00    +0.000 A 
ATOM      9  C   UNL     1      10.904  12.431  20.345  0.00  0.00    +0.000 A 
ATOM     10  C   UNL     1       9.779  13.019  19.751  0.00  0.00    +0.000 A 
ATOM     11  C   UNL     1       8.850  13.870  20.540  0.00  0.00    +0.000 C 
ATOM     12  N   UNL     1       8.158  13.482  21.764  0.00  0.00    +0.000 N 
ATOM     13  C   UNL     1       8.319  12.330  22.496  0.00  0.00    +0.000 C 
ATOM     14  O   UNL     1       8.801  11.278  22.102  0.00  0.00    +0.000 OA
ATOM     15  C   UNL     1       7.860  12.411  23.884  0.00  0.00    +0.000 A 
ATOM     16  C   UNL     1       6.892  11.502  24.319  0.00  0.00    +0.000 A 
ATOM     17  C   UNL     1       6.420  11.612  25.620  0.00  0.00    +0.000 A 
ATOM     18 CL   UNL     1       4.997  10.765  26.084  0.00  0.00    +0.000 Cl
ATOM     19  C   UNL     1       7.037  12.480  26.524  0.00  0.00    +0.000 A 
ATOM     20  C   UNL     1       8.025  13.372  26.089  0.00  0.00    +0.000 A 
ATOM     21  C   UNL     1       8.314  13.440  24.726  0.00  0.00    +0.000 A 
ATOM     22  N   UNL     1       8.829  14.665  24.241  0.00  0.00    +0.000 N 
ATOM     23  C   UNL     1       8.370  15.343  23.113  0.00  0.00    +0.000 C 
ATOM     24  O   UNL     1       8.798  16.476  22.902  0.00  0.00    +0.000 OA
ATOM     25  C   UNL     1       7.325  14.637  22.174  0.00  0.00    +0.000 C 
ATOM     26  C   UNL     1       5.989  14.391  22.907  0.00  0.00    +0.000 C 
ATOM     27  H   UNL     1       9.349  15.259  24.876  0.00  0.00    +0.000 HD
ENDROOT
BRANCH   1  28
ATOM     28  C   UNL     1       7.115  16.730  20.667  0.00  0.00    +0.000 C 
ATOM     29  O   UNL     1       6.383  17.565  21.171  0.00  0.00    +0.000 OA
BRANCH  28  30
ATOM     30  O   UNL     1       8.302  16.986  20.045  0.00  0.00    +0.000 OA
BRANCH  30  32
ATOM     31  C   UNL     1       9.216  18.437  18.342  0.00  0.00    +0.000 C 
ATOM     32  C   UNL     1       8.541  18.355  19.696  0.00  0.00    +0.000 C 
ENDBRANCH  30  32
ENDBRANCH  28  30
ENDBRANCH   1  28
TORSDOF 3
ENDMDL
