MODEL 1
REMARK VINA RESULT:      -8.4      0.000      0.000
REMARK  Name = 
REMARK  8 active torsions:
REMARK  status: ('A' for Active; 'I' for Inactive)
REMARK    1  A    between atoms: C_1  and  O_2
REMARK    2  A    between atoms: O_2  and  C_3
REMARK    3  A    between atoms: C_6  and  C_7
REMARK    4  A    between atoms: C_7  and  C_8
REMARK    5  A    between atoms: C_7  and  N_18
REMARK    6  A    between atoms: C_13  and  O_14
REMARK    7  A    between atoms: C_23  and  O_24
REMARK    8  A    between atoms: O_24  and  C_25
REMARK                            x       y       z     vdW  Elec       q    Type
REMARK                         _______ _______ _______ _____ _____    ______ ____
ROOT
ATOM      1  C   UNL     1       3.580   4.629  18.329  0.00  0.00    +0.000 C 
ENDROOT
BRANCH   1   2
ATOM      2  C   UNL     1       2.940   6.000  18.676  0.00  0.00    +0.000 A 
ATOM      3  C   UNL     1       2.803   7.034  17.723  0.00  0.00    +0.000 A 
ATOM      4  C   UNL     1       2.203   8.214  18.099  0.00  0.00    +0.000 A 
ATOM      5  C   UNL     1       1.747   8.418  19.380  0.00  0.00    +0.000 A 
ATOM      6  C   UNL     1       1.883   7.466  20.357  0.00  0.00    +0.000 A 
ATOM      7  C   UNL     1       2.513   6.268  20.000  0.00  0.00    +0.000 A 
ATOM      8  O   UNL     1       1.206   9.658  19.541  0.00  0.00    +0.000 OA
ATOM      9  C   UNL     1       1.601  10.267  18.295  0.00  0.00    +0.000 C 
ATOM     10  O   UNL     1       2.010   9.303  17.306  0.00  0.00    +0.000 OA
BRANCH   7  11
ATOM     11  O   UNL     1       2.757   5.348  20.990  0.00  0.00    +0.000 OA
ATOM     12  H   UNL     1       3.619   4.946  20.781  0.00  0.00    +0.000 HD
ENDBRANCH   7  11
ENDBRANCH   1   2
BRANCH   1  16
ATOM     13  C   UNL     1       6.923   5.213  15.559  0.00  0.00    +0.000 A 
ATOM     14  C   UNL     1       5.662   4.888  15.087  0.00  0.00    +0.000 A 
ATOM     15  C   UNL     1       4.608   4.673  15.978  0.00  0.00    +0.000 A 
ATOM     16  C   UNL     1       4.781   4.842  17.369  0.00  0.00    +0.000 A 
ATOM     17  C   UNL     1       6.051   5.243  17.827  0.00  0.00    +0.000 A 
ATOM     18  C   UNL     1       7.120   5.399  16.928  0.00  0.00    +0.000 A 
BRANCH  13  20
ATOM     19  C   UNL     1       7.538   4.990  13.281  0.00  0.00    +0.000 C 
ATOM     20  O   UNL     1       7.899   5.377  14.608  0.00  0.00    +0.000 OA
ENDBRANCH  13  20
BRANCH  17  21
ATOM     21  O   UNL     1       6.205   5.426  19.187  0.00  0.00    +0.000 OA
ATOM     22  C   UNL     1       7.531   5.664  19.649  0.00  0.00    +0.000 C 
ENDBRANCH  17  21
ENDBRANCH   1  16
BRANCH   1  23
ATOM     23  N   UNL     1       2.595   3.634  17.769  0.00  0.00    +0.000 NA
ATOM     24  C   UNL     1       1.197   3.865  18.195  0.00  0.00    +0.000 C 
ATOM     25  C   UNL     1       0.995   3.065  19.462  0.00  0.00    +0.000 C 
ATOM     26  C   UNL     1       1.799   1.818  19.198  0.00  0.00    +0.000 C 
ATOM     27  C   UNL     1       2.883   2.248  18.210  0.00  0.00    +0.000 C 
ENDBRANCH   1  23
TORSDOF 6
ENDMDL
MODEL 2
REMARK VINA RESULT:      -7.4      0.893      1.123
REMARK  Name = 
REMARK  8 active torsions:
REMARK  status: ('A' for Active; 'I' for Inactive)
REMARK    1  A    between atoms: C_1  and  O_2
REMARK    2  A    between atoms: O_2  and  C_3
REMARK    3  A    between atoms: C_6  and  C_7
REMARK    4  A    between atoms: C_7  and  C_8
REMARK    5  A    between atoms: C_7  and  N_18
REMARK    6  A    between atoms: C_13  and  O_14
REMARK    7  A    between atoms: C_23  and  O_24
REMARK    8  A    between atoms: O_24  and  C_25
REMARK                            x       y       z     vdW  Elec       q    Type
REMARK                         _______ _______ _______ _____ _____    ______ ____
ROOT
ATOM      1  C   UNL     1       3.794   4.971  19.035  0.00  0.00    +0.000 C 
ENDROOT
BRANCH   1   2
ATOM      2  C   UNL     1       3.014   6.310  19.110  0.00  0.00    +0.000 A 
ATOM      3  C   UNL     1       3.085   7.285  18.090  0.00  0.00    +0.000 A 
ATOM      4  C   UNL     1       2.346   8.439  18.216  0.00  0.00    +0.000 A 
ATOM      5  C   UNL     1       1.551   8.674  19.315  0.00  0.00    +0.000 A 
ATOM      6  C   UNL     1       1.469   7.781  20.352  0.00  0.00    +0.000 A 
ATOM      7  C   UNL     1       2.233   6.613  20.254  0.00  0.00    +0.000 A 
ATOM      8  O   UNL     1       0.924   9.881  19.246  0.00  0.00    +0.000 OA
ATOM      9  C   UNL     1       1.607  10.454  18.113  0.00  0.00    +0.000 C 
ATOM     10  O   UNL     1       2.317   9.473  17.332  0.00  0.00    +0.000 OA
BRANCH   7  11
ATOM     11  O   UNL     1       2.249   5.760  21.330  0.00  0.00    +0.000 OA
ATOM     12  H   UNL     1       1.334   5.450  21.444  0.00  0.00    +0.000 HD
ENDBRANCH   7  11
ENDBRANCH   1   2
BRANCH   1  16
ATOM     13  C   UNL     1       6.693   5.170  15.757  0.00  0.00    +0.000 A 
ATOM     14  C   UNL     1       5.332   5.224  15.503  0.00  0.00    +0.000 A 
ATOM     15  C   UNL     1       4.413   5.129  16.550  0.00  0.00    +0.000 A 
ATOM     16  C   UNL     1       4.841   5.040  17.892  0.00  0.00    +0.000 A 
ATOM     17  C   UNL     1       6.228   5.058  18.140  0.00  0.00    +0.000 A 
ATOM     18  C   UNL     1       7.145   5.095  17.075  0.00  0.00    +0.000 A 
BRANCH  13  20
ATOM     19  C   UNL     1       7.047   4.566  13.493  0.00  0.00    +0.000 C 
ATOM     20  O   UNL     1       7.515   5.243  14.661  0.00  0.00    +0.000 OA
ENDBRANCH  13  20
BRANCH  17  21
ATOM     21  O   UNL     1       6.637   4.992  19.457  0.00  0.00    +0.000 OA
ATOM     22  C   UNL     1       7.894   5.589  19.762  0.00  0.00    +0.000 C 
ENDBRANCH  17  21
ENDBRANCH   1  16
BRANCH   1  23
ATOM     23  N   UNL     1       2.899   3.765  18.892  0.00  0.00    +0.000 NA
ATOM     24  C   UNL     1       3.049   2.770  19.977  0.00  0.00    +0.000 C 
ATOM     25  C   UNL     1       4.114   1.797  19.525  0.00  0.00    +0.000 C 
ATOM     26  C   UNL     1       3.845   1.676  18.047  0.00  0.00    +0.000 C 
ATOM     27  C   UNL     1       3.183   2.997  17.656  0.00  0.00    +0.000 C 
ENDBRANCH   1  23
TORSDOF 6
ENDMDL
MODEL 3
REMARK VINA RESULT:      -6.7      2.249      5.816
REMARK  Name = 
REMARK  8 active torsions:
REMARK  status: ('A' for Active; 'I' for Inactive)
REMARK    1  A    between atoms: C_1  and  O_2
REMARK    2  A    between atoms: O_2  and  C_3
REMARK    3  A    between atoms: C_6  and  C_7
REMARK    4  A    between atoms: C_7  and  C_8
REMARK    5  A    between atoms: C_7  and  N_18
REMARK    6  A    between atoms: C_13  and  O_14
REMARK    7  A    between atoms: C_23  and  O_24
REMARK    8  A    between atoms: O_24  and  C_25
REMARK                            x       y       z     vdW  Elec       q    Type
REMARK                         _______ _______ _______ _____ _____    ______ ____
ROOT
ATOM      1  C   UNL     1       5.219   5.118  16.342  0.00  0.00    +0.000 C 
ENDROOT
BRANCH   1   2
ATOM      2  C   UNL     1       6.232   5.995  17.124  0.00  0.00    +0.000 A 
ATOM      3  C   UNL     1       6.396   7.375  16.867  0.00  0.00    +0.000 A 
ATOM      4  C   UNL     1       7.299   8.092  17.618  0.00  0.00    +0.000 A 
ATOM      5  C   UNL     1       8.055   7.499  18.602  0.00  0.00    +0.000 A 
ATOM      6  C   UNL     1       7.966   6.158  18.873  0.00  0.00    +0.000 A 
ATOM      7  C   UNL     1       7.071   5.406  18.103  0.00  0.00    +0.000 A 
ATOM      8  O   UNL     1       8.895   8.384  19.208  0.00  0.00    +0.000 OA
ATOM      9  C   UNL     1       8.743   9.516  18.327  0.00  0.00    +0.000 C 
ATOM     10  O   UNL     1       7.578   9.417  17.484  0.00  0.00    +0.000 OA
BRANCH   7  11
ATOM     11  O   UNL     1       7.049   4.046  18.285  0.00  0.00    +0.000 OA
ATOM     12  H   UNL     1       7.555   3.872  19.099  0.00  0.00    +0.000 HD
ENDBRANCH   7  11
ENDBRANCH   1   2
BRANCH   1  16
ATOM     13  C   UNL     1       2.129   3.616  19.059  0.00  0.00    +0.000 A 
ATOM     14  C   UNL     1       3.091   2.764  18.542  0.00  0.00    +0.000 A 
ATOM     15  C   UNL     1       4.055   3.244  17.652  0.00  0.00    +0.000 A 
ATOM     16  C   UNL     1       4.114   4.611  17.306  0.00  0.00    +0.000 A 
ATOM     17  C   UNL     1       3.172   5.477  17.895  0.00  0.00    +0.000 A 
ATOM     18  C   UNL     1       2.170   4.975  18.744  0.00  0.00    +0.000 A 
BRANCH  13  20
ATOM     19  C   UNL     1       1.583   2.997  21.280  0.00  0.00    +0.000 C 
ATOM     20  O   UNL     1       1.208   3.045  19.902  0.00  0.00    +0.000 OA
ENDBRANCH  13  20
BRANCH  17  21
ATOM     21  O   UNL     1       3.250   6.816  17.568  0.00  0.00    +0.000 OA
ATOM     22  C   UNL     1       2.504   7.714  18.384  0.00  0.00    +0.000 C 
ENDBRANCH  17  21
ENDBRANCH   1  16
BRANCH   1  23
ATOM     23  N   UNL     1       5.865   3.979  15.595  0.00  0.00    +0.000 NA
ATOM     24  C   UNL     1       7.192   4.304  15.028  0.00  0.00    +0.000 C 
ATOM     25  C   UNL     1       6.947   4.830  13.633  0.00  0.00    +0.000 C 
ATOM     26  C   UNL     1       5.805   3.973  13.151  0.00  0.00    +0.000 C 
ATOM     27  C   UNL     1       5.067   3.550  14.421  0.00  0.00    +0.000 C 
ENDBRANCH   1  23
TORSDOF 6
ENDMDL
MODEL 4
REMARK VINA RESULT:      -6.5      3.657      6.923
REMARK  Name = 
REMARK  8 active torsions:
REMARK  status: ('A' for Active; 'I' for Inactive)
REMARK    1  A    between atoms: C_1  and  O_2
REMARK    2  A    between atoms: O_2  and  C_3
REMARK    3  A    between atoms: C_6  and  C_7
REMARK    4  A    between atoms: C_7  and  C_8
REMARK    5  A    between atoms: C_7  and  N_18
REMARK    6  A    between atoms: C_13  and  O_14
REMARK    7  A    between atoms: C_23  and  O_24
REMARK    8  A    between atoms: O_24  and  C_25
REMARK                            x       y       z     vdW  Elec       q    Type
REMARK                         _______ _______ _______ _____ _____    ______ ____
ROOT
ATOM      1  C   UNL     1       0.235  10.900  19.174  0.00  0.00    +0.000 C 
ENDROOT
BRANCH   1   2
ATOM      2  C   UNL     1       1.186  12.092  19.458  0.00  0.00    +0.000 A 
ATOM      3  C   UNL     1       2.081  12.595  18.487  0.00  0.00    +0.000 A 
ATOM      4  C   UNL     1       2.877  13.671  18.805  0.00  0.00    +0.000 A 
ATOM      5  C   UNL     1       2.835  14.261  20.047  0.00  0.00    +0.000 A 
ATOM      6  C   UNL     1       2.014  13.796  21.041  0.00  0.00    +0.000 A 
ATOM      7  C   UNL     1       1.214  12.686  20.745  0.00  0.00    +0.000 A 
ATOM      8  O   UNL     1       3.716  15.294  20.155  0.00  0.00    +0.000 OA
ATOM      9  C   UNL     1       4.464  15.114  18.935  0.00  0.00    +0.000 C 
ATOM     10  O   UNL     1       3.793  14.259  17.988  0.00  0.00    +0.000 OA
BRANCH   7  11
ATOM     11  O   UNL     1       0.469  12.139  21.759  0.00  0.00    +0.000 OA
ATOM     12  H   UNL     1      -0.293  11.707  21.334  0.00  0.00    +0.000 HD
ENDBRANCH   7  11
ENDBRANCH   1   2
BRANCH   1  16
ATOM     13  C   UNL     1       2.552   7.189  18.970  0.00  0.00    +0.000 A 
ATOM     14  C   UNL     1       2.427   8.007  17.859  0.00  0.00    +0.000 A 
ATOM     15  C   UNL     1       1.661   9.173  17.923  0.00  0.00    +0.000 A 
ATOM     16  C   UNL     1       1.050   9.581  19.128  0.00  0.00    +0.000 A 
ATOM     17  C   UNL     1       1.245   8.775  20.267  0.00  0.00    +0.000 A 
ATOM     18  C   UNL     1       1.969   7.573  20.178  0.00  0.00    +0.000 A 
BRANCH  13  20
ATOM     19  C   UNL     1       4.030   5.971  17.574  0.00  0.00    +0.000 C 
ATOM     20  O   UNL     1       3.301   6.051  18.800  0.00  0.00    +0.000 OA
ENDBRANCH  13  20
BRANCH  17  21
ATOM     21  O   UNL     1       0.661   9.193  21.447  0.00  0.00    +0.000 OA
ATOM     22  C   UNL     1      -0.501   8.484  21.865  0.00  0.00    +0.000 C 
ENDBRANCH  17  21
ENDBRANCH   1  16
BRANCH   1  23
ATOM     23  N   UNL     1      -0.594  11.081  17.927  0.00  0.00    +0.000 NA
ATOM     24  C   UNL     1      -1.556  12.202  17.999  0.00  0.00    +0.000 C 
ATOM     25  C   UNL     1      -2.845  11.630  18.544  0.00  0.00    +0.000 C 
ATOM     26  C   UNL     1      -2.899  10.267  17.903  0.00  0.00    +0.000 C 
ATOM     27  C   UNL     1      -1.439   9.898  17.636  0.00  0.00    +0.000 C 
ENDBRANCH   1  23
TORSDOF 6
ENDMDL
MODEL 5
REMARK VINA RESULT:      -6.5      2.511      5.905
REMARK  Name = 
REMARK  8 active torsions:
REMARK  status: ('A' for Active; 'I' for Inactive)
REMARK    1  A    between atoms: C_1  and  O_2
REMARK    2  A    between atoms: O_2  and  C_3
REMARK    3  A    between atoms: C_6  and  C_7
REMARK    4  A    between atoms: C_7  and  C_8
REMARK    5  A    between atoms: C_7  and  N_18
REMARK    6  A    between atoms: C_13  and  O_14
REMARK    7  A    between atoms: C_23  and  O_24
REMARK    8  A    between atoms: O_24  and  C_25
REMARK                            x       y       z     vdW  Elec       q    Type
REMARK                         _______ _______ _______ _____ _____    ______ ____
ROOT
ATOM      1  C   UNL     1       5.686   5.766  16.899  0.00  0.00    +0.000 C 
ENDROOT
BRANCH   1   2
ATOM      2  C   UNL     1       6.702   6.755  17.530  0.00  0.00    +0.000 A 
ATOM      3  C   UNL     1       6.776   8.113  17.146  0.00  0.00    +0.000 A 
ATOM      4  C   UNL     1       7.688   8.935  17.768  0.00  0.00    +0.000 A 
ATOM      5  C   UNL     1       8.537   8.466  18.744  0.00  0.00    +0.000 A 
ATOM      6  C   UNL     1       8.536   7.153  19.134  0.00  0.00    +0.000 A 
ATOM      7  C   UNL     1       7.633   6.295  18.495  0.00  0.00    +0.000 A 
ATOM      8  O   UNL     1       9.368   9.440  19.211  0.00  0.00    +0.000 OA
ATOM      9  C   UNL     1       9.099  10.481  18.250  0.00  0.00    +0.000 C 
ATOM     10  O   UNL     1       7.889  10.254  17.502  0.00  0.00    +0.000 OA
BRANCH   7  11
ATOM     11  O   UNL     1       7.694   4.957  18.794  0.00  0.00    +0.000 OA
ATOM     12  H   UNL     1       8.640   4.730  18.838  0.00  0.00    +0.000 HD
ENDBRANCH   7  11
ENDBRANCH   1   2
BRANCH   1  16
ATOM     13  C   UNL     1       2.635   4.688  19.851  0.00  0.00    +0.000 A 
ATOM     14  C   UNL     1       3.739   3.877  19.646  0.00  0.00    +0.000 A 
ATOM     15  C   UNL     1       4.693   4.212  18.682  0.00  0.00    +0.000 A 
ATOM     16  C   UNL     1       4.592   5.407  17.939  0.00  0.00    +0.000 A 
ATOM     17  C   UNL     1       3.501   6.257  18.209  0.00  0.00    +0.000 A 
ATOM     18  C   UNL     1       2.516   5.883  19.140  0.00  0.00    +0.000 A 
BRANCH  13  20
ATOM     19  C   UNL     1       0.981   3.102  20.453  0.00  0.00    +0.000 C 
ATOM     20  O   UNL     1       1.741   4.261  20.801  0.00  0.00    +0.000 OA
ENDBRANCH  13  20
BRANCH  17  21
ATOM     21  O   UNL     1       3.422   7.434  17.492  0.00  0.00    +0.000 OA
ATOM     22  C   UNL     1       2.459   8.385  17.937  0.00  0.00    +0.000 C 
ENDBRANCH  17  21
ENDBRANCH   1  16
BRANCH   1  23
ATOM     23  N   UNL     1       6.332   4.529  16.327  0.00  0.00    +0.000 NA
ATOM     24  C   UNL     1       7.463   4.806  15.414  0.00  0.00    +0.000 C 
ATOM     25  C   UNL     1       6.878   4.912  14.025  0.00  0.00    +0.000 C 
ATOM     26  C   UNL     1       5.799   3.860  14.038  0.00  0.00    +0.000 C 
ATOM     27  C   UNL     1       5.391   3.731  15.505  0.00  0.00    +0.000 C 
ENDBRANCH   1  23
TORSDOF 6
ENDMDL
MODEL 6
REMARK VINA RESULT:      -6.3      4.076      9.164
REMARK  Name = 
REMARK  8 active torsions:
REMARK  status: ('A' for Active; 'I' for Inactive)
REMARK    1  A    between atoms: C_1  and  O_2
REMARK    2  A    between atoms: O_2  and  C_3
REMARK    3  A    between atoms: C_6  and  C_7
REMARK    4  A    between atoms: C_7  and  C_8
REMARK    5  A    between atoms: C_7  and  N_18
REMARK    6  A    between atoms: C_13  and  O_14
REMARK    7  A    between atoms: C_23  and  O_24
REMARK    8  A    between atoms: O_24  and  C_25
REMARK                            x       y       z     vdW  Elec       q    Type
REMARK                         _______ _______ _______ _____ _____    ______ ____
ROOT
ATOM      1  C   UNL     1       0.457  11.177  19.546  0.00  0.00    +0.000 C 
ENDROOT
BRANCH   1   2
ATOM      2  C   UNL     1       1.140   9.802  19.326  0.00  0.00    +0.000 A 
ATOM      3  C   UNL     1       1.051   8.753  20.269  0.00  0.00    +0.000 A 
ATOM      4  C   UNL     1       1.664   7.552  19.993  0.00  0.00    +0.000 A 
ATOM      5  C   UNL     1       2.373   7.351  18.831  0.00  0.00    +0.000 A 
ATOM      6  C   UNL     1       2.524   8.341  17.896  0.00  0.00    +0.000 A 
ATOM      7  C   UNL     1       1.928   9.578  18.169  0.00  0.00    +0.000 A 
ATOM      8  O   UNL     1       2.912   6.101  18.769  0.00  0.00    +0.000 OA
ATOM      9  C   UNL     1       2.661   5.653  20.117  0.00  0.00    +0.000 C 
ATOM     10  O   UNL     1       1.680   6.457  20.800  0.00  0.00    +0.000 OA
BRANCH   7  11
ATOM     11  O   UNL     1       2.161  10.612  17.298  0.00  0.00    +0.000 OA
ATOM     12  H   UNL     1       3.091  10.871  17.426  0.00  0.00    +0.000 HD
ENDBRANCH   7  11
ENDBRANCH   1   2
BRANCH   1  16
ATOM     13  C   UNL     1      -3.504  11.105  17.678  0.00  0.00    +0.000 A 
ATOM     14  C   UNL     1      -2.433  10.454  17.090  0.00  0.00    +0.000 A 
ATOM     15  C   UNL     1      -1.166  10.506  17.676  0.00  0.00    +0.000 A 
ATOM     16  C   UNL     1      -0.956  11.167  18.905  0.00  0.00    +0.000 A 
ATOM     17  C   UNL     1      -2.070  11.764  19.527  0.00  0.00    +0.000 A 
ATOM     18  C   UNL     1      -3.329  11.756  18.901  0.00  0.00    +0.000 A 
BRANCH  13  20
ATOM     19  C   UNL     1      -5.664  12.022  17.346  0.00  0.00    +0.000 C 
ATOM     20  O   UNL     1      -4.702  11.019  17.014  0.00  0.00    +0.000 OA
ENDBRANCH  13  20
BRANCH  17  21
ATOM     21  O   UNL     1      -1.860  12.390  20.740  0.00  0.00    +0.000 OA
ATOM     22  C   UNL     1      -2.704  13.497  21.038  0.00  0.00    +0.000 C 
ENDBRANCH  17  21
ENDBRANCH   1  16
BRANCH   1  23
ATOM     23  N   UNL     1       1.280  12.340  19.049  0.00  0.00    +0.000 NA
ATOM     24  C   UNL     1       2.072  13.012  20.103  0.00  0.00    +0.000 C 
ATOM     25  C   UNL     1       1.200  14.113  20.661  0.00  0.00    +0.000 C 
ATOM     26  C   UNL     1       0.478  14.616  19.437  0.00  0.00    +0.000 C 
ATOM     27  C   UNL     1       0.441  13.422  18.482  0.00  0.00    +0.000 C 
ENDBRANCH   1  23
TORSDOF 6
ENDMDL
MODEL 7
REMARK VINA RESULT:      -6.2      4.226      9.272
REMARK  Name = 
REMARK  8 active torsions:
REMARK  status: ('A' for Active; 'I' for Inactive)
REMARK    1  A    between atoms: C_1  and  O_2
REMARK    2  A    between atoms: O_2  and  C_3
REMARK    3  A    between atoms: C_6  and  C_7
REMARK    4  A    between atoms: C_7  and  C_8
REMARK    5  A    between atoms: C_7  and  N_18
REMARK    6  A    between atoms: C_13  and  O_14
REMARK    7  A    between atoms: C_23  and  O_24
REMARK    8  A    between atoms: O_24  and  C_25
REMARK                            x       y       z     vdW  Elec       q    Type
REMARK                         _______ _______ _______ _____ _____    ______ ____
ROOT
ATOM      1  C   UNL     1       0.188  11.522  19.419  0.00  0.00    +0.000 C 
ENDROOT
BRANCH   1   2
ATOM      2  C   UNL     1       0.855  10.122  19.479  0.00  0.00    +0.000 A 
ATOM      3  C   UNL     1       1.567   9.575  18.388  0.00  0.00    +0.000 A 
ATOM      4  C   UNL     1       2.152   8.337  18.524  0.00  0.00    +0.000 A 
ATOM      5  C   UNL     1       2.049   7.612  19.689  0.00  0.00    +0.000 A 
ATOM      6  C   UNL     1       1.342   8.074  20.768  0.00  0.00    +0.000 A 
ATOM      7  C   UNL     1       0.719   9.321  20.640  0.00  0.00    +0.000 A 
ATOM      8  O   UNL     1       2.684   6.409  19.602  0.00  0.00    +0.000 OA
ATOM      9  C   UNL     1       2.972   6.380  18.189  0.00  0.00    +0.000 C 
ATOM     10  O   UNL     1       2.856   7.674  17.567  0.00  0.00    +0.000 OA
BRANCH   7  11
ATOM     11  O   UNL     1      -0.083   9.750  21.668  0.00  0.00    +0.000 OA
ATOM     12  H   UNL     1      -0.995   9.726  21.330  0.00  0.00    +0.000 HD
ENDBRANCH   7  11
ENDBRANCH   1   2
BRANCH   1  16
ATOM     13  C   UNL     1      -3.897  11.091  17.899  0.00  0.00    +0.000 A 
ATOM     14  C   UNL     1      -2.837  10.464  17.265  0.00  0.00    +0.000 A 
ATOM     15  C   UNL     1      -1.533  10.631  17.737  0.00  0.00    +0.000 A 
ATOM     16  C   UNL     1      -1.268  11.385  18.901  0.00  0.00    +0.000 A 
ATOM     17  C   UNL     1      -2.365  11.957  19.575  0.00  0.00    +0.000 A 
ATOM     18  C   UNL     1      -3.667  11.832  19.059  0.00  0.00    +0.000 A 
BRANCH  13  20
ATOM     19  C   UNL     1      -6.246  11.130  18.211  0.00  0.00    +0.000 C 
ATOM     20  O   UNL     1      -5.136  10.889  17.344  0.00  0.00    +0.000 OA
ENDBRANCH  13  20
BRANCH  17  21
ATOM     21  O   UNL     1      -2.098  12.675  20.724  0.00  0.00    +0.000 OA
ATOM     22  C   UNL     1      -2.704  13.960  20.824  0.00  0.00    +0.000 C 
ENDBRANCH  17  21
ENDBRANCH   1  16
BRANCH   1  23
ATOM     23  N   UNL     1       0.972  12.522  18.606  0.00  0.00    +0.000 NA
ATOM     24  C   UNL     1       2.200  13.010  19.271  0.00  0.00    +0.000 C 
ATOM     25  C   UNL     1       1.806  14.240  20.056  0.00  0.00    +0.000 C 
ATOM     26  C   UNL     1       0.793  14.898  19.154  0.00  0.00    +0.000 C 
ATOM     27  C   UNL     1       0.196  13.756  18.332  0.00  0.00    +0.000 C 
ENDBRANCH   1  23
TORSDOF 6
ENDMDL
MODEL 8
REMARK VINA RESULT:      -6.2      1.890      5.996
REMARK  Name = 
REMARK  8 active torsions:
REMARK  status: ('A' for Active; 'I' for Inactive)
REMARK    1  A    between atoms: C_1  and  O_2
REMARK    2  A    between atoms: O_2  and  C_3
REMARK    3  A    between atoms: C_6  and  C_7
REMARK    4  A    between atoms: C_7  and  C_8
REMARK    5  A    between atoms: C_7  and  N_18
REMARK    6  A    between atoms: C_13  and  O_14
REMARK    7  A    between atoms: C_23  and  O_24
REMARK    8  A    between atoms: O_24  and  C_25
REMARK                            x       y       z     vdW  Elec       q    Type
REMARK                         _______ _______ _______ _____ _____    ______ ____
ROOT
ATOM      1  C   UNL     1       2.321   4.955  18.951  0.00  0.00    +0.000 C 
ENDROOT
BRANCH   1   2
ATOM      2  C   UNL     1       3.845   4.851  18.679  0.00  0.00    +0.000 A 
ATOM      3  C   UNL     1       4.812   5.337  19.588  0.00  0.00    +0.000 A 
ATOM      4  C   UNL     1       6.147   5.188  19.288  0.00  0.00    +0.000 A 
ATOM      5  C   UNL     1       6.564   4.591  18.121  0.00  0.00    +0.000 A 
ATOM      6  C   UNL     1       5.674   4.132  17.185  0.00  0.00    +0.000 A 
ATOM      7  C   UNL     1       4.312   4.298  17.460  0.00  0.00    +0.000 A 
ATOM      8  O   UNL     1       7.922   4.563  18.016  0.00  0.00    +0.000 OA
ATOM      9  C   UNL     1       8.276   5.419  19.122  0.00  0.00    +0.000 C 
ATOM     10  O   UNL     1       7.191   5.611  20.050  0.00  0.00    +0.000 OA
BRANCH   7  11
ATOM     11  O   UNL     1       3.410   3.945  16.487  0.00  0.00    +0.000 OA
ATOM     12  H   UNL     1       3.831   4.160  15.636  0.00  0.00    +0.000 HD
ENDBRANCH   7  11
ENDBRANCH   1   2
BRANCH   1  16
ATOM     13  C   UNL     1       1.332   8.950  20.451  0.00  0.00    +0.000 A 
ATOM     14  C   UNL     1       1.211   7.837  21.268  0.00  0.00    +0.000 A 
ATOM     15  C   UNL     1       1.499   6.563  20.773  0.00  0.00    +0.000 A 
ATOM     16  C   UNL     1       1.978   6.381  19.458  0.00  0.00    +0.000 A 
ATOM     17  C   UNL     1       2.163   7.529  18.663  0.00  0.00    +0.000 A 
ATOM     18  C   UNL     1       1.815   8.801  19.150  0.00  0.00    +0.000 A 
BRANCH  13  20
ATOM     19  C   UNL     1       0.138  10.082  22.157  0.00  0.00    +0.000 C 
ATOM     20  O   UNL     1       0.999  10.154  21.019  0.00  0.00    +0.000 OA
ENDBRANCH  13  20
BRANCH  17  21
ATOM     21  O   UNL     1       2.652   7.343  17.385  0.00  0.00    +0.000 OA
ATOM     22  C   UNL     1       3.925   7.917  17.103  0.00  0.00    +0.000 C 
ENDBRANCH  17  21
ENDBRANCH   1  16
BRANCH   1  23
ATOM     23  N   UNL     1       1.809   3.895  19.894  0.00  0.00    +0.000 NA
ATOM     24  C   UNL     1       2.694   2.716  20.013  0.00  0.00    +0.000 C 
ATOM     25  C   UNL     1       2.241   1.730  18.961  0.00  0.00    +0.000 C 
ATOM     26  C   UNL     1       0.743   1.899  18.971  0.00  0.00    +0.000 C 
ATOM     27  C   UNL     1       0.511   3.330  19.453  0.00  0.00    +0.000 C 
ENDBRANCH   1  23
TORSDOF 6
ENDMDL
MODEL 9
REMARK VINA RESULT:      -6.2      3.880      7.185
REMARK  Name = 
REMARK  8 active torsions:
REMARK  status: ('A' for Active; 'I' for Inactive)
REMARK    1  A    between atoms: C_1  and  O_2
REMARK    2  A    between atoms: O_2  and  C_3
REMARK    3  A    between atoms: C_6  and  C_7
REMARK    4  A    between atoms: C_7  and  C_8
REMARK    5  A    between atoms: C_7  and  N_18
REMARK    6  A    between atoms: C_13  and  O_14
REMARK    7  A    between atoms: C_23  and  O_24
REMARK    8  A    between atoms: O_24  and  C_25
REMARK                            x       y       z     vdW  Elec       q    Type
REMARK                         _______ _______ _______ _____ _____    ______ ____
ROOT
ATOM      1  C   UNL     1       0.250  10.960  19.240  0.00  0.00    +0.000 C 
ENDROOT
BRANCH   1   2
ATOM      2  C   UNL     1       1.194  12.139  19.594  0.00  0.00    +0.000 A 
ATOM      3  C   UNL     1       1.168  12.777  20.854  0.00  0.00    +0.000 A 
ATOM      4  C   UNL     1       2.053  13.801  21.103  0.00  0.00    +0.000 A 
ATOM      5  C   UNL     1       2.952  14.229  20.153  0.00  0.00    +0.000 A 
ATOM      6  C   UNL     1       3.001  13.673  18.902  0.00  0.00    +0.000 A 
ATOM      7  C   UNL     1       2.091  12.646  18.621  0.00  0.00    +0.000 A 
ATOM      8  O   UNL     1       3.718  15.263  20.600  0.00  0.00    +0.000 OA
ATOM      9  C   UNL     1       3.027  15.574  21.827  0.00  0.00    +0.000 C 
ATOM     10  O   UNL     1       2.144  14.520  22.255  0.00  0.00    +0.000 OA
BRANCH   7  11
ATOM     11  O   UNL     1       2.051  12.153  17.340  0.00  0.00    +0.000 OA
ATOM     12  H   UNL     1       2.961  11.884  17.124  0.00  0.00    +0.000 HD
ENDBRANCH   7  11
ENDBRANCH   1   2
BRANCH   1  16
ATOM     13  C   UNL     1       2.546   7.231  19.117  0.00  0.00    +0.000 A 
ATOM     14  C   UNL     1       2.540   8.095  18.033  0.00  0.00    +0.000 A 
ATOM     15  C   UNL     1       1.781   9.267  18.068  0.00  0.00    +0.000 A 
ATOM     16  C   UNL     1       1.055   9.633  19.222  0.00  0.00    +0.000 A 
ATOM     17  C   UNL     1       1.128   8.780  20.341  0.00  0.00    +0.000 A 
ATOM     18  C   UNL     1       1.847   7.574  20.276  0.00  0.00    +0.000 A 
BRANCH  13  20
ATOM     19  C   UNL     1       3.039   5.061  19.930  0.00  0.00    +0.000 C 
ATOM     20  O   UNL     1       3.299   6.093  18.977  0.00  0.00    +0.000 OA
ENDBRANCH  13  20
BRANCH  17  21
ATOM     21  O   UNL     1       0.432   9.158  21.472  0.00  0.00    +0.000 OA
ATOM     22  C   UNL     1       1.188   9.273  22.673  0.00  0.00    +0.000 C 
ENDBRANCH  17  21
ENDBRANCH   1  16
BRANCH   1  23
ATOM     23  N   UNL     1      -0.505  11.165  17.951  0.00  0.00    +0.000 NA
ATOM     24  C   UNL     1      -1.517  12.243  18.009  0.00  0.00    +0.000 C 
ATOM     25  C   UNL     1      -2.812  11.595  18.444  0.00  0.00    +0.000 C 
ATOM     26  C   UNL     1      -2.767  10.262  17.742  0.00  0.00    +0.000 C 
ATOM     27  C   UNL     1      -1.280   9.964  17.554  0.00  0.00    +0.000 C 
ENDBRANCH   1  23
TORSDOF 6
ENDMDL
