MODEL 1
REMARK VINA RESULT:      -7.5      0.000      0.000
REMARK  Name = 
REMARK  9 active torsions:
REMARK  status: ('A' for Active; 'I' for Inactive)
REMARK    1  A    between atoms: C_1  and  C_2
REMARK    2  A    between atoms: C_2  and  C_3
REMARK    3  A    between atoms: C_6  and  N_7
REMARK    4  A    between atoms: C_8  and  C_10
REMARK    5  A    between atoms: C_10  and  C_11
REMARK    6  A    between atoms: C_14  and  C_15
REMARK    7  A    between atoms: C_15  and  O_16
REMARK    8  A    between atoms: O_16  and  C_17
REMARK    9  A    between atoms: C_21  and  C_22
REMARK                            x       y       z     vdW  Elec       q    Type
REMARK                         _______ _______ _______ _____ _____    ______ ____
ROOT
ATOM      1  C   UNL     1       5.722   5.731  17.546  0.00  0.00    +0.000 A 
ATOM      2  C   UNL     1       6.518   5.077  18.468  0.00  0.00    +0.000 A 
ATOM      3  S   UNL     1       7.889   6.034  18.846  0.00  0.00    +0.000 S 
ATOM      4  C   UNL     1       7.332   7.243  17.757  0.00  0.00    +0.000 A 
ATOM      5  N   UNL     1       6.233   6.939  17.096  0.00  0.00    +0.000 NA
ENDROOT
BRANCH   1   6
ATOM      6  C   UNL     1       4.396   5.290  17.028  0.00  0.00    +0.000 C 
BRANCH   6   8
ATOM      7  N   UNL     1       3.270   7.297  17.903  0.00  0.00    +0.000 N 
ATOM      8  C   UNL     1       3.198   5.927  17.712  0.00  0.00    +0.000 C 
ATOM      9  O   UNL     1       2.272   5.201  18.079  0.00  0.00    +0.000 OA
ATOM     10  H   UNL     1       4.053   7.772  17.457  0.00  0.00    +0.000 HD
BRANCH   7  14
ATOM     11  C   UNL     1       0.422   9.790  19.792  0.00  0.00    +0.000 A 
ATOM     12  C   UNL     1       0.640   9.900  18.415  0.00  0.00    +0.000 A 
ATOM     13  C   UNL     1       1.562   9.069  17.774  0.00  0.00    +0.000 A 
ATOM     14  C   UNL     1       2.277   8.109  18.488  0.00  0.00    +0.000 A 
ATOM     15  C   UNL     1       2.007   7.947  19.852  0.00  0.00    +0.000 A 
ATOM     16  C   UNL     1       1.097   8.790  20.502  0.00  0.00    +0.000 A 
BRANCH  11  18
ATOM     17  C   UNL     1      -1.521  11.367  19.523  0.00  0.00    +0.000 C 
ATOM     18  C   UNL     1      -0.523  10.739  20.482  0.00  0.00    +0.000 C 
ENDBRANCH  11  18
ENDBRANCH   7  14
ENDBRANCH   6   8
ENDBRANCH   1   6
BRANCH   4  19
ATOM     19  C   UNL     1       8.086   8.528  17.594  0.00  0.00    +0.000 C 
BRANCH  19  20
ATOM     20  O   UNL     1       8.715   8.802  18.847  0.00  0.00    +0.000 OA
BRANCH  20  21
ATOM     21  C   UNL     1       9.136  10.086  19.053  0.00  0.00    +0.000 A 
ATOM     22  C   UNL     1       9.478  10.788  17.896  0.00  0.00    +0.000 A 
ATOM     23  C   UNL     1       9.920  12.110  17.973  0.00  0.00    +0.000 A 
ATOM     24  C   UNL     1      10.023  12.738  19.212  0.00  0.00    +0.000 A 
ATOM     25  C   UNL     1       9.686  12.049  20.382  0.00  0.00    +0.000 A 
ATOM     26  C   UNL     1       9.801  12.696  21.730  0.00  0.00    +0.000 C 
ATOM     27  C   UNL     1       9.242  10.719  20.292  0.00  0.00    +0.000 A 
ENDBRANCH  20  21
ENDBRANCH  19  20
ENDBRANCH   4  19
TORSDOF 7
ENDMDL
MODEL 2
REMARK VINA RESULT:      -7.4      0.548      1.727
REMARK  Name = 
REMARK  9 active torsions:
REMARK  status: ('A' for Active; 'I' for Inactive)
REMARK    1  A    between atoms: C_1  and  C_2
REMARK    2  A    between atoms: C_2  and  C_3
REMARK    3  A    between atoms: C_6  and  N_7
REMARK    4  A    between atoms: C_8  and  C_10
REMARK    5  A    between atoms: C_10  and  C_11
REMARK    6  A    between atoms: C_14  and  C_15
REMARK    7  A    between atoms: C_15  and  O_16
REMARK    8  A    between atoms: O_16  and  C_17
REMARK    9  A    between atoms: C_21  and  C_22
REMARK                            x       y       z     vdW  Elec       q    Type
REMARK                         _______ _______ _______ _____ _____    ______ ____
ROOT
ATOM      1  C   UNL     1       5.565   5.938  17.632  0.00  0.00    +0.000 A 
ATOM      2  C   UNL     1       6.410   5.220  18.457  0.00  0.00    +0.000 A 
ATOM      3  S   UNL     1       7.831   6.124  18.775  0.00  0.00    +0.000 S 
ATOM      4  C   UNL     1       7.226   7.400  17.792  0.00  0.00    +0.000 A 
ATOM      5  N   UNL     1       6.072   7.155  17.204  0.00  0.00    +0.000 NA
ENDROOT
BRANCH   1   6
ATOM      6  C   UNL     1       4.191   5.555  17.197  0.00  0.00    +0.000 C 
BRANCH   6   8
ATOM      7  N   UNL     1       3.098   7.586  18.057  0.00  0.00    +0.000 N 
ATOM      8  C   UNL     1       3.066   6.204  17.986  0.00  0.00    +0.000 C 
ATOM      9  O   UNL     1       2.232   5.478  18.530  0.00  0.00    +0.000 OA
ATOM     10  H   UNL     1       3.793   8.050  17.474  0.00  0.00    +0.000 HD
BRANCH   7  14
ATOM     11  C   UNL     1       0.136  10.002  19.870  0.00  0.00    +0.000 A 
ATOM     12  C   UNL     1       0.824   9.053  20.632  0.00  0.00    +0.000 A 
ATOM     13  C   UNL     1       1.819   8.262  20.052  0.00  0.00    +0.000 A 
ATOM     14  C   UNL     1       2.155   8.408  18.707  0.00  0.00    +0.000 A 
ATOM     15  C   UNL     1       1.519   9.407  17.960  0.00  0.00    +0.000 A 
ATOM     16  C   UNL     1       0.508  10.189  18.533  0.00  0.00    +0.000 A 
BRANCH  11  18
ATOM     17  C   UNL     1      -0.837  10.930  21.997  0.00  0.00    +0.000 C 
ATOM     18  C   UNL     1      -0.983  10.798  20.490  0.00  0.00    +0.000 C 
ENDBRANCH  11  18
ENDBRANCH   7  14
ENDBRANCH   6   8
ENDBRANCH   1   6
BRANCH   4  19
ATOM     19  C   UNL     1       8.000   8.673  17.634  0.00  0.00    +0.000 C 
BRANCH  19  20
ATOM     20  O   UNL     1       8.703   8.886  18.859  0.00  0.00    +0.000 OA
BRANCH  20  21
ATOM     21  C   UNL     1       9.266  10.120  19.035  0.00  0.00    +0.000 A 
ATOM     22  C   UNL     1       9.421  10.513  20.365  0.00  0.00    +0.000 A 
ATOM     23  C   UNL     1       9.987  11.751  20.677  0.00  0.00    +0.000 A 
ATOM     24  C   UNL     1      10.400  12.604  19.657  0.00  0.00    +0.000 A 
ATOM     25  C   UNL     1      10.251  12.227  18.318  0.00  0.00    +0.000 A 
ATOM     26  C   UNL     1      10.673  13.132  17.200  0.00  0.00    +0.000 C 
ATOM     27  C   UNL     1       9.680  10.979  18.016  0.00  0.00    +0.000 A 
ENDBRANCH  20  21
ENDBRANCH  19  20
ENDBRANCH   4  19
TORSDOF 7
ENDMDL
MODEL 3
REMARK VINA RESULT:      -7.4      2.858      8.669
REMARK  Name = 
REMARK  9 active torsions:
REMARK  status: ('A' for Active; 'I' for Inactive)
REMARK    1  A    between atoms: C_1  and  C_2
REMARK    2  A    between atoms: C_2  and  C_3
REMARK    3  A    between atoms: C_6  and  N_7
REMARK    4  A    between atoms: C_8  and  C_10
REMARK    5  A    between atoms: C_10  and  C_11
REMARK    6  A    between atoms: C_14  and  C_15
REMARK    7  A    between atoms: C_15  and  O_16
REMARK    8  A    between atoms: O_16  and  C_17
REMARK    9  A    between atoms: C_21  and  C_22
REMARK                            x       y       z     vdW  Elec       q    Type
REMARK                         _______ _______ _______ _____ _____    ______ ____
ROOT
ATOM      1  C   UNL     1       6.881   6.450  17.638  0.00  0.00    +0.000 A 
ATOM      2  C   UNL     1       6.885   5.743  16.451  0.00  0.00    +0.000 A 
ATOM      3  S   UNL     1       5.277   5.468  15.925  0.00  0.00    +0.000 S 
ATOM      4  C   UNL     1       4.692   6.301  17.311  0.00  0.00    +0.000 A 
ATOM      5  N   UNL     1       5.620   6.705  18.155  0.00  0.00    +0.000 NA
ENDROOT
BRANCH   1   6
ATOM      6  C   UNL     1       8.065   6.976  18.378  0.00  0.00    +0.000 C 
BRANCH   6   8
ATOM      7  N   UNL     1       9.061   9.052  19.246  0.00  0.00    +0.000 N 
ATOM      8  C   UNL     1       8.279   8.475  18.260  0.00  0.00    +0.000 C 
ATOM      9  O   UNL     1       7.732   9.079  17.336  0.00  0.00    +0.000 OA
ATOM     10  H   UNL     1       9.525   8.409  19.886  0.00  0.00    +0.000 HD
BRANCH   7  14
ATOM     11  C   UNL     1      10.004  13.174  19.371  0.00  0.00    +0.000 A 
ATOM     12  C   UNL     1       9.677  12.498  20.549  0.00  0.00    +0.000 A 
ATOM     13  C   UNL     1       9.384  11.132  20.528  0.00  0.00    +0.000 A 
ATOM     14  C   UNL     1       9.420  10.413  19.334  0.00  0.00    +0.000 A 
ATOM     15  C   UNL     1       9.818  11.070  18.164  0.00  0.00    +0.000 A 
ATOM     16  C   UNL     1      10.095  12.444  18.179  0.00  0.00    +0.000 A 
BRANCH  11  18
ATOM     17  C   UNL     1      11.003  15.148  18.171  0.00  0.00    +0.000 C 
ATOM     18  C   UNL     1      10.249  14.661  19.398  0.00  0.00    +0.000 C 
ENDBRANCH  11  18
ENDBRANCH   7  14
ENDBRANCH   6   8
ENDBRANCH   1   6
BRANCH   4  19
ATOM     19  C   UNL     1       3.222   6.513  17.508  0.00  0.00    +0.000 C 
BRANCH  19  20
ATOM     20  O   UNL     1       2.944   6.240  18.882  0.00  0.00    +0.000 OA
BRANCH  20  21
ATOM     21  C   UNL     1       2.341   5.045  19.160  0.00  0.00    +0.000 A 
ATOM     22  C   UNL     1       1.767   4.405  18.061  0.00  0.00    +0.000 A 
ATOM     23  C   UNL     1       1.124   3.175  18.213  0.00  0.00    +0.000 A 
ATOM     24  C   UNL     1       1.050   2.579  19.470  0.00  0.00    +0.000 A 
ATOM     25  C   UNL     1       1.618   3.208  20.582  0.00  0.00    +0.000 A 
ATOM     26  C   UNL     1       1.540   2.596  21.949  0.00  0.00    +0.000 C 
ATOM     27  C   UNL     1       2.263   4.445  20.417  0.00  0.00    +0.000 A 
ENDBRANCH  20  21
ENDBRANCH  19  20
ENDBRANCH   4  19
TORSDOF 7
ENDMDL
MODEL 4
REMARK VINA RESULT:      -7.1      5.378      8.267
REMARK  Name = 
REMARK  9 active torsions:
REMARK  status: ('A' for Active; 'I' for Inactive)
REMARK    1  A    between atoms: C_1  and  C_2
REMARK    2  A    between atoms: C_2  and  C_3
REMARK    3  A    between atoms: C_6  and  N_7
REMARK    4  A    between atoms: C_8  and  C_10
REMARK    5  A    between atoms: C_10  and  C_11
REMARK    6  A    between atoms: C_14  and  C_15
REMARK    7  A    between atoms: C_15  and  O_16
REMARK    8  A    between atoms: O_16  and  C_17
REMARK    9  A    between atoms: C_21  and  C_22
REMARK                            x       y       z     vdW  Elec       q    Type
REMARK                         _______ _______ _______ _____ _____    ______ ____
ROOT
ATOM      1  C   UNL     1       1.093  10.721  19.426  0.00  0.00    +0.000 A 
ATOM      2  C   UNL     1       0.875  10.160  20.670  0.00  0.00    +0.000 A 
ATOM      3  S   UNL     1       1.328   8.507  20.659  0.00  0.00    +0.000 S 
ATOM      4  C   UNL     1       1.776   8.652  19.004  0.00  0.00    +0.000 A 
ATOM      5  N   UNL     1       1.545   9.831  18.462  0.00  0.00    +0.000 NA
ENDROOT
BRANCH   1   6
ATOM      6  C   UNL     1       0.924  12.151  19.039  0.00  0.00    +0.000 C 
BRANCH   6   8
ATOM      7  N   UNL     1      -1.431  11.529  18.684  0.00  0.00    +0.000 N 
ATOM      8  C   UNL     1      -0.484  12.537  18.618  0.00  0.00    +0.000 C 
ATOM      9  O   UNL     1      -0.687  13.685  18.220  0.00  0.00    +0.000 OA
ATOM     10  H   UNL     1      -1.133  10.661  19.126  0.00  0.00    +0.000 HD
BRANCH   7  14
ATOM     11  C   UNL     1      -5.530  12.088  17.800  0.00  0.00    +0.000 A 
ATOM     12  C   UNL     1      -4.677  11.545  16.836  0.00  0.00    +0.000 A 
ATOM     13  C   UNL     1      -3.325  11.335  17.120  0.00  0.00    +0.000 A 
ATOM     14  C   UNL     1      -2.800  11.653  18.372  0.00  0.00    +0.000 A 
ATOM     15  C   UNL     1      -3.667  12.128  19.363  0.00  0.00    +0.000 A 
ATOM     16  C   UNL     1      -5.019  12.357  19.076  0.00  0.00    +0.000 A 
BRANCH  11  18
ATOM     17  C   UNL     1      -7.192  13.822  17.048  0.00  0.00    +0.000 C 
ATOM     18  C   UNL     1      -6.969  12.375  17.458  0.00  0.00    +0.000 C 
ENDBRANCH  11  18
ENDBRANCH   7  14
ENDBRANCH   6   8
ENDBRANCH   1   6
BRANCH   4  19
ATOM     19  C   UNL     1       2.366   7.487  18.270  0.00  0.00    +0.000 C 
BRANCH  19  20
ATOM     20  O   UNL     1       2.911   6.608  19.255  0.00  0.00    +0.000 OA
BRANCH  20  21
ATOM     21  C   UNL     1       2.361   5.359  19.332  0.00  0.00    +0.000 A 
ATOM     22  C   UNL     1       1.970   4.809  18.111  0.00  0.00    +0.000 A 
ATOM     23  C   UNL     1       1.398   3.537  18.056  0.00  0.00    +0.000 A 
ATOM     24  C   UNL     1       1.213   2.806  19.227  0.00  0.00    +0.000 A 
ATOM     25  C   UNL     1       1.597   3.342  20.460  0.00  0.00    +0.000 A 
ATOM     26  C   UNL     1       1.395   2.583  21.738  0.00  0.00    +0.000 C 
ATOM     27  C   UNL     1       2.172   4.624  20.503  0.00  0.00    +0.000 A 
ENDBRANCH  20  21
ENDBRANCH  19  20
ENDBRANCH   4  19
TORSDOF 7
ENDMDL
MODEL 5
REMARK VINA RESULT:      -7.1      2.966      4.270
REMARK  Name = 
REMARK  9 active torsions:
REMARK  status: ('A' for Active; 'I' for Inactive)
REMARK    1  A    between atoms: C_1  and  C_2
REMARK    2  A    between atoms: C_2  and  C_3
REMARK    3  A    between atoms: C_6  and  N_7
REMARK    4  A    between atoms: C_8  and  C_10
REMARK    5  A    between atoms: C_10  and  C_11
REMARK    6  A    between atoms: C_14  and  C_15
REMARK    7  A    between atoms: C_15  and  O_16
REMARK    8  A    between atoms: O_16  and  C_17
REMARK    9  A    between atoms: C_21  and  C_22
REMARK                            x       y       z     vdW  Elec       q    Type
REMARK                         _______ _______ _______ _____ _____    ______ ____
ROOT
ATOM      1  C   UNL     1       3.318   3.724  19.284  0.00  0.00    +0.000 A 
ATOM      2  C   UNL     1       3.311   2.391  18.920  0.00  0.00    +0.000 A 
ATOM      3  S   UNL     1       3.999   2.203  17.362  0.00  0.00    +0.000 S 
ATOM      4  C   UNL     1       4.251   3.903  17.280  0.00  0.00    +0.000 A 
ATOM      5  N   UNL     1       3.796   4.587  18.310  0.00  0.00    +0.000 NA
ENDROOT
BRANCH   1   6
ATOM      6  C   UNL     1       2.901   4.303  20.594  0.00  0.00    +0.000 C 
BRANCH   6   8
ATOM      7  N   UNL     1       2.459   6.713  20.358  0.00  0.00    +0.000 N 
ATOM      8  C   UNL     1       1.909   5.450  20.500  0.00  0.00    +0.000 C 
ATOM      9  O   UNL     1       0.706   5.199  20.589  0.00  0.00    +0.000 OA
ATOM     10  H   UNL     1       3.465   6.749  20.201  0.00  0.00    +0.000 HD
BRANCH   7  14
ATOM     11  C   UNL     1       0.421  10.411  20.108  0.00  0.00    +0.000 A 
ATOM     12  C   UNL     1       1.008   9.861  18.966  0.00  0.00    +0.000 A 
ATOM     13  C   UNL     1       1.667   8.630  19.027  0.00  0.00    +0.000 A 
ATOM     14  C   UNL     1       1.745   7.921  20.225  0.00  0.00    +0.000 A 
ATOM     15  C   UNL     1       1.095   8.434  21.354  0.00  0.00    +0.000 A 
ATOM     16  C   UNL     1       0.450   9.677  21.300  0.00  0.00    +0.000 A 
BRANCH  11  18
ATOM     17  C   UNL     1      -0.247  12.337  18.632  0.00  0.00    +0.000 C 
ATOM     18  C   UNL     1      -0.224  11.771  20.043  0.00  0.00    +0.000 C 
ENDBRANCH  11  18
ENDBRANCH   7  14
ENDBRANCH   6   8
ENDBRANCH   1   6
BRANCH   4  19
ATOM     19  C   UNL     1       4.930   4.516  16.093  0.00  0.00    +0.000 C 
BRANCH  19  20
ATOM     20  O   UNL     1       6.335   4.351  16.288  0.00  0.00    +0.000 OA
BRANCH  20  21
ATOM     21  C   UNL     1       6.946   5.241  17.128  0.00  0.00    +0.000 A 
ATOM     22  C   UNL     1       7.451   4.689  18.306  0.00  0.00    +0.000 A 
ATOM     23  C   UNL     1       8.099   5.494  19.245  0.00  0.00    +0.000 A 
ATOM     24  C   UNL     1       8.245   6.859  19.009  0.00  0.00    +0.000 A 
ATOM     25  C   UNL     1       7.743   7.429  17.835  0.00  0.00    +0.000 A 
ATOM     26  C   UNL     1       7.873   8.898  17.563  0.00  0.00    +0.000 C 
ATOM     27  C   UNL     1       7.092   6.609  16.897  0.00  0.00    +0.000 A 
ENDBRANCH  20  21
ENDBRANCH  19  20
ENDBRANCH   4  19
TORSDOF 7
ENDMDL
MODEL 6
REMARK VINA RESULT:      -7.1      3.845      5.845
REMARK  Name = 
REMARK  9 active torsions:
REMARK  status: ('A' for Active; 'I' for Inactive)
REMARK    1  A    between atoms: C_1  and  C_2
REMARK    2  A    between atoms: C_2  and  C_3
REMARK    3  A    between atoms: C_6  and  N_7
REMARK    4  A    between atoms: C_8  and  C_10
REMARK    5  A    between atoms: C_10  and  C_11
REMARK    6  A    between atoms: C_14  and  C_15
REMARK    7  A    between atoms: C_15  and  O_16
REMARK    8  A    between atoms: O_16  and  C_17
REMARK    9  A    between atoms: C_21  and  C_22
REMARK                            x       y       z     vdW  Elec       q    Type
REMARK                         _______ _______ _______ _____ _____    ______ ____
ROOT
ATOM      1  C   UNL     1       2.278   7.168  18.876  0.00  0.00    +0.000 A 
ATOM      2  C   UNL     1       2.315   6.638  20.152  0.00  0.00    +0.000 A 
ATOM      3  S   UNL     1       2.511   4.937  20.078  0.00  0.00    +0.000 S 
ATOM      4  C   UNL     1       2.528   5.024  18.360  0.00  0.00    +0.000 A 
ATOM      5  N   UNL     1       2.333   6.228  17.858  0.00  0.00    +0.000 NA
ENDROOT
BRANCH   1   6
ATOM      6  C   UNL     1       2.217   8.609  18.500  0.00  0.00    +0.000 C 
BRANCH   6   8
ATOM      7  N   UNL     1       0.130   9.707  17.796  0.00  0.00    +0.000 N 
ATOM      8  C   UNL     1       0.919   9.311  18.862  0.00  0.00    +0.000 C 
ATOM      9  O   UNL     1       0.668   9.511  20.052  0.00  0.00    +0.000 OA
ATOM     10  H   UNL     1       0.423   9.384  16.876  0.00  0.00    +0.000 HD
BRANCH   7  14
ATOM     11  C   UNL     1      -3.707  11.462  18.105  0.00  0.00    +0.000 A 
ATOM     12  C   UNL     1      -2.625  12.028  18.785  0.00  0.00    +0.000 A 
ATOM     13  C   UNL     1      -1.348  11.472  18.676  0.00  0.00    +0.000 A 
ATOM     14  C   UNL     1      -1.123  10.349  17.881  0.00  0.00    +0.000 A 
ATOM     15  C   UNL     1      -2.189   9.824  17.141  0.00  0.00    +0.000 A 
ATOM     16  C   UNL     1      -3.474  10.368  17.263  0.00  0.00    +0.000 A 
BRANCH  11  18
ATOM     17  C   UNL     1      -6.158  10.948  18.357  0.00  0.00    +0.000 C 
ATOM     18  C   UNL     1      -5.091  12.029  18.287  0.00  0.00    +0.000 C 
ENDBRANCH  11  18
ENDBRANCH   7  14
ENDBRANCH   6   8
ENDBRANCH   1   6
BRANCH   4  19
ATOM     19  C   UNL     1       2.737   3.791  17.536  0.00  0.00    +0.000 C 
BRANCH  19  20
ATOM     20  O   UNL     1       4.045   3.304  17.842  0.00  0.00    +0.000 OA
BRANCH  20  21
ATOM     21  C   UNL     1       5.094   4.107  17.493  0.00  0.00    +0.000 A 
ATOM     22  C   UNL     1       5.268   4.287  16.120  0.00  0.00    +0.000 A 
ATOM     23  C   UNL     1       6.304   5.089  15.636  0.00  0.00    +0.000 A 
ATOM     24  C   UNL     1       7.174   5.715  16.525  0.00  0.00    +0.000 A 
ATOM     25  C   UNL     1       7.015   5.544  17.904  0.00  0.00    +0.000 A 
ATOM     26  C   UNL     1       7.946   6.194  18.884  0.00  0.00    +0.000 C 
ATOM     27  C   UNL     1       5.970   4.735  18.380  0.00  0.00    +0.000 A 
ENDBRANCH  20  21
ENDBRANCH  19  20
ENDBRANCH   4  19
TORSDOF 7
ENDMDL
MODEL 7
REMARK VINA RESULT:      -7.0      2.860      8.672
REMARK  Name = 
REMARK  9 active torsions:
REMARK  status: ('A' for Active; 'I' for Inactive)
REMARK    1  A    between atoms: C_1  and  C_2
REMARK    2  A    between atoms: C_2  and  C_3
REMARK    3  A    between atoms: C_6  and  N_7
REMARK    4  A    between atoms: C_8  and  C_10
REMARK    5  A    between atoms: C_10  and  C_11
REMARK    6  A    between atoms: C_14  and  C_15
REMARK    7  A    between atoms: C_15  and  O_16
REMARK    8  A    between atoms: O_16  and  C_17
REMARK    9  A    between atoms: C_21  and  C_22
REMARK                            x       y       z     vdW  Elec       q    Type
REMARK                         _______ _______ _______ _____ _____    ______ ____
ROOT
ATOM      1  C   UNL     1       6.560   5.896  18.105  0.00  0.00    +0.000 A 
ATOM      2  C   UNL     1       6.437   4.793  17.282  0.00  0.00    +0.000 A 
ATOM      3  S   UNL     1       4.796   4.564  16.844  0.00  0.00    +0.000 S 
ATOM      4  C   UNL     1       4.365   5.941  17.781  0.00  0.00    +0.000 A 
ATOM      5  N   UNL     1       5.359   6.505  18.438  0.00  0.00    +0.000 NA
ENDROOT
BRANCH   1   6
ATOM      6  C   UNL     1       7.821   6.495  18.629  0.00  0.00    +0.000 C 
BRANCH   6   8
ATOM      7  N   UNL     1       8.694   8.767  18.993  0.00  0.00    +0.000 N 
ATOM      8  C   UNL     1       8.148   7.875  18.085  0.00  0.00    +0.000 C 
ATOM      9  O   UNL     1       7.883   8.125  16.908  0.00  0.00    +0.000 OA
ATOM     10  H   UNL     1       8.945   8.384  19.903  0.00  0.00    +0.000 HD
BRANCH   7  14
ATOM     11  C   UNL     1       9.741  12.796  18.241  0.00  0.00    +0.000 A 
ATOM     12  C   UNL     1      10.600  11.980  18.983  0.00  0.00    +0.000 A 
ATOM     13  C   UNL     1      10.278  10.641  19.222  0.00  0.00    +0.000 A 
ATOM     14  C   UNL     1       9.100  10.089  18.719  0.00  0.00    +0.000 A 
ATOM     15  C   UNL     1       8.274  10.883  17.915  0.00  0.00    +0.000 A 
ATOM     16  C   UNL     1       8.585  12.231  17.689  0.00  0.00    +0.000 A 
BRANCH  11  18
ATOM     17  C   UNL     1      11.220  14.713  18.930  0.00  0.00    +0.000 C 
ATOM     18  C   UNL     1      10.066  14.255  18.051  0.00  0.00    +0.000 C 
ENDBRANCH  11  18
ENDBRANCH   7  14
ENDBRANCH   6   8
ENDBRANCH   1   6
BRANCH   4  19
ATOM     19  C   UNL     1       2.945   6.416  17.829  0.00  0.00    +0.000 C 
BRANCH  19  20
ATOM     20  O   UNL     1       2.534   6.360  19.195  0.00  0.00    +0.000 OA
BRANCH  20  21
ATOM     21  C   UNL     1       2.145   5.138  19.668  0.00  0.00    +0.000 A 
ATOM     22  C   UNL     1       2.400   4.920  21.023  0.00  0.00    +0.000 A 
ATOM     23  C   UNL     1       2.046   3.712  21.626  0.00  0.00    +0.000 A 
ATOM     24  C   UNL     1       1.435   2.711  20.874  0.00  0.00    +0.000 A 
ATOM     25  C   UNL     1       1.174   2.911  19.514  0.00  0.00    +0.000 A 
ATOM     26  C   UNL     1       0.532   1.845  18.678  0.00  0.00    +0.000 C 
ATOM     27  C   UNL     1       1.535   4.131  18.918  0.00  0.00    +0.000 A 
ENDBRANCH  20  21
ENDBRANCH  19  20
ENDBRANCH   4  19
TORSDOF 7
ENDMDL
MODEL 8
REMARK VINA RESULT:      -7.0      1.581      7.591
REMARK  Name = 
REMARK  9 active torsions:
REMARK  status: ('A' for Active; 'I' for Inactive)
REMARK    1  A    between atoms: C_1  and  C_2
REMARK    2  A    between atoms: C_2  and  C_3
REMARK    3  A    between atoms: C_6  and  N_7
REMARK    4  A    between atoms: C_8  and  C_10
REMARK    5  A    between atoms: C_10  and  C_11
REMARK    6  A    between atoms: C_14  and  C_15
REMARK    7  A    between atoms: C_15  and  O_16
REMARK    8  A    between atoms: O_16  and  C_17
REMARK    9  A    between atoms: C_21  and  C_22
REMARK                            x       y       z     vdW  Elec       q    Type
REMARK                         _______ _______ _______ _____ _____    ______ ____
ROOT
ATOM      1  C   UNL     1       6.915   5.956  17.698  0.00  0.00    +0.000 A 
ATOM      2  C   UNL     1       6.971   5.388  16.439  0.00  0.00    +0.000 A 
ATOM      3  S   UNL     1       5.407   4.887  15.950  0.00  0.00    +0.000 S 
ATOM      4  C   UNL     1       4.769   5.452  17.443  0.00  0.00    +0.000 A 
ATOM      5  N   UNL     1       5.662   5.925  18.291  0.00  0.00    +0.000 NA
ENDROOT
BRANCH   1   6
ATOM      6  C   UNL     1       8.031   6.604  18.445  0.00  0.00    +0.000 C 
BRANCH   6   8
ATOM      7  N   UNL     1       8.953   8.773  19.155  0.00  0.00    +0.000 N 
ATOM      8  C   UNL     1       8.144   8.106  18.250  0.00  0.00    +0.000 C 
ATOM      9  O   UNL     1       7.499   8.634  17.343  0.00  0.00    +0.000 OA
ATOM     10  H   UNL     1       9.498   8.188  19.787  0.00  0.00    +0.000 HD
BRANCH   7  14
ATOM     11  C   UNL     1       9.639  12.946  19.051  0.00  0.00    +0.000 A 
ATOM     12  C   UNL     1       9.495  12.294  20.279  0.00  0.00    +0.000 A 
ATOM     13  C   UNL     1       9.289  10.912  20.331  0.00  0.00    +0.000 A 
ATOM     14  C   UNL     1       9.232  10.155  19.162  0.00  0.00    +0.000 A 
ATOM     15  C   UNL     1       9.448  10.793  17.935  0.00  0.00    +0.000 A 
ATOM     16  C   UNL     1       9.636  12.181  17.879  0.00  0.00    +0.000 A 
BRANCH  11  18
ATOM     17  C   UNL     1       8.711  15.161  19.805  0.00  0.00    +0.000 C 
ATOM     18  C   UNL     1       9.789  14.444  19.007  0.00  0.00    +0.000 C 
ENDBRANCH  11  18
ENDBRANCH   7  14
ENDBRANCH   6   8
ENDBRANCH   1   6
BRANCH   4  19
ATOM     19  C   UNL     1       3.299   5.376  17.722  0.00  0.00    +0.000 C 
BRANCH  19  20
ATOM     20  O   UNL     1       3.123   5.683  19.106  0.00  0.00    +0.000 OA
BRANCH  20  21
ATOM     21  C   UNL     1       2.440   6.831  19.396  0.00  0.00    +0.000 A 
ATOM     22  C   UNL     1       1.828   6.853  20.650  0.00  0.00    +0.000 A 
ATOM     23  C   UNL     1       1.102   7.971  21.066  0.00  0.00    +0.000 A 
ATOM     24  C   UNL     1       0.985   9.076  20.227  0.00  0.00    +0.000 A 
ATOM     25  C   UNL     1       1.590   9.071  18.966  0.00  0.00    +0.000 A 
ATOM     26  C   UNL     1       1.467  10.241  18.036  0.00  0.00    +0.000 C 
ATOM     27  C   UNL     1       2.317   7.940  18.558  0.00  0.00    +0.000 A 
ENDBRANCH  20  21
ENDBRANCH  19  20
ENDBRANCH   4  19
TORSDOF 7
ENDMDL
MODEL 9
REMARK VINA RESULT:      -7.0      5.354      9.582
REMARK  Name = 
REMARK  9 active torsions:
REMARK  status: ('A' for Active; 'I' for Inactive)
REMARK    1  A    between atoms: C_1  and  C_2
REMARK    2  A    between atoms: C_2  and  C_3
REMARK    3  A    between atoms: C_6  and  N_7
REMARK    4  A    between atoms: C_8  and  C_10
REMARK    5  A    between atoms: C_10  and  C_11
REMARK    6  A    between atoms: C_14  and  C_15
REMARK    7  A    between atoms: C_15  and  O_16
REMARK    8  A    between atoms: O_16  and  C_17
REMARK    9  A    between atoms: C_21  and  C_22
REMARK                            x       y       z     vdW  Elec       q    Type
REMARK                         _______ _______ _______ _____ _____    ______ ____
ROOT
ATOM      1  C   UNL     1      -1.028  11.030  22.773  0.00  0.00    +0.000 A 
ATOM      2  C   UNL     1      -1.933  11.780  23.499  0.00  0.00    +0.000 A 
ATOM      3  S   UNL     1      -2.449  13.131  22.580  0.00  0.00    +0.000 S 
ATOM      4  C   UNL     1      -1.432  12.628  21.287  0.00  0.00    +0.000 A 
ATOM      5  N   UNL     1      -0.698  11.561  21.535  0.00  0.00    +0.000 NA
ENDROOT
BRANCH   1   6
ATOM      6  C   UNL     1      -0.414   9.729  23.166  0.00  0.00    +0.000 C 
BRANCH   6   8
ATOM      7  N   UNL     1       0.451   8.685  21.112  0.00  0.00    +0.000 N 
ATOM      8  C   UNL     1       0.767   9.295  22.315  0.00  0.00    +0.000 C 
ATOM      9  O   UNL     1       1.906   9.476  22.748  0.00  0.00    +0.000 OA
ATOM     10  H   UNL     1      -0.532   8.696  20.848  0.00  0.00    +0.000 HD
BRANCH   7  14
ATOM     11  C   UNL     1       3.104   7.132  18.206  0.00  0.00    +0.000 A 
ATOM     12  C   UNL     1       2.523   8.389  18.018  0.00  0.00    +0.000 A 
ATOM     13  C   UNL     1       1.661   8.925  18.979  0.00  0.00    +0.000 A 
ATOM     14  C   UNL     1       1.370   8.223  20.148  0.00  0.00    +0.000 A 
ATOM     15  C   UNL     1       2.007   6.997  20.373  0.00  0.00    +0.000 A 
ATOM     16  C   UNL     1       2.857   6.449  19.403  0.00  0.00    +0.000 A 
BRANCH  11  18
ATOM     17  C   UNL     1       5.415   6.352  17.584  0.00  0.00    +0.000 C 
ATOM     18  C   UNL     1       3.975   6.536  17.131  0.00  0.00    +0.000 C 
ENDBRANCH  11  18
ENDBRANCH   7  14
ENDBRANCH   6   8
ENDBRANCH   1   6
BRANCH   4  19
ATOM     19  C   UNL     1      -1.405  13.389  19.997  0.00  0.00    +0.000 C 
BRANCH  19  20
ATOM     20  O   UNL     1      -0.904  12.498  19.000  0.00  0.00    +0.000 OA
BRANCH  20  21
ATOM     21  C   UNL     1      -1.820  11.692  18.383  0.00  0.00    +0.000 A 
ATOM     22  C   UNL     1      -1.282  10.598  17.704  0.00  0.00    +0.000 A 
ATOM     23  C   UNL     1      -2.114   9.698  17.036  0.00  0.00    +0.000 A 
ATOM     24  C   UNL     1      -3.494   9.889  17.043  0.00  0.00    +0.000 A 
ATOM     25  C   UNL     1      -4.051  10.981  17.717  0.00  0.00    +0.000 A 
ATOM     26  C   UNL     1      -5.531  11.219  17.727  0.00  0.00    +0.000 C 
ATOM     27  C   UNL     1      -3.203  11.881  18.385  0.00  0.00    +0.000 A 
ENDBRANCH  20  21
ENDBRANCH  19  20
ENDBRANCH   4  19
TORSDOF 7
ENDMDL
