MODEL 1
REMARK VINA RESULT:      -7.8      0.000      0.000
REMARK  Name = 
REMARK  4 active torsions:
REMARK  status: ('A' for Active; 'I' for Inactive)
REMARK    1  A    between atoms: C_1  and  C_2
REMARK    2  A    between atoms: N_7  and  C_8
REMARK    3  A    between atoms: C_8  and  C_9
REMARK    4  A    between atoms: C_10  and  O_11
REMARK                            x       y       z     vdW  Elec       q    Type
REMARK                         _______ _______ _______ _____ _____    ______ ____
ROOT
ATOM      1  C   UNL     1       5.172   5.459  17.938  0.00  0.00    +0.000 A 
ATOM      2  C   UNL     1       4.917   6.699  17.317  0.00  0.00    +0.000 A 
ATOM      3  C   UNL     1       3.739   7.401  17.538  0.00  0.00    +0.000 A 
ATOM      4  C   UNL     1       2.757   6.872  18.359  0.00  0.00    +0.000 A 
ATOM      5  C   UNL     1       2.945   5.637  18.987  0.00  0.00    +0.000 A 
ATOM      6  C   UNL     1       1.900   5.126  19.774  0.00  0.00    +0.000 A 
ATOM      7  C   UNL     1       2.020   3.903  20.424  0.00  0.00    +0.000 A 
ATOM      8  C   UNL     1       3.201   3.187  20.307  0.00  0.00    +0.000 A 
ATOM      9  C   UNL     1       4.251   3.683  19.519  0.00  0.00    +0.000 A 
ATOM     10  C   UNL     1       4.161   4.913  18.812  0.00  0.00    +0.000 A 
ENDROOT
BRANCH   2  11
ATOM     11  O   UNL     1       5.762   7.303  16.428  0.00  0.00    +0.000 OA
ATOM     12  H   UNL     1       5.353   8.126  16.088  0.00  0.00    +0.000 HD
ENDBRANCH   2  11
BRANCH   1  13
ATOM     13  C   UNL     1       6.423   4.679  17.557  0.00  0.00    +0.000 C 
BRANCH  13  20
ATOM     14  C   UNL     1       5.519   2.933  11.669  0.00  0.00    +0.000 C 
ATOM     15  C   UNL     1       6.155   3.677  12.806  0.00  0.00    +0.000 A 
ATOM     16  C   UNL     1       7.116   4.656  12.571  0.00  0.00    +0.000 A 
ATOM     17  C   UNL     1       7.679   5.286  13.664  0.00  0.00    +0.000 A 
ATOM     18  N   UNL     1       7.349   5.015  14.950  0.00  0.00    +0.000 NA
ATOM     19  C   UNL     1       6.406   4.079  15.184  0.00  0.00    +0.000 A 
ATOM     20  N   UNL     1       6.172   3.681  16.507  0.00  0.00    +0.000 N 
ATOM     21  C   UNL     1       5.817   3.377  14.133  0.00  0.00    +0.000 A 
ATOM     22  H   UNL     1       5.240   3.289  16.599  0.00  0.00    +0.000 HD
ENDBRANCH  13  20
ENDBRANCH   1  13
TORSDOF 3
ENDMDL
MODEL 2
REMARK VINA RESULT:      -7.7      1.811      2.976
REMARK  Name = 
REMARK  4 active torsions:
REMARK  status: ('A' for Active; 'I' for Inactive)
REMARK    1  A    between atoms: C_1  and  C_2
REMARK    2  A    between atoms: N_7  and  C_8
REMARK    3  A    between atoms: C_8  and  C_9
REMARK    4  A    between atoms: C_10  and  O_11
REMARK                            x       y       z     vdW  Elec       q    Type
REMARK                         _______ _______ _______ _____ _____    ______ ____
ROOT
ATOM      1  C   UNL     1       4.244   4.047  19.231  0.00  0.00    +0.000 A 
ATOM      2  C   UNL     1       4.118   2.830  19.932  0.00  0.00    +0.000 A 
ATOM      3  C   UNL     1       3.129   2.632  20.887  0.00  0.00    +0.000 A 
ATOM      4  C   UNL     1       2.253   3.658  21.203  0.00  0.00    +0.000 A 
ATOM      5  C   UNL     1       2.342   4.894  20.557  0.00  0.00    +0.000 A 
ATOM      6  C   UNL     1       1.457   5.913  20.946  0.00  0.00    +0.000 A 
ATOM      7  C   UNL     1       1.493   7.166  20.346  0.00  0.00    +0.000 A 
ATOM      8  C   UNL     1       2.406   7.405  19.331  0.00  0.00    +0.000 A 
ATOM      9  C   UNL     1       3.299   6.397  18.935  0.00  0.00    +0.000 A 
ATOM     10  C   UNL     1       3.320   5.111  19.542  0.00  0.00    +0.000 A 
ENDROOT
BRANCH   2  11
ATOM     11  O   UNL     1       4.956   1.761  19.775  0.00  0.00    +0.000 OA
ATOM     12  H   UNL     1       5.368   1.789  18.888  0.00  0.00    +0.000 HD
ENDBRANCH   2  11
BRANCH   1  13
ATOM     13  C   UNL     1       5.424   4.245  18.291  0.00  0.00    +0.000 C 
BRANCH  13  20
ATOM     14  C   UNL     1       5.655   3.321  12.156  0.00  0.00    +0.000 C 
ATOM     15  C   UNL     1       6.086   3.861  13.488  0.00  0.00    +0.000 A 
ATOM     16  C   UNL     1       7.133   4.773  13.584  0.00  0.00    +0.000 A 
ATOM     17  C   UNL     1       7.495   5.211  14.844  0.00  0.00    +0.000 A 
ATOM     18  N   UNL     1       6.890   4.815  15.989  0.00  0.00    +0.000 NA
ATOM     19  C   UNL     1       5.863   3.944  15.901  0.00  0.00    +0.000 A 
ATOM     20  N   UNL     1       5.335   3.409  17.084  0.00  0.00    +0.000 N 
ATOM     21  C   UNL     1       5.462   3.432  14.668  0.00  0.00    +0.000 A 
ATOM     22  H   UNL     1       4.383   3.093  16.935  0.00  0.00    +0.000 HD
ENDBRANCH  13  20
ENDBRANCH   1  13
TORSDOF 3
ENDMDL
MODEL 3
REMARK VINA RESULT:      -7.6      1.426      2.734
REMARK  Name = 
REMARK  4 active torsions:
REMARK  status: ('A' for Active; 'I' for Inactive)
REMARK    1  A    between atoms: C_1  and  C_2
REMARK    2  A    between atoms: N_7  and  C_8
REMARK    3  A    between atoms: C_8  and  C_9
REMARK    4  A    between atoms: C_10  and  O_11
REMARK                            x       y       z     vdW  Elec       q    Type
REMARK                         _______ _______ _______ _____ _____    ______ ____
ROOT
ATOM      1  C   UNL     1       4.719   4.816  18.439  0.00  0.00    +0.000 A 
ATOM      2  C   UNL     1       4.449   3.815  19.395  0.00  0.00    +0.000 A 
ATOM      3  C   UNL     1       3.381   3.912  20.279  0.00  0.00    +0.000 A 
ATOM      4  C   UNL     1       2.566   5.033  20.263  0.00  0.00    +0.000 A 
ATOM      5  C   UNL     1       2.796   6.067  19.352  0.00  0.00    +0.000 A 
ATOM      6  C   UNL     1       1.967   7.199  19.409  0.00  0.00    +0.000 A 
ATOM      7  C   UNL     1       2.142   8.264  18.533  0.00  0.00    +0.000 A 
ATOM      8  C   UNL     1       3.142   8.197  17.575  0.00  0.00    +0.000 A 
ATOM      9  C   UNL     1       3.981   7.073  17.511  0.00  0.00    +0.000 A 
ATOM     10  C   UNL     1       3.859   5.975  18.405  0.00  0.00    +0.000 A 
ENDROOT
BRANCH   2  11
ATOM     11  O   UNL     1       5.212   2.694  19.572  0.00  0.00    +0.000 OA
ATOM     12  H   UNL     1       4.636   1.932  19.790  0.00  0.00    +0.000 HD
ENDBRANCH   2  11
BRANCH   1  13
ATOM     13  C   UNL     1       5.975   4.712  17.587  0.00  0.00    +0.000 C 
BRANCH  13  20
ATOM     14  C   UNL     1       5.731   2.888  11.658  0.00  0.00    +0.000 C 
ATOM     15  C   UNL     1       6.226   3.659  12.845  0.00  0.00    +0.000 A 
ATOM     16  C   UNL     1       7.179   4.663  12.699  0.00  0.00    +0.000 A 
ATOM     17  C   UNL     1       7.609   5.318  13.837  0.00  0.00    +0.000 A 
ATOM     18  N   UNL     1       7.156   5.050  15.085  0.00  0.00    +0.000 NA
ATOM     19  C   UNL     1       6.219   4.090  15.232  0.00  0.00    +0.000 A 
ATOM     20  N   UNL     1       5.861   3.697  16.529  0.00  0.00    +0.000 N 
ATOM     21  C   UNL     1       5.760   3.362  14.134  0.00  0.00    +0.000 A 
ATOM     22  H   UNL     1       4.936   3.281  16.528  0.00  0.00    +0.000 HD
ENDBRANCH  13  20
ENDBRANCH   1  13
TORSDOF 3
ENDMDL
MODEL 4
REMARK VINA RESULT:      -7.4      1.075      1.075
REMARK  Name = 
REMARK  4 active torsions:
REMARK  status: ('A' for Active; 'I' for Inactive)
REMARK    1  A    between atoms: C_1  and  C_2
REMARK    2  A    between atoms: N_7  and  C_8
REMARK    3  A    between atoms: C_8  and  C_9
REMARK    4  A    between atoms: C_10  and  O_11
REMARK                            x       y       z     vdW  Elec       q    Type
REMARK                         _______ _______ _______ _____ _____    ______ ____
ROOT
ATOM      1  C   UNL     1       4.880   5.125  17.650  0.00  0.00    +0.000 A 
ATOM      2  C   UNL     1       4.645   6.514  17.584  0.00  0.00    +0.000 A 
ATOM      3  C   UNL     1       3.392   7.059  17.836  0.00  0.00    +0.000 A 
ATOM      4  C   UNL     1       2.321   6.232  18.128  0.00  0.00    +0.000 A 
ATOM      5  C   UNL     1       2.488   4.846  18.189  0.00  0.00    +0.000 A 
ATOM      6  C   UNL     1       1.359   4.050  18.445  0.00  0.00    +0.000 A 
ATOM      7  C   UNL     1       1.454   2.666  18.517  0.00  0.00    +0.000 A 
ATOM      8  C   UNL     1       2.692   2.063  18.350  0.00  0.00    +0.000 A 
ATOM      9  C   UNL     1       3.827   2.845  18.088  0.00  0.00    +0.000 A 
ATOM     10  C   UNL     1       3.771   4.261  17.976  0.00  0.00    +0.000 A 
ENDROOT
BRANCH   2  11
ATOM     11  O   UNL     1       5.590   7.439  17.236  0.00  0.00    +0.000 OA
ATOM     12  H   UNL     1       5.852   7.311  16.302  0.00  0.00    +0.000 HD
ENDBRANCH   2  11
BRANCH   1  13
ATOM     13  C   UNL     1       6.241   4.580  17.240  0.00  0.00    +0.000 C 
BRANCH  13  20
ATOM     14  C   UNL     1       5.921   2.858  11.284  0.00  0.00    +0.000 C 
ATOM     15  C   UNL     1       6.408   3.633  12.472  0.00  0.00    +0.000 A 
ATOM     16  C   UNL     1       7.300   4.691  12.319  0.00  0.00    +0.000 A 
ATOM     17  C   UNL     1       7.727   5.348  13.457  0.00  0.00    +0.000 A 
ATOM     18  N   UNL     1       7.326   5.031  14.712  0.00  0.00    +0.000 NA
ATOM     19  C   UNL     1       6.449   4.017  14.866  0.00  0.00    +0.000 A 
ATOM     20  N   UNL     1       6.151   3.581  16.165  0.00  0.00    +0.000 N 
ATOM     21  C   UNL     1       5.998   3.286  13.768  0.00  0.00    +0.000 A 
ATOM     22  H   UNL     1       5.251   3.113  16.182  0.00  0.00    +0.000 HD
ENDBRANCH  13  20
ENDBRANCH   1  13
TORSDOF 3
ENDMDL
MODEL 5
REMARK VINA RESULT:      -7.3      3.782      6.915
REMARK  Name = 
REMARK  4 active torsions:
REMARK  status: ('A' for Active; 'I' for Inactive)
REMARK    1  A    between atoms: C_1  and  C_2
REMARK    2  A    between atoms: N_7  and  C_8
REMARK    3  A    between atoms: C_8  and  C_9
REMARK    4  A    between atoms: C_10  and  O_11
REMARK                            x       y       z     vdW  Elec       q    Type
REMARK                         _______ _______ _______ _____ _____    ______ ____
ROOT
ATOM      1  C   UNL     1       3.066   5.919  18.390  0.00  0.00    +0.000 A 
ATOM      2  C   UNL     1       4.140   6.044  17.485  0.00  0.00    +0.000 A 
ATOM      3  C   UNL     1       4.591   4.970  16.728  0.00  0.00    +0.000 A 
ATOM      4  C   UNL     1       4.007   3.722  16.875  0.00  0.00    +0.000 A 
ATOM      5  C   UNL     1       2.951   3.533  17.771  0.00  0.00    +0.000 A 
ATOM      6  C   UNL     1       2.424   2.238  17.913  0.00  0.00    +0.000 A 
ATOM      7  C   UNL     1       1.376   1.979  18.788  0.00  0.00    +0.000 A 
ATOM      8  C   UNL     1       0.829   3.024  19.518  0.00  0.00    +0.000 A 
ATOM      9  C   UNL     1       1.349   4.321  19.389  0.00  0.00    +0.000 A 
ATOM     10  C   UNL     1       2.440   4.626  18.530  0.00  0.00    +0.000 A 
ENDROOT
BRANCH   2  11
ATOM     11  O   UNL     1       4.856   7.194  17.292  0.00  0.00    +0.000 OA
ATOM     12  H   UNL     1       4.279   7.882  16.903  0.00  0.00    +0.000 HD
ENDBRANCH   2  11
BRANCH   1  13
ATOM     13  C   UNL     1       2.703   7.098  19.281  0.00  0.00    +0.000 C 
BRANCH  13  20
ATOM     14  C   UNL     1      -1.372  11.607  18.015  0.00  0.00    +0.000 C 
ATOM     15  C   UNL     1      -0.523  10.714  18.871  0.00  0.00    +0.000 A 
ATOM     16  C   UNL     1      -0.625  10.747  20.259  0.00  0.00    +0.000 A 
ATOM     17  C   UNL     1       0.204   9.916  20.989  0.00  0.00    +0.000 A 
ATOM     18  N   UNL     1       1.103   9.066  20.437  0.00  0.00    +0.000 NA
ATOM     19  C   UNL     1       1.195   9.017  19.092  0.00  0.00    +0.000 A 
ATOM     20  N   UNL     1       2.227   8.261  18.519  0.00  0.00    +0.000 N 
ATOM     21  C   UNL     1       0.416   9.850  18.290  0.00  0.00    +0.000 A 
ATOM     22  H   UNL     1       1.984   7.995  17.570  0.00  0.00    +0.000 HD
ENDBRANCH  13  20
ENDBRANCH   1  13
TORSDOF 3
ENDMDL
MODEL 6
REMARK VINA RESULT:      -7.1      1.864      3.134
REMARK  Name = 
REMARK  4 active torsions:
REMARK  status: ('A' for Active; 'I' for Inactive)
REMARK    1  A    between atoms: C_1  and  C_2
REMARK    2  A    between atoms: N_7  and  C_8
REMARK    3  A    between atoms: C_8  and  C_9
REMARK    4  A    between atoms: C_10  and  O_11
REMARK                            x       y       z     vdW  Elec       q    Type
REMARK                         _______ _______ _______ _____ _____    ______ ____
ROOT
ATOM      1  C   UNL     1       3.887   4.524  19.247  0.00  0.00    +0.000 A 
ATOM      2  C   UNL     1       3.217   3.839  20.282  0.00  0.00    +0.000 A 
ATOM      3  C   UNL     1       2.097   4.371  20.909  0.00  0.00    +0.000 A 
ATOM      4  C   UNL     1       1.629   5.624  20.550  0.00  0.00    +0.000 A 
ATOM      5  C   UNL     1       2.264   6.359  19.545  0.00  0.00    +0.000 A 
ATOM      6  C   UNL     1       1.775   7.643  19.250  0.00  0.00    +0.000 A 
ATOM      7  C   UNL     1       2.361   8.428  18.265  0.00  0.00    +0.000 A 
ATOM      8  C   UNL     1       3.435   7.925  17.547  0.00  0.00    +0.000 A 
ATOM      9  C   UNL     1       3.937   6.646  17.835  0.00  0.00    +0.000 A 
ATOM     10  C   UNL     1       3.390   5.821  18.855  0.00  0.00    +0.000 A 
ENDROOT
BRANCH   2  11
ATOM     11  O   UNL     1       3.611   2.631  20.787  0.00  0.00    +0.000 OA
ATOM     12  H   UNL     1       3.091   1.912  20.372  0.00  0.00    +0.000 HD
ENDBRANCH   2  11
BRANCH   1  13
ATOM     13  C   UNL     1       5.180   3.947  18.689  0.00  0.00    +0.000 C 
BRANCH  13  20
ATOM     14  C   UNL     1       5.353   3.692  12.488  0.00  0.00    +0.000 C 
ATOM     15  C   UNL     1       5.840   4.013  13.871  0.00  0.00    +0.000 A 
ATOM     16  C   UNL     1       7.004   4.751  14.065  0.00  0.00    +0.000 A 
ATOM     17  C   UNL     1       7.409   4.990  15.365  0.00  0.00    +0.000 A 
ATOM     18  N   UNL     1       6.739   4.557  16.460  0.00  0.00    +0.000 NA
ATOM     19  C   UNL     1       5.601   3.856  16.279  0.00  0.00    +0.000 A 
ATOM     20  N   UNL     1       4.989   3.272  17.396  0.00  0.00    +0.000 N 
ATOM     21  C   UNL     1       5.147   3.547  14.997  0.00  0.00    +0.000 A 
ATOM     22  H   UNL     1       4.003   3.113  17.216  0.00  0.00    +0.000 HD
ENDBRANCH  13  20
ENDBRANCH   1  13
TORSDOF 3
ENDMDL
MODEL 7
REMARK VINA RESULT:      -7.1      2.951      4.077
REMARK  Name = 
REMARK  4 active torsions:
REMARK  status: ('A' for Active; 'I' for Inactive)
REMARK    1  A    between atoms: C_1  and  C_2
REMARK    2  A    between atoms: N_7  and  C_8
REMARK    3  A    between atoms: C_8  and  C_9
REMARK    4  A    between atoms: C_10  and  O_11
REMARK                            x       y       z     vdW  Elec       q    Type
REMARK                         _______ _______ _______ _____ _____    ______ ____
ROOT
ATOM      1  C   UNL     1       3.382   5.517  18.350  0.00  0.00    +0.000 A 
ATOM      2  C   UNL     1       2.757   6.771  18.509  0.00  0.00    +0.000 A 
ATOM      3  C   UNL     1       1.989   7.072  19.627  0.00  0.00    +0.000 A 
ATOM      4  C   UNL     1       1.787   6.117  20.609  0.00  0.00    +0.000 A 
ATOM      5  C   UNL     1       2.364   4.849  20.497  0.00  0.00    +0.000 A 
ATOM      6  C   UNL     1       2.091   3.903  21.500  0.00  0.00    +0.000 A 
ATOM      7  C   UNL     1       2.631   2.624  21.449  0.00  0.00    +0.000 A 
ATOM      8  C   UNL     1       3.469   2.283  20.399  0.00  0.00    +0.000 A 
ATOM      9  C   UNL     1       3.746   3.216  19.387  0.00  0.00    +0.000 A 
ATOM     10  C   UNL     1       3.192   4.526  19.382  0.00  0.00    +0.000 A 
ENDROOT
BRANCH   2  11
ATOM     11  O   UNL     1       2.810   7.780  17.587  0.00  0.00    +0.000 OA
ATOM     12  H   UNL     1       1.903   8.042  17.329  0.00  0.00    +0.000 HD
ENDBRANCH   2  11
BRANCH   1  13
ATOM     13  C   UNL     1       4.103   5.205  17.047  0.00  0.00    +0.000 C 
BRANCH  13  20
ATOM     14  C   UNL     1       8.579   9.395  18.019  0.00  0.00    +0.000 C 
ATOM     15  C   UNL     1       7.892   8.064  18.105  0.00  0.00    +0.000 A 
ATOM     16  C   UNL     1       8.415   7.039  18.889  0.00  0.00    +0.000 A 
ATOM     17  C   UNL     1       7.745   5.831  18.904  0.00  0.00    +0.000 A 
ATOM     18  N   UNL     1       6.607   5.584  18.211  0.00  0.00    +0.000 NA
ATOM     19  C   UNL     1       6.086   6.579  17.464  0.00  0.00    +0.000 A 
ATOM     20  N   UNL     1       5.003   6.288  16.623  0.00  0.00    +0.000 N 
ATOM     21  C   UNL     1       6.723   7.816  17.372  0.00  0.00    +0.000 A 
ATOM     22  H   UNL     1       4.478   7.131  16.417  0.00  0.00    +0.000 HD
ENDBRANCH  13  20
ENDBRANCH   1  13
TORSDOF 3
ENDMDL
MODEL 8
REMARK VINA RESULT:      -7.0      3.772      7.590
REMARK  Name = 
REMARK  4 active torsions:
REMARK  status: ('A' for Active; 'I' for Inactive)
REMARK    1  A    between atoms: C_1  and  C_2
REMARK    2  A    between atoms: N_7  and  C_8
REMARK    3  A    between atoms: C_8  and  C_9
REMARK    4  A    between atoms: C_10  and  O_11
REMARK                            x       y       z     vdW  Elec       q    Type
REMARK                         _______ _______ _______ _____ _____    ______ ____
ROOT
ATOM      1  C   UNL     1       3.476   5.802  18.064  0.00  0.00    +0.000 A 
ATOM      2  C   UNL     1       2.556   4.733  18.039  0.00  0.00    +0.000 A 
ATOM      3  C   UNL     1       2.874   3.504  17.475  0.00  0.00    +0.000 A 
ATOM      4  C   UNL     1       4.111   3.311  16.882  0.00  0.00    +0.000 A 
ATOM      5  C   UNL     1       5.056   4.339  16.858  0.00  0.00    +0.000 A 
ATOM      6  C   UNL     1       6.278   4.104  16.205  0.00  0.00    +0.000 A 
ATOM      7  C   UNL     1       7.261   5.084  16.143  0.00  0.00    +0.000 A 
ATOM      8  C   UNL     1       7.037   6.309  16.753  0.00  0.00    +0.000 A 
ATOM      9  C   UNL     1       5.819   6.559  17.404  0.00  0.00    +0.000 A 
ATOM     10  C   UNL     1       4.774   5.598  17.466  0.00  0.00    +0.000 A 
ENDROOT
BRANCH   2  11
ATOM     11  O   UNL     1       1.278   4.806  18.520  0.00  0.00    +0.000 OA
ATOM     12  H   UNL     1       1.285   4.722  19.496  0.00  0.00    +0.000 HD
ENDBRANCH   2  11
BRANCH   1  13
ATOM     13  C   UNL     1       3.024   7.161  18.581  0.00  0.00    +0.000 C 
BRANCH  13  20
ATOM     14  C   UNL     1      -0.050   9.591  23.396  0.00  0.00    +0.000 C 
ATOM     15  C   UNL     1       0.354   9.418  21.962  0.00  0.00    +0.000 A 
ATOM     16  C   UNL     1      -0.113  10.285  20.978  0.00  0.00    +0.000 A 
ATOM     17  C   UNL     1       0.278  10.053  19.673  0.00  0.00    +0.000 A 
ATOM     18  N   UNL     1       1.093   9.040  19.292  0.00  0.00    +0.000 NA
ATOM     19  C   UNL     1       1.563   8.206  20.244  0.00  0.00    +0.000 A 
ATOM     20  N   UNL     1       2.275   7.067  19.843  0.00  0.00    +0.000 N 
ATOM     21  C   UNL     1       1.186   8.356  21.577  0.00  0.00    +0.000 A 
ATOM     22  H   UNL     1       2.875   6.744  20.594  0.00  0.00    +0.000 HD
ENDBRANCH  13  20
ENDBRANCH   1  13
TORSDOF 3
ENDMDL
MODEL 9
REMARK VINA RESULT:      -7.0      2.931      4.484
REMARK  Name = 
REMARK  4 active torsions:
REMARK  status: ('A' for Active; 'I' for Inactive)
REMARK    1  A    between atoms: C_1  and  C_2
REMARK    2  A    between atoms: N_7  and  C_8
REMARK    3  A    between atoms: C_8  and  C_9
REMARK    4  A    between atoms: C_10  and  O_11
REMARK                            x       y       z     vdW  Elec       q    Type
REMARK                         _______ _______ _______ _____ _____    ______ ____
ROOT
ATOM      1  C   UNL     1       3.391   4.310  18.235  0.00  0.00    +0.000 A 
ATOM      2  C   UNL     1       3.429   3.256  19.172  0.00  0.00    +0.000 A 
ATOM      3  C   UNL     1       2.925   3.399  20.458  0.00  0.00    +0.000 A 
ATOM      4  C   UNL     1       2.398   4.613  20.867  0.00  0.00    +0.000 A 
ATOM      5  C   UNL     1       2.352   5.699  19.990  0.00  0.00    +0.000 A 
ATOM      6  C   UNL     1       1.847   6.920  20.469  0.00  0.00    +0.000 A 
ATOM      7  C   UNL     1       1.775   8.041  19.651  0.00  0.00    +0.000 A 
ATOM      8  C   UNL     1       2.191   7.944  18.332  0.00  0.00    +0.000 A 
ATOM      9  C   UNL     1       2.702   6.732  17.841  0.00  0.00    +0.000 A 
ATOM     10  C   UNL     1       2.823   5.570  18.650  0.00  0.00    +0.000 A 
ENDROOT
BRANCH   2  11
ATOM     11  O   UNL     1       3.985   2.030  18.929  0.00  0.00    +0.000 OA
ATOM     12  H   UNL     1       3.291   1.401  18.644  0.00  0.00    +0.000 HD
ENDBRANCH   2  11
BRANCH   1  13
ATOM     13  C   UNL     1       4.073   4.131  16.886  0.00  0.00    +0.000 C 
BRANCH  13  20
ATOM     14  C   UNL     1       8.043   8.804  17.856  0.00  0.00    +0.000 C 
ATOM     15  C   UNL     1       7.522   7.399  17.925  0.00  0.00    +0.000 A 
ATOM     16  C   UNL     1       8.185   6.426  18.668  0.00  0.00    +0.000 A 
ATOM     17  C   UNL     1       7.664   5.146  18.668  0.00  0.00    +0.000 A 
ATOM     18  N   UNL     1       6.545   4.781  17.998  0.00  0.00    +0.000 NA
ATOM     19  C   UNL     1       5.889   5.723  17.289  0.00  0.00    +0.000 A 
ATOM     20  N   UNL     1       4.825   5.324  16.468  0.00  0.00    +0.000 N 
ATOM     21  C   UNL     1       6.371   7.029  17.214  0.00  0.00    +0.000 A 
ATOM     22  H   UNL     1       4.198   6.103  16.298  0.00  0.00    +0.000 HD
ENDBRANCH  13  20
ENDBRANCH   1  13
TORSDOF 3
ENDMDL
