MODEL 1
REMARK VINA RESULT:      -8.6      0.000      0.000
REMARK  Name = 
REMARK  6 active torsions:
REMARK  status: ('A' for Active; 'I' for Inactive)
REMARK    1  A    between atoms: C_1  and  C_2
REMARK    2  A    between atoms: C_6  and  C_8
REMARK    3  A    between atoms: C_13  and  N_14
REMARK    4  A    between atoms: N_14  and  C_15
REMARK    5  A    between atoms: C_15  and  C_16
REMARK    6  A    between atoms: C_16  and  O_17
REMARK                            x       y       z     vdW  Elec       q    Type
REMARK                         _______ _______ _______ _____ _____    ______ ____
ROOT
ATOM      1  C   UNL     1       2.494   6.851  18.426  0.00  0.00    +0.000 A 
ATOM      2  C   UNL     1       2.534   7.881  17.475  0.00  0.00    +0.000 A 
ATOM      3  C   UNL     1       2.190   9.174  17.815  0.00  0.00    +0.000 A 
ATOM      4  C   UNL     1       1.630   9.431  19.058  0.00  0.00    +0.000 A 
ATOM      5  C   UNL     1       1.479   8.410  20.009  0.00  0.00    +0.000 A 
ATOM      6  C   UNL     1       1.994   7.089  19.740  0.00  0.00    +0.000 A 
ATOM      7  C   UNL     1       0.732   8.751  21.269  0.00  0.00    +0.000 C 
ATOM      8  O   UNL     1       0.485   7.895  22.110  0.00  0.00    +0.000 OA
ATOM      9  C   UNL     1       0.210  10.137  21.467  0.00  0.00    +0.000 A 
ATOM     10  C   UNL     1      -0.532  10.466  22.607  0.00  0.00    +0.000 A 
ATOM     11  C   UNL     1      -1.058  11.762  22.769  0.00  0.00    +0.000 A 
ATOM     12  C   UNL     1      -0.847  12.737  21.788  0.00  0.00    +0.000 A 
ATOM     13  C   UNL     1      -0.099  12.413  20.663  0.00  0.00    +0.000 A 
ATOM     14  C   UNL     1       0.424  11.121  20.511  0.00  0.00    +0.000 A 
ATOM     15  C   UNL     1       1.190  10.816  19.308  0.00  0.00    +0.000 C 
ATOM     16  O   UNL     1       1.460  11.698  18.507  0.00  0.00    +0.000 OA
ENDROOT
BRANCH   1  22
ATOM     17  C   UNL     1       7.048   4.973  14.601  0.00  0.00    +0.000 C 
ATOM     18  C   UNL     1       6.456   4.811  16.002  0.00  0.00    +0.000 C 
ATOM     19  C   UNL     1       5.252   3.851  15.972  0.00  0.00    +0.000 C 
ATOM     20  C   UNL     1       4.535   3.786  17.321  0.00  0.00    +0.000 C 
ATOM     21  N   UNL     1       4.210   5.128  17.801  0.00  0.00    +0.000 N 
ATOM     22  C   UNL     1       2.862   5.505  17.895  0.00  0.00    +0.000 C 
ATOM     23  O   UNL     1       1.942   4.760  17.563  0.00  0.00    +0.000 OA
ATOM     24  C   UNL     1       5.386   5.985  17.960  0.00  0.00    +0.000 C 
ATOM     25  C   UNL     1       6.053   6.174  16.593  0.00  0.00    +0.000 C 
ENDBRANCH   1  22
BRANCH   6  26
ATOM     26  N   UNL     1       2.134   6.205  20.815  0.00  0.00    +0.000 N 
ATOM     27  H   UNL     1       2.461   6.644  21.687  0.00  0.00    +0.000 HD
BRANCH  26  28
ATOM     28  C   UNL     1       1.502   4.896  20.969  0.00  0.00    +0.000 C 
BRANCH  28  29
ATOM     29  C   UNL     1       2.549   3.802  21.223  0.00  0.00    +0.000 C 
BRANCH  29  30
ATOM     30  O   UNL     1       2.079   2.823  22.151  0.00  0.00    +0.000 OA
ATOM     31  H   UNL     1       2.826   2.613  22.739  0.00  0.00    +0.000 HD
ENDBRANCH  29  30
ENDBRANCH  28  29
ENDBRANCH  26  28
ENDBRANCH   6  26
TORSDOF 5
ENDMDL
MODEL 2
REMARK VINA RESULT:      -7.7      2.424      8.660
REMARK  Name = 
REMARK  6 active torsions:
REMARK  status: ('A' for Active; 'I' for Inactive)
REMARK    1  A    between atoms: C_1  and  C_2
REMARK    2  A    between atoms: C_6  and  C_8
REMARK    3  A    between atoms: C_13  and  N_14
REMARK    4  A    between atoms: N_14  and  C_15
REMARK    5  A    between atoms: C_15  and  C_16
REMARK    6  A    between atoms: C_16  and  O_17
REMARK                            x       y       z     vdW  Elec       q    Type
REMARK                         _______ _______ _______ _____ _____    ______ ____
ROOT
ATOM      1  C   UNL     1      -0.199  10.104  19.987  0.00  0.00    +0.000 A 
ATOM      2  C   UNL     1      -0.416   9.140  20.982  0.00  0.00    +0.000 A 
ATOM      3  C   UNL     1       0.426   8.053  21.113  0.00  0.00    +0.000 A 
ATOM      4  C   UNL     1       1.392   7.814  20.145  0.00  0.00    +0.000 A 
ATOM      5  C   UNL     1       1.581   8.702  19.075  0.00  0.00    +0.000 A 
ATOM      6  C   UNL     1       0.831   9.933  19.017  0.00  0.00    +0.000 A 
ATOM      7  C   UNL     1       2.549   8.286  18.002  0.00  0.00    +0.000 C 
ATOM      8  O   UNL     1       2.707   8.966  16.995  0.00  0.00    +0.000 OA
ATOM      9  C   UNL     1       3.274   6.985  18.122  0.00  0.00    +0.000 A 
ATOM     10  C   UNL     1       4.140   6.553  17.112  0.00  0.00    +0.000 A 
ATOM     11  C   UNL     1       4.789   5.307  17.211  0.00  0.00    +0.000 A 
ATOM     12  C   UNL     1       4.570   4.483  18.320  0.00  0.00    +0.000 A 
ATOM     13  C   UNL     1       3.719   4.919  19.329  0.00  0.00    +0.000 A 
ATOM     14  C   UNL     1       3.080   6.163  19.224  0.00  0.00    +0.000 A 
ATOM     15  C   UNL     1       2.182   6.578  20.296  0.00  0.00    +0.000 C 
ATOM     16  O   UNL     1       2.076   5.904  21.310  0.00  0.00    +0.000 OA
ENDROOT
BRANCH   1  22
ATOM     17  C   UNL     1      -4.064  12.344  24.340  0.00  0.00    +0.000 C 
ATOM     18  C   UNL     1      -2.917  12.701  23.394  0.00  0.00    +0.000 C 
ATOM     19  C   UNL     1      -3.449  12.956  21.971  0.00  0.00    +0.000 C 
ATOM     20  C   UNL     1      -2.318  13.160  20.962  0.00  0.00    +0.000 C 
ATOM     21  N   UNL     1      -1.346  12.071  21.045  0.00  0.00    +0.000 N 
ATOM     22  C   UNL     1      -1.215  11.198  19.955  0.00  0.00    +0.000 C 
ATOM     23  O   UNL     1      -1.906  11.294  18.943  0.00  0.00    +0.000 OA
ATOM     24  C   UNL     1      -0.743  11.935  22.372  0.00  0.00    +0.000 C 
ATOM     25  C   UNL     1      -1.842  11.600  23.386  0.00  0.00    +0.000 C 
ENDBRANCH   1  22
BRANCH   6  26
ATOM     26  N   UNL     1       1.276  10.935  18.147  0.00  0.00    +0.000 N 
ATOM     27  H   UNL     1       0.737  11.009  17.273  0.00  0.00    +0.000 HD
BRANCH  26  28
ATOM     28  C   UNL     1       2.087  12.103  18.487  0.00  0.00    +0.000 C 
BRANCH  28  29
ATOM     29  C   UNL     1       1.235  13.381  18.505  0.00  0.00    +0.000 C 
BRANCH  29  30
ATOM     30  O   UNL     1       0.029  13.225  17.757  0.00  0.00    +0.000 OA
ATOM     31  H   UNL     1      -0.427  12.444  18.117  0.00  0.00    +0.000 HD
ENDBRANCH  29  30
ENDBRANCH  28  29
ENDBRANCH  26  28
ENDBRANCH   6  26
TORSDOF 5
ENDMDL
MODEL 3
REMARK VINA RESULT:      -7.3      4.190     10.012
REMARK  Name = 
REMARK  6 active torsions:
REMARK  status: ('A' for Active; 'I' for Inactive)
REMARK    1  A    between atoms: C_1  and  C_2
REMARK    2  A    between atoms: C_6  and  C_8
REMARK    3  A    between atoms: C_13  and  N_14
REMARK    4  A    between atoms: N_14  and  C_15
REMARK    5  A    between atoms: C_15  and  C_16
REMARK    6  A    between atoms: C_16  and  O_17
REMARK                            x       y       z     vdW  Elec       q    Type
REMARK                         _______ _______ _______ _____ _____    ______ ____
ROOT
ATOM      1  C   UNL     1      -2.397  12.883  22.096  0.00  0.00    +0.000 A 
ATOM      2  C   UNL     1      -2.183  11.955  23.124  0.00  0.00    +0.000 A 
ATOM      3  C   UNL     1      -1.225  10.968  23.002  0.00  0.00    +0.000 A 
ATOM      4  C   UNL     1      -0.588  10.779  21.784  0.00  0.00    +0.000 A 
ATOM      5  C   UNL     1      -0.843  11.625  20.694  0.00  0.00    +0.000 A 
ATOM      6  C   UNL     1      -1.707  12.769  20.854  0.00  0.00    +0.000 A 
ATOM      7  C   UNL     1      -0.216  11.256  19.377  0.00  0.00    +0.000 C 
ATOM      8  O   UNL     1      -0.457  11.896  18.360  0.00  0.00    +0.000 OA
ATOM      9  C   UNL     1       0.652  10.044  19.286  0.00  0.00    +0.000 A 
ATOM     10  C   UNL     1       1.204   9.651  18.061  0.00  0.00    +0.000 A 
ATOM     11  C   UNL     1       1.988   8.483  17.972  0.00  0.00    +0.000 A 
ATOM     12  C   UNL     1       2.219   7.700  19.107  0.00  0.00    +0.000 A 
ATOM     13  C   UNL     1       1.680   8.098  20.325  0.00  0.00    +0.000 A 
ATOM     14  C   UNL     1       0.905   9.263  20.406  0.00  0.00    +0.000 A 
ATOM     15  C   UNL     1       0.344   9.639  21.699  0.00  0.00    +0.000 C 
ATOM     16  O   UNL     1       0.635   9.010  22.705  0.00  0.00    +0.000 OA
ENDROOT
BRANCH   1  22
ATOM     17  C   UNL     1      -7.139  14.928  18.599  0.00  0.00    +0.000 C 
ATOM     18  C   UNL     1      -6.772  14.218  19.902  0.00  0.00    +0.000 C 
ATOM     19  C   UNL     1      -6.376  15.242  20.982  0.00  0.00    +0.000 C 
ATOM     20  C   UNL     1      -5.851  14.565  22.249  0.00  0.00    +0.000 C 
ATOM     21  N   UNL     1      -4.796  13.606  21.927  0.00  0.00    +0.000 N 
ATOM     22  C   UNL     1      -3.489  13.865  22.367  0.00  0.00    +0.000 C 
ATOM     23  O   UNL     1      -3.190  14.882  22.990  0.00  0.00    +0.000 OA
ATOM     24  C   UNL     1      -5.233  12.554  21.007  0.00  0.00    +0.000 C 
ATOM     25  C   UNL     1      -5.644  13.196  19.677  0.00  0.00    +0.000 C 
ENDBRANCH   1  22
BRANCH   6  26
ATOM     26  N   UNL     1      -1.671  13.765  19.872  0.00  0.00    +0.000 N 
ATOM     27  H   UNL     1      -2.411  13.687  19.160  0.00  0.00    +0.000 HD
BRANCH  26  28
ATOM     28  C   UNL     1      -1.020  15.070  19.962  0.00  0.00    +0.000 C 
BRANCH  28  29
ATOM     29  C   UNL     1      -0.079  15.303  18.771  0.00  0.00    +0.000 C 
BRANCH  29  30
ATOM     30  O   UNL     1       1.046  14.423  18.804  0.00  0.00    +0.000 OA
ATOM     31  H   UNL     1       1.399  14.452  19.711  0.00  0.00    +0.000 HD
ENDBRANCH  29  30
ENDBRANCH  28  29
ENDBRANCH  26  28
ENDBRANCH   6  26
TORSDOF 5
ENDMDL
MODEL 4
REMARK VINA RESULT:      -7.3      2.661      4.901
REMARK  Name = 
REMARK  6 active torsions:
REMARK  status: ('A' for Active; 'I' for Inactive)
REMARK    1  A    between atoms: C_1  and  C_2
REMARK    2  A    between atoms: C_6  and  C_8
REMARK    3  A    between atoms: C_13  and  N_14
REMARK    4  A    between atoms: N_14  and  C_15
REMARK    5  A    between atoms: C_15  and  C_16
REMARK    6  A    between atoms: C_16  and  O_17
REMARK                            x       y       z     vdW  Elec       q    Type
REMARK                         _______ _______ _______ _____ _____    ______ ____
ROOT
ATOM      1  C   UNL     1       1.148   9.401  19.189  0.00  0.00    +0.000 A 
ATOM      2  C   UNL     1       1.515   9.060  20.498  0.00  0.00    +0.000 A 
ATOM      3  C   UNL     1       0.751   9.458  21.577  0.00  0.00    +0.000 A 
ATOM      4  C   UNL     1      -0.293  10.352  21.385  0.00  0.00    +0.000 A 
ATOM      5  C   UNL     1      -0.637  10.798  20.099  0.00  0.00    +0.000 A 
ATOM      6  C   UNL     1       0.036  10.257  18.943  0.00  0.00    +0.000 A 
ATOM      7  C   UNL     1      -1.684  11.873  20.004  0.00  0.00    +0.000 C 
ATOM      8  O   UNL     1      -1.980  12.375  18.925  0.00  0.00    +0.000 OA
ATOM      9  C   UNL     1      -2.322  12.398  21.249  0.00  0.00    +0.000 A 
ATOM     10  C   UNL     1      -3.261  13.433  21.190  0.00  0.00    +0.000 A 
ATOM     11  C   UNL     1      -3.828  13.953  22.370  0.00  0.00    +0.000 A 
ATOM     12  C   UNL     1      -3.454  13.441  23.618  0.00  0.00    +0.000 A 
ATOM     13  C   UNL     1      -2.530  12.405  23.674  0.00  0.00    +0.000 A 
ATOM     14  C   UNL     1      -1.974  11.891  22.494  0.00  0.00    +0.000 A 
ATOM     15  C   UNL     1      -0.996  10.813  22.596  0.00  0.00    +0.000 C 
ATOM     16  O   UNL     1      -0.752  10.300  23.678  0.00  0.00    +0.000 OA
ENDROOT
BRANCH   1  22
ATOM     17  C   UNL     1       5.779   5.225  19.320  0.00  0.00    +0.000 C 
ATOM     18  C   UNL     1       4.444   5.580  18.665  0.00  0.00    +0.000 C 
ATOM     19  C   UNL     1       4.649   6.626  17.553  0.00  0.00    +0.000 C 
ATOM     20  C   UNL     1       3.320   7.124  16.981  0.00  0.00    +0.000 C 
ATOM     21  N   UNL     1       2.427   7.564  18.051  0.00  0.00    +0.000 N 
ATOM     22  C   UNL     1       2.095   8.924  18.138  0.00  0.00    +0.000 C 
ATOM     23  O   UNL     1       2.548   9.766  17.365  0.00  0.00    +0.000 OA
ATOM     24  C   UNL     1       2.129   6.512  19.024  0.00  0.00    +0.000 C 
ATOM     25  C   UNL     1       3.431   6.084  19.709  0.00  0.00    +0.000 C 
ENDBRANCH   1  22
BRANCH   6  26
ATOM     26  N   UNL     1      -0.548  10.459  17.687  0.00  0.00    +0.000 N 
ATOM     27  H   UNL     1      -0.048  11.132  17.089  0.00  0.00    +0.000 HD
BRANCH  26  28
ATOM     28  C   UNL     1      -1.478   9.571  16.993  0.00  0.00    +0.000 C 
BRANCH  28  29
ATOM     29  C   UNL     1      -2.636  10.361  16.366  0.00  0.00    +0.000 C 
BRANCH  29  30
ATOM     30  O   UNL     1      -2.283  11.727  16.139  0.00  0.00    +0.000 OA
ATOM     31  H   UNL     1      -3.062  12.156  15.743  0.00  0.00    +0.000 HD
ENDBRANCH  29  30
ENDBRANCH  28  29
ENDBRANCH  26  28
ENDBRANCH   6  26
TORSDOF 5
ENDMDL
MODEL 5
REMARK VINA RESULT:      -7.0      2.791      9.008
REMARK  Name = 
REMARK  6 active torsions:
REMARK  status: ('A' for Active; 'I' for Inactive)
REMARK    1  A    between atoms: C_1  and  C_2
REMARK    2  A    between atoms: C_6  and  C_8
REMARK    3  A    between atoms: C_13  and  N_14
REMARK    4  A    between atoms: N_14  and  C_15
REMARK    5  A    between atoms: C_15  and  C_16
REMARK    6  A    between atoms: C_16  and  O_17
REMARK                            x       y       z     vdW  Elec       q    Type
REMARK                         _______ _______ _______ _____ _____    ______ ____
ROOT
ATOM      1  C   UNL     1      -0.672  11.243  20.219  0.00  0.00    +0.000 A 
ATOM      2  C   UNL     1      -0.914  10.303  21.231  0.00  0.00    +0.000 A 
ATOM      3  C   UNL     1      -0.118   9.182  21.364  0.00  0.00    +0.000 A 
ATOM      4  C   UNL     1       0.821   8.888  20.385  0.00  0.00    +0.000 A 
ATOM      5  C   UNL     1       1.031   9.752  19.300  0.00  0.00    +0.000 A 
ATOM      6  C   UNL     1       0.334  11.014  19.235  0.00  0.00    +0.000 A 
ATOM      7  C   UNL     1       1.962   9.280  18.217  0.00  0.00    +0.000 C 
ATOM      8  O   UNL     1       2.133   9.938  17.198  0.00  0.00    +0.000 OA
ATOM      9  C   UNL     1       2.631   7.950  18.346  0.00  0.00    +0.000 A 
ATOM     10  C   UNL     1       3.462   7.467  17.328  0.00  0.00    +0.000 A 
ATOM     11  C   UNL     1       4.056   6.194  17.435  0.00  0.00    +0.000 A 
ATOM     12  C   UNL     1       3.820   5.396  18.559  0.00  0.00    +0.000 A 
ATOM     13  C   UNL     1       3.005   5.883  19.575  0.00  0.00    +0.000 A 
ATOM     14  C   UNL     1       2.420   7.152  19.462  0.00  0.00    +0.000 A 
ATOM     15  C   UNL     1       1.558   7.621  20.542  0.00  0.00    +0.000 C 
ATOM     16  O   UNL     1       1.440   6.966  21.566  0.00  0.00    +0.000 OA
ENDROOT
BRANCH   1  22
ATOM     17  C   UNL     1      -3.006  14.870  24.725  0.00  0.00    +0.000 C 
ATOM     18  C   UNL     1      -2.199  14.865  23.426  0.00  0.00    +0.000 C 
ATOM     19  C   UNL     1      -3.138  14.793  22.206  0.00  0.00    +0.000 C 
ATOM     20  C   UNL     1      -2.366  14.627  20.897  0.00  0.00    +0.000 C 
ATOM     21  N   UNL     1      -1.425  13.512  20.987  0.00  0.00    +0.000 N 
ATOM     22  C   UNL     1      -1.640  12.379  20.187  0.00  0.00    +0.000 C 
ATOM     23  O   UNL     1      -2.606  12.275  19.434  0.00  0.00    +0.000 OA
ATOM     24  C   UNL     1      -0.447  13.667  22.065  0.00  0.00    +0.000 C 
ATOM     25  C   UNL     1      -1.187  13.706  23.406  0.00  0.00    +0.000 C 
ENDBRANCH   1  22
BRANCH   6  26
ATOM     26  N   UNL     1       0.808  11.983  18.344  0.00  0.00    +0.000 N 
ATOM     27  H   UNL     1       0.396  11.932  17.402  0.00  0.00    +0.000 HD
BRANCH  26  28
ATOM     28  C   UNL     1       1.453  13.251  18.680  0.00  0.00    +0.000 C 
BRANCH  28  29
ATOM     29  C   UNL     1       2.928  13.252  18.253  0.00  0.00    +0.000 C 
BRANCH  29  30
ATOM     30  O   UNL     1       3.252  14.400  17.466  0.00  0.00    +0.000 OA
ATOM     31  H   UNL     1       3.253  15.163  18.071  0.00  0.00    +0.000 HD
ENDBRANCH  29  30
ENDBRANCH  28  29
ENDBRANCH  26  28
ENDBRANCH   6  26
TORSDOF 5
ENDMDL
MODEL 6
REMARK VINA RESULT:      -6.9      6.936      9.232
REMARK  Name = 
REMARK  6 active torsions:
REMARK  status: ('A' for Active; 'I' for Inactive)
REMARK    1  A    between atoms: C_1  and  C_2
REMARK    2  A    between atoms: C_6  and  C_8
REMARK    3  A    between atoms: C_13  and  N_14
REMARK    4  A    between atoms: N_14  and  C_15
REMARK    5  A    between atoms: C_15  and  C_16
REMARK    6  A    between atoms: C_16  and  O_17
REMARK                            x       y       z     vdW  Elec       q    Type
REMARK                         _______ _______ _______ _____ _____    ______ ____
ROOT
ATOM      1  C   UNL     1      -0.594  13.457  20.914  0.00  0.00    +0.000 A 
ATOM      2  C   UNL     1      -0.520  13.640  22.302  0.00  0.00    +0.000 A 
ATOM      3  C   UNL     1      -1.601  13.361  23.114  0.00  0.00    +0.000 A 
ATOM      4  C   UNL     1      -2.831  13.067  22.541  0.00  0.00    +0.000 A 
ATOM      5  C   UNL     1      -2.976  12.969  21.149  0.00  0.00    +0.000 A 
ATOM      6  C   UNL     1      -1.821  13.082  20.292  0.00  0.00    +0.000 A 
ATOM      7  C   UNL     1      -4.371  12.790  20.616  0.00  0.00    +0.000 C 
ATOM      8  O   UNL     1      -4.591  12.780  19.411  0.00  0.00    +0.000 OA
ATOM      9  C   UNL     1      -5.520  12.702  21.567  0.00  0.00    +0.000 A 
ATOM     10  C   UNL     1      -6.832  12.587  21.094  0.00  0.00    +0.000 A 
ATOM     11  C   UNL     1      -7.916  12.546  21.993  0.00  0.00    +0.000 A 
ATOM     12  C   UNL     1      -7.692  12.626  23.371  0.00  0.00    +0.000 A 
ATOM     13  C   UNL     1      -6.388  12.727  23.840  0.00  0.00    +0.000 A 
ATOM     14  C   UNL     1      -5.315  12.763  22.938  0.00  0.00    +0.000 A 
ATOM     15  C   UNL     1      -3.962  12.887  23.470  0.00  0.00    +0.000 C 
ATOM     16  O   UNL     1      -3.765  12.849  24.675  0.00  0.00    +0.000 OA
ENDROOT
BRANCH   1  22
ATOM     17  C   UNL     1       0.706  18.204  17.084  0.00  0.00    +0.000 C 
ATOM     18  C   UNL     1       1.096  17.524  18.396  0.00  0.00    +0.000 C 
ATOM     19  C   UNL     1       2.001  16.307  18.126  0.00  0.00    +0.000 C 
ATOM     20  C   UNL     1       2.283  15.507  19.399  0.00  0.00    +0.000 C 
ATOM     21  N   UNL     1       1.039  15.178  20.091  0.00  0.00    +0.000 N 
ATOM     22  C   UNL     1       0.646  13.833  20.174  0.00  0.00    +0.000 C 
ATOM     23  O   UNL     1       1.294  12.923  19.661  0.00  0.00    +0.000 OA
ATOM     24  C   UNL     1       0.257  16.357  20.468  0.00  0.00    +0.000 C 
ATOM     25  C   UNL     1      -0.151  17.110  19.198  0.00  0.00    +0.000 C 
ENDBRANCH   1  22
BRANCH   6  26
ATOM     26  N   UNL     1      -1.939  12.647  18.967  0.00  0.00    +0.000 N 
ATOM     27  H   UNL     1      -1.984  13.407  18.273  0.00  0.00    +0.000 HD
BRANCH  26  28
ATOM     28  C   UNL     1      -1.593  11.331  18.436  0.00  0.00    +0.000 C 
BRANCH  28  29
ATOM     29  C   UNL     1      -2.384  11.025  17.156  0.00  0.00    +0.000 C 
BRANCH  29  30
ATOM     30  O   UNL     1      -3.493  11.911  16.993  0.00  0.00    +0.000 OA
ATOM     31  H   UNL     1      -4.114  11.475  16.384  0.00  0.00    +0.000 HD
ENDBRANCH  29  30
ENDBRANCH  28  29
ENDBRANCH  26  28
ENDBRANCH   6  26
TORSDOF 5
ENDMDL
MODEL 7
REMARK VINA RESULT:      -6.7      6.460      8.709
REMARK  Name = 
REMARK  6 active torsions:
REMARK  status: ('A' for Active; 'I' for Inactive)
REMARK    1  A    between atoms: C_1  and  C_2
REMARK    2  A    between atoms: C_6  and  C_8
REMARK    3  A    between atoms: C_13  and  N_14
REMARK    4  A    between atoms: N_14  and  C_15
REMARK    5  A    between atoms: C_15  and  C_16
REMARK    6  A    between atoms: C_16  and  O_17
REMARK                            x       y       z     vdW  Elec       q    Type
REMARK                         _______ _______ _______ _____ _____    ______ ____
ROOT
ATOM      1  C   UNL     1      -0.921  12.287  20.751  0.00  0.00    +0.000 A 
ATOM      2  C   UNL     1      -0.752  12.037  22.120  0.00  0.00    +0.000 A 
ATOM      3  C   UNL     1      -1.836  12.009  22.975  0.00  0.00    +0.000 A 
ATOM      4  C   UNL     1      -3.083  12.406  22.514  0.00  0.00    +0.000 A 
ATOM      5  C   UNL     1      -3.280  12.760  21.171  0.00  0.00    +0.000 A 
ATOM      6  C   UNL     1      -2.201  12.626  20.222  0.00  0.00    +0.000 A 
ATOM      7  C   UNL     1      -4.628  13.314  20.797  0.00  0.00    +0.000 C 
ATOM      8  O   UNL     1      -4.852  13.724  19.664  0.00  0.00    +0.000 OA
ATOM      9  C   UNL     1      -5.689  13.442  21.841  0.00  0.00    +0.000 A 
ATOM     10  C   UNL     1      -6.934  14.002  21.530  0.00  0.00    +0.000 A 
ATOM     11  C   UNL     1      -7.916  14.159  22.526  0.00  0.00    +0.000 A 
ATOM     12  C   UNL     1      -7.657  13.761  23.842  0.00  0.00    +0.000 A 
ATOM     13  C   UNL     1      -6.426  13.194  24.147  0.00  0.00    +0.000 A 
ATOM     14  C   UNL     1      -5.455  13.038  23.148  0.00  0.00    +0.000 A 
ATOM     15  C   UNL     1      -4.168  12.453  23.512  0.00  0.00    +0.000 C 
ATOM     16  O   UNL     1      -3.986  12.011  24.636  0.00  0.00    +0.000 OA
ENDROOT
BRANCH   1  22
ATOM     17  C   UNL     1       2.152  16.934  17.947  0.00  0.00    +0.000 C 
ATOM     18  C   UNL     1       2.251  15.846  19.016  0.00  0.00    +0.000 C 
ATOM     19  C   UNL     1       2.566  14.482  18.373  0.00  0.00    +0.000 C 
ATOM     20  C   UNL     1       2.517  13.342  19.391  0.00  0.00    +0.000 C 
ATOM     21  N   UNL     1       1.261  13.368  20.139  0.00  0.00    +0.000 N 
ATOM     22  C   UNL     1       0.350  12.316  19.967  0.00  0.00    +0.000 C 
ATOM     23  O   UNL     1       0.553  11.386  19.189  0.00  0.00    +0.000 OA
ATOM     24  C   UNL     1       1.045  14.623  20.863  0.00  0.00    +0.000 C 
ATOM     25  C   UNL     1       0.960  15.771  19.852  0.00  0.00    +0.000 C 
ENDBRANCH   1  22
BRANCH   6  26
ATOM     26  N   UNL     1      -2.514  12.657  18.859  0.00  0.00    +0.000 N 
ATOM     27  H   UNL     1      -2.318  13.557  18.398  0.00  0.00    +0.000 HD
BRANCH  26  28
ATOM     28  C   UNL     1      -2.671  11.513  17.963  0.00  0.00    +0.000 C 
BRANCH  28  29
ATOM     29  C   UNL     1      -4.154  11.160  17.770  0.00  0.00    +0.000 C 
BRANCH  29  30
ATOM     30  O   UNL     1      -4.868  12.213  17.120  0.00  0.00    +0.000 OA
ATOM     31  H   UNL     1      -4.935  11.969  16.180  0.00  0.00    +0.000 HD
ENDBRANCH  29  30
ENDBRANCH  28  29
ENDBRANCH  26  28
ENDBRANCH   6  26
TORSDOF 5
ENDMDL
MODEL 8
REMARK VINA RESULT:      -6.6      4.942      8.183
REMARK  Name = 
REMARK  6 active torsions:
REMARK  status: ('A' for Active; 'I' for Inactive)
REMARK    1  A    between atoms: C_1  and  C_2
REMARK    2  A    between atoms: C_6  and  C_8
REMARK    3  A    between atoms: C_13  and  N_14
REMARK    4  A    between atoms: N_14  and  C_15
REMARK    5  A    between atoms: C_15  and  C_16
REMARK    6  A    between atoms: C_16  and  O_17
REMARK                            x       y       z     vdW  Elec       q    Type
REMARK                         _______ _______ _______ _____ _____    ______ ____
ROOT
ATOM      1  C   UNL     1      -0.181  12.812  20.888  0.00  0.00    +0.000 A 
ATOM      2  C   UNL     1      -0.851  13.297  22.020  0.00  0.00    +0.000 A 
ATOM      3  C   UNL     1      -2.218  13.153  22.152  0.00  0.00    +0.000 A 
ATOM      4  C   UNL     1      -2.965  12.683  21.080  0.00  0.00    +0.000 A 
ATOM      5  C   UNL     1      -2.344  12.276  19.889  0.00  0.00    +0.000 A 
ATOM      6  C   UNL     1      -0.905  12.253  19.795  0.00  0.00    +0.000 A 
ATOM      7  C   UNL     1      -3.242  11.920  18.735  0.00  0.00    +0.000 C 
ATOM      8  O   UNL     1      -2.778  11.636  17.637  0.00  0.00    +0.000 OA
ATOM      9  C   UNL     1      -4.725  11.988  18.904  0.00  0.00    +0.000 A 
ATOM     10  C   UNL     1      -5.579  11.711  17.831  0.00  0.00    +0.000 A 
ATOM     11  C   UNL     1      -6.976  11.818  17.983  0.00  0.00    +0.000 A 
ATOM     12  C   UNL     1      -7.524  12.207  19.209  0.00  0.00    +0.000 A 
ATOM     13  C   UNL     1      -6.675  12.470  20.277  0.00  0.00    +0.000 A 
ATOM     14  C   UNL     1      -5.287  12.357  20.118  0.00  0.00    +0.000 A 
ATOM     15  C   UNL     1      -4.428  12.657  21.259  0.00  0.00    +0.000 C 
ATOM     16  O   UNL     1      -4.915  12.893  22.354  0.00  0.00    +0.000 OA
ENDROOT
BRANCH   1  22
ATOM     17  C   UNL     1       3.416  16.315  17.189  0.00  0.00    +0.000 C 
ATOM     18  C   UNL     1       2.956  16.098  18.631  0.00  0.00    +0.000 C 
ATOM     19  C   UNL     1       3.753  14.954  19.285  0.00  0.00    +0.000 C 
ATOM     20  C   UNL     1       3.215  14.600  20.673  0.00  0.00    +0.000 C 
ATOM     21  N   UNL     1       1.773  14.367  20.627  0.00  0.00    +0.000 N 
ATOM     22  C   UNL     1       1.289  13.075  20.881  0.00  0.00    +0.000 C 
ATOM     23  O   UNL     1       2.032  12.124  21.113  0.00  0.00    +0.000 OA
ATOM     24  C   UNL     1       1.017  15.520  20.135  0.00  0.00    +0.000 C 
ATOM     25  C   UNL     1       1.444  15.817  18.693  0.00  0.00    +0.000 C 
ENDBRANCH   1  22
BRANCH   6  26
ATOM     26  N   UNL     1      -0.325  11.534  18.743  0.00  0.00    +0.000 N 
ATOM     27  H   UNL     1       0.197  12.113  18.070  0.00  0.00    +0.000 HD
BRANCH  26  28
ATOM     28  C   UNL     1      -0.019  10.106  18.714  0.00  0.00    +0.000 C 
BRANCH  28  29
ATOM     29  C   UNL     1       1.476   9.865  18.460  0.00  0.00    +0.000 C 
BRANCH  29  30
ATOM     30  O   UNL     1       1.998  10.761  17.477  0.00  0.00    +0.000 OA
ATOM     31  H   UNL     1       2.341  11.535  17.957  0.00  0.00    +0.000 HD
ENDBRANCH  29  30
ENDBRANCH  28  29
ENDBRANCH  26  28
ENDBRANCH   6  26
TORSDOF 5
ENDMDL
MODEL 9
REMARK VINA RESULT:      -6.6      3.768      9.771
REMARK  Name = 
REMARK  6 active torsions:
REMARK  status: ('A' for Active; 'I' for Inactive)
REMARK    1  A    between atoms: C_1  and  C_2
REMARK    2  A    between atoms: C_6  and  C_8
REMARK    3  A    between atoms: C_13  and  N_14
REMARK    4  A    between atoms: N_14  and  C_15
REMARK    5  A    between atoms: C_15  and  C_16
REMARK    6  A    between atoms: C_16  and  O_17
REMARK                            x       y       z     vdW  Elec       q    Type
REMARK                         _______ _______ _______ _____ _____    ______ ____
ROOT
ATOM      1  C   UNL     1      -1.328  12.620  22.431  0.00  0.00    +0.000 A 
ATOM      2  C   UNL     1      -1.362  11.471  23.233  0.00  0.00    +0.000 A 
ATOM      3  C   UNL     1      -0.594  10.366  22.924  0.00  0.00    +0.000 A 
ATOM      4  C   UNL     1       0.086  10.320  21.715  0.00  0.00    +0.000 A 
ATOM      5  C   UNL     1       0.070  11.411  20.833  0.00  0.00    +0.000 A 
ATOM      6  C   UNL     1      -0.582  12.640  21.216  0.00  0.00    +0.000 A 
ATOM      7  C   UNL     1       0.712  11.215  19.487  0.00  0.00    +0.000 C 
ATOM      8  O   UNL     1       0.667  12.091  18.631  0.00  0.00    +0.000 OA
ATOM      9  C   UNL     1       1.350   9.905  19.156  0.00  0.00    +0.000 A 
ATOM     10  C   UNL     1       1.908   9.681  17.893  0.00  0.00    +0.000 A 
ATOM     11  C   UNL     1       2.470   8.431  17.571  0.00  0.00    +0.000 A 
ATOM     12  C   UNL     1       2.472   7.394  18.510  0.00  0.00    +0.000 A 
ATOM     13  C   UNL     1       1.928   7.622  19.769  0.00  0.00    +0.000 A 
ATOM     14  C   UNL     1       1.374   8.871  20.082  0.00  0.00    +0.000 A 
ATOM     15  C   UNL     1       0.798   9.065  21.409  0.00  0.00    +0.000 C 
ATOM     16  O   UNL     1       0.896   8.193  22.259  0.00  0.00    +0.000 OA
ENDROOT
BRANCH   1  22
ATOM     17  C   UNL     1      -6.151  15.438  19.656  0.00  0.00    +0.000 C 
ATOM     18  C   UNL     1      -5.724  14.615  20.872  0.00  0.00    +0.000 C 
ATOM     19  C   UNL     1      -5.067  15.518  21.933  0.00  0.00    +0.000 C 
ATOM     20  C   UNL     1      -4.485  14.711  23.094  0.00  0.00    +0.000 C 
ATOM     21  N   UNL     1      -3.613  13.647  22.600  0.00  0.00    +0.000 N 
ATOM     22  C   UNL     1      -2.240  13.714  22.879  0.00  0.00    +0.000 C 
ATOM     23  O   UNL     1      -1.735  14.648  23.499  0.00  0.00    +0.000 OA
ATOM     24  C   UNL     1      -4.294  12.712  21.703  0.00  0.00    +0.000 C 
ATOM     25  C   UNL     1      -4.776  13.473  20.464  0.00  0.00    +0.000 C 
ENDBRANCH   1  22
BRANCH   6  26
ATOM     26  N   UNL     1      -0.293  13.795  20.481  0.00  0.00    +0.000 N 
ATOM     27  H   UNL     1      -0.983  14.017  19.749  0.00  0.00    +0.000 HD
BRANCH  26  28
ATOM     28  C   UNL     1       0.579  14.899  20.877  0.00  0.00    +0.000 C 
BRANCH  28  29
ATOM     29  C   UNL     1       1.745  15.064  19.892  0.00  0.00    +0.000 C 
BRANCH  29  30
ATOM     30  O   UNL     1       1.319  14.914  18.537  0.00  0.00    +0.000 OA
ATOM     31  H   UNL     1       1.864  14.207  18.148  0.00  0.00    +0.000 HD
ENDBRANCH  29  30
ENDBRANCH  28  29
ENDBRANCH  26  28
ENDBRANCH   6  26
TORSDOF 5
ENDMDL
