MODEL 1
REMARK VINA RESULT:      -7.8      0.000      0.000
REMARK  Name = 
REMARK  4 active torsions:
REMARK  status: ('A' for Active; 'I' for Inactive)
REMARK    1  A    between atoms: C_1  and  O_2
REMARK    2  A    between atoms: O_2  and  C_3
REMARK    3  A    between atoms: C_8  and  C_9
REMARK    4  A    between atoms: C_9  and  C_11
REMARK                            x       y       z     vdW  Elec       q    Type
REMARK                         _______ _______ _______ _____ _____    ______ ____
ROOT
ATOM      1  C   UNL     1       1.344   9.487  18.436  0.00  0.00    +0.000 C 
ATOM      2  O   UNL     1       2.007   9.765  17.437  0.00  0.00    +0.000 OA
ENDROOT
BRANCH   1   3
ATOM      3  C   UNL     1       1.551   8.216  19.179  0.00  0.00    +0.000 C 
ATOM      4  C   UNL     1       2.560   7.382  18.868  0.00  0.00    +0.000 C 
ATOM      5  N   UNL     1       3.550   7.574  17.919  0.00  0.00    +0.000 N 
ATOM      6  C   UNL     1       4.103   6.470  17.248  0.00  0.00    +0.000 A 
ATOM      7  C   UNL     1       4.955   6.639  16.155  0.00  0.00    +0.000 A 
ATOM      8  C   UNL     1       5.469   5.523  15.489  0.00  0.00    +0.000 A 
ATOM      9  C   UNL     1       5.153   4.234  15.925  0.00  0.00    +0.000 A 
ATOM     10  C   UNL     1       4.365   4.054  17.062  0.00  0.00    +0.000 A 
ATOM     11  C   UNL     1       3.866   5.170  17.732  0.00  0.00    +0.000 A 
ATOM     12  N   UNL     1       3.118   5.002  18.907  0.00  0.00    +0.000 N 
ATOM     13  C   UNL     1       2.506   6.038  19.569  0.00  0.00    +0.000 C 
ATOM     14  O   UNL     1       1.902   5.857  20.623  0.00  0.00    +0.000 OA
ATOM     15  H   UNL     1       3.449   8.434  17.377  0.00  0.00    +0.000 HD
ATOM     16  H   UNL     1       3.021   4.087  19.323  0.00  0.00    +0.000 HD
ENDBRANCH   1   3
BRANCH   1  22
ATOM     17  C   UNL     1      -1.795  12.189  19.617  0.00  0.00    +0.000 A 
ATOM     18  C   UNL     1      -1.959  11.309  18.548  0.00  0.00    +0.000 A 
ATOM     19  F   UNL     1      -3.090  11.294  17.828  0.00  0.00    +0.000 F 
ATOM     20  C   UNL     1      -0.936  10.428  18.188  0.00  0.00    +0.000 A 
ATOM     21  F   UNL     1      -1.155   9.585  17.166  0.00  0.00    +0.000 F 
ATOM     22  C   UNL     1       0.275  10.403  18.882  0.00  0.00    +0.000 A 
ATOM     23  C   UNL     1       0.441  11.282  19.948  0.00  0.00    +0.000 A 
ATOM     24  F   UNL     1       1.589  11.313  20.639  0.00  0.00    +0.000 F 
ATOM     25  C   UNL     1      -0.579  12.161  20.306  0.00  0.00    +0.000 A 
ATOM     26  F   UNL     1      -0.382  12.992  21.342  0.00  0.00    +0.000 F 
BRANCH  17  28
ATOM     27  C   UNL     1      -3.718  12.664  20.944  0.00  0.00    +0.000 C 
ATOM     28  O   UNL     1      -2.699  13.116  20.058  0.00  0.00    +0.000 OA
ENDBRANCH  17  28
ENDBRANCH   1  22
TORSDOF 3
ENDMDL
MODEL 2
REMARK VINA RESULT:      -7.8      0.145      2.089
REMARK  Name = 
REMARK  4 active torsions:
REMARK  status: ('A' for Active; 'I' for Inactive)
REMARK    1  A    between atoms: C_1  and  O_2
REMARK    2  A    between atoms: O_2  and  C_3
REMARK    3  A    between atoms: C_8  and  C_9
REMARK    4  A    between atoms: C_9  and  C_11
REMARK                            x       y       z     vdW  Elec       q    Type
REMARK                         _______ _______ _______ _____ _____    ______ ____
ROOT
ATOM      1  C   UNL     1       1.333   9.537  18.385  0.00  0.00    +0.000 C 
ATOM      2  O   UNL     1       2.048   9.831  17.427  0.00  0.00    +0.000 OA
ENDROOT
BRANCH   1   3
ATOM      3  C   UNL     1       1.521   8.269  19.137  0.00  0.00    +0.000 C 
ATOM      4  C   UNL     1       2.528   7.426  18.844  0.00  0.00    +0.000 C 
ATOM      5  N   UNL     1       3.532   7.606  17.907  0.00  0.00    +0.000 N 
ATOM      6  C   UNL     1       4.086   6.495  17.249  0.00  0.00    +0.000 A 
ATOM      7  C   UNL     1       4.954   6.652  16.168  0.00  0.00    +0.000 A 
ATOM      8  C   UNL     1       5.470   5.530  15.514  0.00  0.00    +0.000 A 
ATOM      9  C   UNL     1       5.139   4.246  15.952  0.00  0.00    +0.000 A 
ATOM     10  C   UNL     1       4.334   4.077  17.079  0.00  0.00    +0.000 A 
ATOM     11  C   UNL     1       3.834   5.199  17.737  0.00  0.00    +0.000 A 
ATOM     12  N   UNL     1       3.069   5.042  18.902  0.00  0.00    +0.000 N 
ATOM     13  C   UNL     1       2.456   6.086  19.551  0.00  0.00    +0.000 C 
ATOM     14  O   UNL     1       1.836   5.915  20.598  0.00  0.00    +0.000 OA
ATOM     15  H   UNL     1       3.445   8.465  17.360  0.00  0.00    +0.000 HD
ATOM     16  H   UNL     1       2.960   4.131  19.322  0.00  0.00    +0.000 HD
ENDBRANCH   1   3
BRANCH   1  22
ATOM     17  C   UNL     1      -1.885  12.119  19.621  0.00  0.00    +0.000 A 
ATOM     18  C   UNL     1      -0.638  12.167  20.242  0.00  0.00    +0.000 A 
ATOM     19  F   UNL     1      -0.404  12.996  21.268  0.00  0.00    +0.000 F 
ATOM     20  C   UNL     1       0.401  11.332  19.818  0.00  0.00    +0.000 A 
ATOM     21  F   UNL     1       1.588  11.436  20.435  0.00  0.00    +0.000 F 
ATOM     22  C   UNL     1       0.222  10.431  18.768  0.00  0.00    +0.000 A 
ATOM     23  C   UNL     1      -1.023  10.381  18.148  0.00  0.00    +0.000 A 
ATOM     24  F   UNL     1      -1.257   9.523  17.145  0.00  0.00    +0.000 F 
ATOM     25  C   UNL     1      -2.058  11.213  18.571  0.00  0.00    +0.000 A 
ATOM     26  F   UNL     1      -3.244  11.137  17.946  0.00  0.00    +0.000 F 
BRANCH  17  28
ATOM     27  C   UNL     1      -3.567  12.632  21.230  0.00  0.00    +0.000 C 
ATOM     28  O   UNL     1      -2.989  12.857  19.949  0.00  0.00    +0.000 OA
ENDBRANCH  17  28
ENDBRANCH   1  22
TORSDOF 3
ENDMDL
MODEL 3
REMARK VINA RESULT:      -7.7      2.612      3.743
REMARK  Name = 
REMARK  4 active torsions:
REMARK  status: ('A' for Active; 'I' for Inactive)
REMARK    1  A    between atoms: C_1  and  O_2
REMARK    2  A    between atoms: O_2  and  C_3
REMARK    3  A    between atoms: C_8  and  C_9
REMARK    4  A    between atoms: C_9  and  C_11
REMARK                            x       y       z     vdW  Elec       q    Type
REMARK                         _______ _______ _______ _____ _____    ______ ____
ROOT
ATOM      1  C   UNL     1      -0.552  11.873  19.569  0.00  0.00    +0.000 C 
ATOM      2  O   UNL     1       0.170  12.617  18.904  0.00  0.00    +0.000 OA
ENDROOT
BRANCH   1   3
ATOM      3  C   UNL     1      -0.031  11.134  20.749  0.00  0.00    +0.000 C 
ATOM      4  C   UNL     1       0.854  10.131  20.610  0.00  0.00    +0.000 C 
ATOM      5  N   UNL     1       1.445   9.684  19.439  0.00  0.00    +0.000 N 
ATOM      6  C   UNL     1       1.794   8.330  19.301  0.00  0.00    +0.000 A 
ATOM      7  C   UNL     1       2.208   7.810  18.073  0.00  0.00    +0.000 A 
ATOM      8  C   UNL     1       2.523   6.454  17.957  0.00  0.00    +0.000 A 
ATOM      9  C   UNL     1       2.449   5.615  19.072  0.00  0.00    +0.000 A 
ATOM     10  C   UNL     1       2.111   6.139  20.319  0.00  0.00    +0.000 A 
ATOM     11  C   UNL     1       1.811   7.496  20.434  0.00  0.00    +0.000 A 
ATOM     12  N   UNL     1       1.524   8.043  21.693  0.00  0.00    +0.000 N 
ATOM     13  C   UNL     1       1.120   9.343  21.878  0.00  0.00    +0.000 C 
ATOM     14  O   UNL     1       0.926   9.800  23.002  0.00  0.00    +0.000 OA
ATOM     15  H   UNL     1       1.116  10.159  18.596  0.00  0.00    +0.000 HD
ATOM     16  H   UNL     1       1.627   7.485  22.527  0.00  0.00    +0.000 HD
ENDBRANCH   1   3
BRANCH   1  22
ATOM     17  C   UNL     1      -4.603  11.239  18.250  0.00  0.00    +0.000 A 
ATOM     18  C   UNL     1      -3.543  10.504  17.719  0.00  0.00    +0.000 A 
ATOM     19  F   UNL     1      -3.743   9.595  16.755  0.00  0.00    +0.000 F 
ATOM     20  C   UNL     1      -2.237  10.712  18.169  0.00  0.00    +0.000 A 
ATOM     21  F   UNL     1      -1.257   9.960  17.641  0.00  0.00    +0.000 F 
ATOM     22  C   UNL     1      -1.953  11.656  19.157  0.00  0.00    +0.000 A 
ATOM     23  C   UNL     1      -3.009  12.392  19.687  0.00  0.00    +0.000 A 
ATOM     24  F   UNL     1      -2.793  13.323  20.626  0.00  0.00    +0.000 F 
ATOM     25  C   UNL     1      -4.311  12.185  19.238  0.00  0.00    +0.000 A 
ATOM     26  F   UNL     1      -5.304  12.912  19.775  0.00  0.00    +0.000 F 
BRANCH  17  28
ATOM     27  C   UNL     1      -6.767  10.339  18.685  0.00  0.00    +0.000 C 
ATOM     28  O   UNL     1      -5.918  11.156  17.885  0.00  0.00    +0.000 OA
ENDBRANCH  17  28
ENDBRANCH   1  22
TORSDOF 3
ENDMDL
MODEL 4
REMARK VINA RESULT:      -7.5      3.750      8.228
REMARK  Name = 
REMARK  4 active torsions:
REMARK  status: ('A' for Active; 'I' for Inactive)
REMARK    1  A    between atoms: C_1  and  O_2
REMARK    2  A    between atoms: O_2  and  C_3
REMARK    3  A    between atoms: C_8  and  C_9
REMARK    4  A    between atoms: C_9  and  C_11
REMARK                            x       y       z     vdW  Elec       q    Type
REMARK                         _______ _______ _______ _____ _____    ______ ____
ROOT
ATOM      1  C   UNL     1       2.195   7.391  19.456  0.00  0.00    +0.000 C 
ATOM      2  O   UNL     1       2.094   7.942  18.360  0.00  0.00    +0.000 OA
ENDROOT
BRANCH   1   3
ATOM      3  C   UNL     1       1.866   8.103  20.718  0.00  0.00    +0.000 C 
ATOM      4  C   UNL     1       0.797   8.915  20.804  0.00  0.00    +0.000 C 
ATOM      5  N   UNL     1      -0.154   9.162  19.827  0.00  0.00    +0.000 N 
ATOM      6  C   UNL     1      -0.784  10.417  19.762  0.00  0.00    +0.000 A 
ATOM      7  C   UNL     1      -1.596  10.764  18.681  0.00  0.00    +0.000 A 
ATOM      8  C   UNL     1      -2.190  12.029  18.629  0.00  0.00    +0.000 A 
ATOM      9  C   UNL     1      -1.993  12.942  19.667  0.00  0.00    +0.000 A 
ATOM     10  C   UNL     1      -1.247  12.578  20.787  0.00  0.00    +0.000 A 
ATOM     11  C   UNL     1      -0.669  11.311  20.842  0.00  0.00    +0.000 A 
ATOM     12  N   UNL     1       0.038  10.915  21.988  0.00  0.00    +0.000 N 
ATOM     13  C   UNL     1       0.721   9.728  22.082  0.00  0.00    +0.000 C 
ATOM     14  O   UNL     1       1.286   9.394  23.120  0.00  0.00    +0.000 OA
ATOM     15  H   UNL     1       0.031   8.698  18.936  0.00  0.00    +0.000 HD
ATOM     16  H   UNL     1       0.048  11.503  22.809  0.00  0.00    +0.000 HD
ENDBRANCH   1   3
BRANCH   1  22
ATOM     17  C   UNL     1       3.733   3.369  19.564  0.00  0.00    +0.000 A 
ATOM     18  C   UNL     1       4.429   4.396  18.926  0.00  0.00    +0.000 A 
ATOM     19  F   UNL     1       5.588   4.161  18.295  0.00  0.00    +0.000 F 
ATOM     20  C   UNL     1       3.923   5.698  18.914  0.00  0.00    +0.000 A 
ATOM     21  F   UNL     1       4.645   6.653  18.306  0.00  0.00    +0.000 F 
ATOM     22  C   UNL     1       2.713   6.011  19.534  0.00  0.00    +0.000 A 
ATOM     23  C   UNL     1       2.015   4.988  20.170  0.00  0.00    +0.000 A 
ATOM     24  F   UNL     1       0.840   5.226  20.768  0.00  0.00    +0.000 F 
ATOM     25  C   UNL     1       2.520   3.689  20.182  0.00  0.00    +0.000 A 
ATOM     26  F   UNL     1       1.820   2.729  20.808  0.00  0.00    +0.000 F 
BRANCH  17  28
ATOM     27  C   UNL     1       3.760   1.226  18.522  0.00  0.00    +0.000 C 
ATOM     28  O   UNL     1       4.098   2.053  19.630  0.00  0.00    +0.000 OA
ENDBRANCH  17  28
ENDBRANCH   1  22
TORSDOF 3
ENDMDL
MODEL 5
REMARK VINA RESULT:      -7.5      1.827      2.047
REMARK  Name = 
REMARK  4 active torsions:
REMARK  status: ('A' for Active; 'I' for Inactive)
REMARK    1  A    between atoms: C_1  and  O_2
REMARK    2  A    between atoms: O_2  and  C_3
REMARK    3  A    between atoms: C_8  and  C_9
REMARK    4  A    between atoms: C_9  and  C_11
REMARK                            x       y       z     vdW  Elec       q    Type
REMARK                         _______ _______ _______ _____ _____    ______ ____
ROOT
ATOM      1  C   UNL     1       1.779   8.462  19.301  0.00  0.00    +0.000 C 
ATOM      2  O   UNL     1       2.168   8.936  18.233  0.00  0.00    +0.000 OA
ENDROOT
BRANCH   1   3
ATOM      3  C   UNL     1       2.146   7.084  19.721  0.00  0.00    +0.000 C 
ATOM      4  C   UNL     1       3.142   6.412  19.115  0.00  0.00    +0.000 C 
ATOM      5  N   UNL     1       3.982   6.871  18.115  0.00  0.00    +0.000 N 
ATOM      6  C   UNL     1       4.490   5.975  17.158  0.00  0.00    +0.000 A 
ATOM      7  C   UNL     1       5.176   6.431  16.031  0.00  0.00    +0.000 A 
ATOM      8  C   UNL     1       5.647   5.520  15.082  0.00  0.00    +0.000 A 
ATOM      9  C   UNL     1       5.456   4.149  15.266  0.00  0.00    +0.000 A 
ATOM     10  C   UNL     1       4.840   3.678  16.425  0.00  0.00    +0.000 A 
ATOM     11  C   UNL     1       4.384   4.589  17.376  0.00  0.00    +0.000 A 
ATOM     12  N   UNL     1       3.813   4.124  18.571  0.00  0.00    +0.000 N 
ATOM     13  C   UNL     1       3.249   4.951  19.511  0.00  0.00    +0.000 C 
ATOM     14  O   UNL     1       2.804   4.511  20.568  0.00  0.00    +0.000 OA
ATOM     15  H   UNL     1       3.767   7.815  17.788  0.00  0.00    +0.000 HD
ATOM     16  H   UNL     1       3.818   3.139  18.788  0.00  0.00    +0.000 HD
ENDBRANCH   1   3
BRANCH   1  22
ATOM     17  C   UNL     1      -0.820  10.863  21.757  0.00  0.00    +0.000 A 
ATOM     18  C   UNL     1      -0.809  10.993  20.368  0.00  0.00    +0.000 A 
ATOM     19  F   UNL     1      -1.585  11.893  19.749  0.00  0.00    +0.000 F 
ATOM     20  C   UNL     1       0.030  10.195  19.585  0.00  0.00    +0.000 A 
ATOM     21  F   UNL     1      -0.017  10.344  18.252  0.00  0.00    +0.000 F 
ATOM     22  C   UNL     1       0.878   9.250  20.165  0.00  0.00    +0.000 A 
ATOM     23  C   UNL     1       0.869   9.120  21.551  0.00  0.00    +0.000 A 
ATOM     24  F   UNL     1       1.675   8.241  22.163  0.00  0.00    +0.000 F 
ATOM     25  C   UNL     1       0.033   9.916  22.331  0.00  0.00    +0.000 A 
ATOM     26  F   UNL     1       0.052   9.760  23.664  0.00  0.00    +0.000 F 
BRANCH  17  28
ATOM     27  C   UNL     1      -1.154  12.931  22.894  0.00  0.00    +0.000 C 
ATOM     28  O   UNL     1      -1.568  11.592  22.639  0.00  0.00    +0.000 OA
ENDBRANCH  17  28
ENDBRANCH   1  22
TORSDOF 3
ENDMDL
MODEL 6
REMARK VINA RESULT:      -7.5      1.818      2.634
REMARK  Name = 
REMARK  4 active torsions:
REMARK  status: ('A' for Active; 'I' for Inactive)
REMARK    1  A    between atoms: C_1  and  O_2
REMARK    2  A    between atoms: O_2  and  C_3
REMARK    3  A    between atoms: C_8  and  C_9
REMARK    4  A    between atoms: C_9  and  C_11
REMARK                            x       y       z     vdW  Elec       q    Type
REMARK                         _______ _______ _______ _____ _____    ______ ____
ROOT
ATOM      1  C   UNL     1       1.699   8.544  19.284  0.00  0.00    +0.000 C 
ATOM      2  O   UNL     1       2.056   8.982  18.190  0.00  0.00    +0.000 OA
ENDROOT
BRANCH   1   3
ATOM      3  C   UNL     1       2.061   7.173  19.729  0.00  0.00    +0.000 C 
ATOM      4  C   UNL     1       3.064   6.492  19.147  0.00  0.00    +0.000 C 
ATOM      5  N   UNL     1       3.916   6.936  18.149  0.00  0.00    +0.000 N 
ATOM      6  C   UNL     1       4.436   6.026  17.213  0.00  0.00    +0.000 A 
ATOM      7  C   UNL     1       5.135   6.464  16.087  0.00  0.00    +0.000 A 
ATOM      8  C   UNL     1       5.618   5.539  15.158  0.00  0.00    +0.000 A 
ATOM      9  C   UNL     1       5.425   4.171  15.360  0.00  0.00    +0.000 A 
ATOM     10  C   UNL     1       4.795   3.718  16.520  0.00  0.00    +0.000 A 
ATOM     11  C   UNL     1       4.328   4.643  17.451  0.00  0.00    +0.000 A 
ATOM     12  N   UNL     1       3.742   4.197  18.645  0.00  0.00    +0.000 N 
ATOM     13  C   UNL     1       3.167   5.038  19.566  0.00  0.00    +0.000 C 
ATOM     14  O   UNL     1       2.709   4.613  20.624  0.00  0.00    +0.000 OA
ATOM     15  H   UNL     1       3.705   7.875  17.805  0.00  0.00    +0.000 HD
ATOM     16  H   UNL     1       3.744   3.215  18.878  0.00  0.00    +0.000 HD
ENDBRANCH   1   3
BRANCH   1  22
ATOM     17  C   UNL     1      -0.835  10.851  21.894  0.00  0.00    +0.000 A 
ATOM     18  C   UNL     1       0.078   9.926  22.400  0.00  0.00    +0.000 A 
ATOM     19  F   UNL     1       0.178   9.698  23.717  0.00  0.00    +0.000 F 
ATOM     20  C   UNL     1       0.904   9.197  21.540  0.00  0.00    +0.000 A 
ATOM     21  F   UNL     1       1.781   8.337  22.081  0.00  0.00    +0.000 F 
ATOM     22  C   UNL     1       0.839   9.370  20.156  0.00  0.00    +0.000 A 
ATOM     23  C   UNL     1      -0.073  10.291  19.649  0.00  0.00    +0.000 A 
ATOM     24  F   UNL     1      -0.189  10.486  18.328  0.00  0.00    +0.000 F 
ATOM     25  C   UNL     1      -0.896  11.017  20.507  0.00  0.00    +0.000 A 
ATOM     26  F   UNL     1      -1.761  11.898  19.980  0.00  0.00    +0.000 F 
BRANCH  17  28
ATOM     27  C   UNL     1      -1.271  12.891  23.048  0.00  0.00    +0.000 C 
ATOM     28  O   UNL     1      -1.715  11.608  22.616  0.00  0.00    +0.000 OA
ENDBRANCH  17  28
ENDBRANCH   1  22
TORSDOF 3
ENDMDL
MODEL 7
REMARK VINA RESULT:      -7.5      1.957      2.296
REMARK  Name = 
REMARK  4 active torsions:
REMARK  status: ('A' for Active; 'I' for Inactive)
REMARK    1  A    between atoms: C_1  and  O_2
REMARK    2  A    between atoms: O_2  and  C_3
REMARK    3  A    between atoms: C_8  and  C_9
REMARK    4  A    between atoms: C_9  and  C_11
REMARK                            x       y       z     vdW  Elec       q    Type
REMARK                         _______ _______ _______ _____ _____    ______ ____
ROOT
ATOM      1  C   UNL     1       1.919   8.400  18.603  0.00  0.00    +0.000 C 
ATOM      2  O   UNL     1       2.700   9.054  17.911  0.00  0.00    +0.000 OA
ENDROOT
BRANCH   1   3
ATOM      3  C   UNL     1       1.767   6.932  18.427  0.00  0.00    +0.000 C 
ATOM      4  C   UNL     1       2.832   6.140  18.208  0.00  0.00    +0.000 C 
ATOM      5  N   UNL     1       4.166   6.513  18.176  0.00  0.00    +0.000 N 
ATOM      6  C   UNL     1       5.067   5.824  17.346  0.00  0.00    +0.000 A 
ATOM      7  C   UNL     1       6.367   6.292  17.142  0.00  0.00    +0.000 A 
ATOM      8  C   UNL     1       7.234   5.602  16.290  0.00  0.00    +0.000 A 
ATOM      9  C   UNL     1       6.815   4.430  15.657  0.00  0.00    +0.000 A 
ATOM     10  C   UNL     1       5.546   3.911  15.914  0.00  0.00    +0.000 A 
ATOM     11  C   UNL     1       4.689   4.595  16.775  0.00  0.00    +0.000 A 
ATOM     12  N   UNL     1       3.432   4.054  17.083  0.00  0.00    +0.000 N 
ATOM     13  C   UNL     1       2.491   4.710  17.839  0.00  0.00    +0.000 C 
ATOM     14  O   UNL     1       1.420   4.182  18.128  0.00  0.00    +0.000 OA
ATOM     15  H   UNL     1       4.324   7.516  18.288  0.00  0.00    +0.000 HD
ATOM     16  H   UNL     1       3.182   3.130  16.763  0.00  0.00    +0.000 HD
ENDBRANCH   1   3
BRANCH   1  22
ATOM     17  C   UNL     1      -0.547  10.516  21.429  0.00  0.00    +0.000 A 
ATOM     18  C   UNL     1      -0.658  10.742  20.057  0.00  0.00    +0.000 A 
ATOM     19  F   UNL     1      -1.514  11.651  19.570  0.00  0.00    +0.000 F 
ATOM     20  C   UNL     1       0.140  10.036  19.153  0.00  0.00    +0.000 A 
ATOM     21  F   UNL     1      -0.024  10.275  17.842  0.00  0.00    +0.000 F 
ATOM     22  C   UNL     1       1.067   9.089  19.592  0.00  0.00    +0.000 A 
ATOM     23  C   UNL     1       1.179   8.862  20.960  0.00  0.00    +0.000 A 
ATOM     24  F   UNL     1       2.064   7.977  21.439  0.00  0.00    +0.000 F 
ATOM     25  C   UNL     1       0.384   9.567  21.862  0.00  0.00    +0.000 A 
ATOM     26  F   UNL     1       0.520   9.319  23.174  0.00  0.00    +0.000 F 
BRANCH  17  28
ATOM     27  C   UNL     1      -0.927  12.517  22.667  0.00  0.00    +0.000 C 
ATOM     28  O   UNL     1      -1.243  11.151  22.420  0.00  0.00    +0.000 OA
ENDBRANCH  17  28
ENDBRANCH   1  22
TORSDOF 3
ENDMDL
MODEL 8
REMARK VINA RESULT:      -7.5      5.003      8.016
REMARK  Name = 
REMARK  4 active torsions:
REMARK  status: ('A' for Active; 'I' for Inactive)
REMARK    1  A    between atoms: C_1  and  O_2
REMARK    2  A    between atoms: O_2  and  C_3
REMARK    3  A    between atoms: C_8  and  C_9
REMARK    4  A    between atoms: C_9  and  C_11
REMARK                            x       y       z     vdW  Elec       q    Type
REMARK                         _______ _______ _______ _____ _____    ______ ____
ROOT
ATOM      1  C   UNL     1       4.102   3.018  18.161  0.00  0.00    +0.000 C 
ATOM      2  O   UNL     1       3.983   1.998  17.483  0.00  0.00    +0.000 OA
ENDROOT
BRANCH   1   3
ATOM      3  C   UNL     1       3.230   3.278  19.336  0.00  0.00    +0.000 C 
ATOM      4  C   UNL     1       2.472   4.387  19.412  0.00  0.00    +0.000 C 
ATOM      5  N   UNL     1       2.329   5.376  18.454  0.00  0.00    +0.000 N 
ATOM      6  C   UNL     1       2.084   6.704  18.846  0.00  0.00    +0.000 A 
ATOM      7  C   UNL     1       2.128   7.751  17.924  0.00  0.00    +0.000 A 
ATOM      8  C   UNL     1       1.907   9.065  18.346  0.00  0.00    +0.000 A 
ATOM      9  C   UNL     1       1.619   9.336  19.685  0.00  0.00    +0.000 A 
ATOM     10  C   UNL     1       1.496   8.290  20.599  0.00  0.00    +0.000 A 
ATOM     11  C   UNL     1       1.703   6.979  20.172  0.00  0.00    +0.000 A 
ATOM     12  N   UNL     1       1.528   5.916  21.070  0.00  0.00    +0.000 N 
ATOM     13  C   UNL     1       1.810   4.608  20.758  0.00  0.00    +0.000 C 
ATOM     14  O   UNL     1       1.597   3.699  21.556  0.00  0.00    +0.000 OA
ATOM     15  H   UNL     1       2.913   5.246  17.625  0.00  0.00    +0.000 HD
ATOM     16  H   UNL     1       1.161   6.085  21.995  0.00  0.00    +0.000 HD
ENDBRANCH   1   3
BRANCH   1  22
ATOM     17  C   UNL     1       6.957   6.073  17.125  0.00  0.00    +0.000 A 
ATOM     18  C   UNL     1       6.853   5.588  18.429  0.00  0.00    +0.000 A 
ATOM     19  F   UNL     1       7.617   6.079  19.414  0.00  0.00    +0.000 F 
ATOM     20  C   UNL     1       5.932   4.586  18.745  0.00  0.00    +0.000 A 
ATOM     21  F   UNL     1       5.890   4.139  20.010  0.00  0.00    +0.000 F 
ATOM     22  C   UNL     1       5.092   4.043  17.772  0.00  0.00    +0.000 A 
ATOM     23  C   UNL     1       5.192   4.526  16.470  0.00  0.00    +0.000 A 
ATOM     24  F   UNL     1       4.399   4.054  15.499  0.00  0.00    +0.000 F 
ATOM     25  C   UNL     1       6.111   5.526  16.156  0.00  0.00    +0.000 A 
ATOM     26  F   UNL     1       6.180   5.964  14.889  0.00  0.00    +0.000 F 
BRANCH  17  28
ATOM     27  C   UNL     1       7.790   8.288  17.412  0.00  0.00    +0.000 C 
ATOM     28  O   UNL     1       7.792   7.063  16.686  0.00  0.00    +0.000 OA
ENDBRANCH  17  28
ENDBRANCH   1  22
TORSDOF 3
ENDMDL
MODEL 9
REMARK VINA RESULT:      -7.4      3.742      8.172
REMARK  Name = 
REMARK  4 active torsions:
REMARK  status: ('A' for Active; 'I' for Inactive)
REMARK    1  A    between atoms: C_1  and  O_2
REMARK    2  A    between atoms: O_2  and  C_3
REMARK    3  A    between atoms: C_8  and  C_9
REMARK    4  A    between atoms: C_9  and  C_11
REMARK                            x       y       z     vdW  Elec       q    Type
REMARK                         _______ _______ _______ _____ _____    ______ ____
ROOT
ATOM      1  C   UNL     1       2.190   7.462  19.431  0.00  0.00    +0.000 C 
ATOM      2  O   UNL     1       2.111   8.059  18.357  0.00  0.00    +0.000 OA
ENDROOT
BRANCH   1   3
ATOM      3  C   UNL     1       1.849   8.125  20.717  0.00  0.00    +0.000 C 
ATOM      4  C   UNL     1       0.776   8.929  20.825  0.00  0.00    +0.000 C 
ATOM      5  N   UNL     1      -0.168   9.210  19.851  0.00  0.00    +0.000 N 
ATOM      6  C   UNL     1      -0.803  10.463  19.829  0.00  0.00    +0.000 A 
ATOM      7  C   UNL     1      -1.609  10.848  18.757  0.00  0.00    +0.000 A 
ATOM      8  C   UNL     1      -2.207  12.111  18.747  0.00  0.00    +0.000 A 
ATOM      9  C   UNL     1      -2.021  12.987  19.820  0.00  0.00    +0.000 A 
ATOM     10  C   UNL     1      -1.281  12.583  20.931  0.00  0.00    +0.000 A 
ATOM     11  C   UNL     1      -0.698  11.317  20.943  0.00  0.00    +0.000 A 
ATOM     12  N   UNL     1       0.002  10.881  22.078  0.00  0.00    +0.000 N 
ATOM     13  C   UNL     1       0.689   9.693  22.132  0.00  0.00    +0.000 C 
ATOM     14  O   UNL     1       1.248   9.323  23.161  0.00  0.00    +0.000 OA
ATOM     15  H   UNL     1       0.024   8.779  18.945  0.00  0.00    +0.000 HD
ATOM     16  H   UNL     1       0.004  11.437  22.920  0.00  0.00    +0.000 HD
ENDBRANCH   1   3
BRANCH   1  22
ATOM     17  C   UNL     1       3.623   3.405  19.636  0.00  0.00    +0.000 A 
ATOM     18  C   UNL     1       2.426   3.784  20.243  0.00  0.00    +0.000 A 
ATOM     19  F   UNL     1       1.694   2.905  20.940  0.00  0.00    +0.000 F 
ATOM     20  C   UNL     1       1.968   5.101  20.154  0.00  0.00    +0.000 A 
ATOM     21  F   UNL     1       0.798   5.406  20.737  0.00  0.00    +0.000 F 
ATOM     22  C   UNL     1       2.690   6.073  19.460  0.00  0.00    +0.000 A 
ATOM     23  C   UNL     1       3.886   5.698  18.854  0.00  0.00    +0.000 A 
ATOM     24  F   UNL     1       4.629   6.592  18.188  0.00  0.00    +0.000 F 
ATOM     25  C   UNL     1       4.343   4.384  18.943  0.00  0.00    +0.000 A 
ATOM     26  F   UNL     1       5.499   4.060  18.344  0.00  0.00    +0.000 F 
BRANCH  17  28
ATOM     27  C   UNL     1       3.788   1.232  18.671  0.00  0.00    +0.000 C 
ATOM     28  O   UNL     1       4.197   2.165  19.665  0.00  0.00    +0.000 OA
ENDBRANCH  17  28
ENDBRANCH   1  22
TORSDOF 3
ENDMDL
