MODEL 1
REMARK VINA RESULT:      -8.6      0.000      0.000
REMARK  Name = 
REMARK  5 active torsions:
REMARK  status: ('A' for Active; 'I' for Inactive)
REMARK    1  A    between atoms: C_4  and  C_5
REMARK    2  A    between atoms: C_5  and  N_6
REMARK    3  A    between atoms: C_8  and  C_9
REMARK    4  A    between atoms: C_9  and  S_10
REMARK    5  A    between atoms: S_10  and  C_11
REMARK                            x       y       z     vdW  Elec       q    Type
REMARK                         _______ _______ _______ _____ _____    ______ ____
ROOT
ATOM      1  N   UNL     1       1.788   5.652  19.483  0.00  0.00    +0.000 N 
ATOM      2  C   UNL     1       1.576   4.327  19.769  0.00  0.00    +0.000 A 
ATOM      3  C   UNL     1       1.769   3.646  18.582  0.00  0.00    +0.000 A 
ATOM      4  N   UNL     1       2.041   4.594  17.604  0.00  0.00    +0.000 NA
ATOM      5  N   UNL     1       2.046   5.809  18.164  0.00  0.00    +0.000 NA
ENDROOT
BRANCH   1   6
ATOM      6  C   UNL     1       2.072   6.711  20.461  0.00  0.00    +0.000 C 
BRANCH   6  10
ATOM      7  O   UNL     1       2.160  10.357  17.254  0.00  0.00    +0.000 OA
ATOM      8  C   UNL     1       1.653   9.956  18.299  0.00  0.00    +0.000 A 
ATOM      9  C   UNL     1       2.024   8.625  18.843  0.00  0.00    +0.000 A 
ATOM     10  C   UNL     1       1.690   8.177  20.075  0.00  0.00    +0.000 A 
ATOM     11  C   UNL     1       0.875   9.080  20.884  0.00  0.00    +0.000 A 
ATOM     12  C   UNL     1       0.546   8.871  22.214  0.00  0.00    +0.000 A 
ATOM     13  C   UNL     1      -0.362   9.616  22.952  0.00  0.00    +0.000 A 
ATOM     14  C   UNL     1      -0.833  10.773  22.382  0.00  0.00    +0.000 A 
ATOM     15 CL   UNL     1      -1.793  11.828  23.345  0.00  0.00    +0.000 Cl
ATOM     16  C   UNL     1      -0.433  11.132  21.081  0.00  0.00    +0.000 A 
ATOM     17  C   UNL     1       0.386  10.274  20.333  0.00  0.00    +0.000 A 
ATOM     18  O   UNL     1       0.811  10.751  19.076  0.00  0.00    +0.000 OA
ENDBRANCH   6  10
ENDBRANCH   1   6
BRANCH   3  19
ATOM     19  C   UNL     1       1.865   2.147  18.341  0.00  0.00    +0.000 C 
BRANCH  19  20
ATOM     20  S   UNL     1       3.600   1.475  18.625  0.00  0.00    +0.000 S 
BRANCH  20  21
ATOM     21  C   UNL     1       4.707   2.865  18.373  0.00  0.00    +0.000 A 
ATOM     22  N   UNL     1       5.240   3.515  19.356  0.00  0.00    +0.000 NA
ATOM     23  C   UNL     1       5.939   4.560  18.767  0.00  0.00    +0.000 A 
ATOM     24  C   UNL     1       6.759   5.541  19.325  0.00  0.00    +0.000 A 
ATOM     25  C   UNL     1       7.592   6.325  18.476  0.00  0.00    +0.000 A 
ATOM     26  C   UNL     1       7.068   6.961  17.357  0.00  0.00    +0.000 A 
ATOM     27  C   UNL     1       6.352   5.896  16.733  0.00  0.00    +0.000 A 
ATOM     28  C   UNL     1       5.719   4.684  17.400  0.00  0.00    +0.000 A 
ATOM     29  N   UNL     1       4.997   3.470  17.157  0.00  0.00    +0.000 N 
ATOM     30  H   UNL     1       4.685   3.119  16.278  0.00  0.00    +0.000 HD
ENDBRANCH  20  21
ENDBRANCH  19  20
ENDBRANCH   3  19
TORSDOF 5
ENDMDL
MODEL 2
REMARK VINA RESULT:      -8.5      5.017      6.787
REMARK  Name = 
REMARK  5 active torsions:
REMARK  status: ('A' for Active; 'I' for Inactive)
REMARK    1  A    between atoms: C_4  and  C_5
REMARK    2  A    between atoms: C_5  and  N_6
REMARK    3  A    between atoms: C_8  and  C_9
REMARK    4  A    between atoms: C_9  and  S_10
REMARK    5  A    between atoms: S_10  and  C_11
REMARK                            x       y       z     vdW  Elec       q    Type
REMARK                         _______ _______ _______ _____ _____    ______ ____
ROOT
ATOM      1  N   UNL     1       5.848   4.727  17.290  0.00  0.00    +0.000 N 
ATOM      2  C   UNL     1       6.370   5.521  18.278  0.00  0.00    +0.000 A 
ATOM      3  C   UNL     1       7.373   6.262  17.680  0.00  0.00    +0.000 A 
ATOM      4  N   UNL     1       7.456   5.847  16.357  0.00  0.00    +0.000 NA
ATOM      5  N   UNL     1       6.526   4.912  16.133  0.00  0.00    +0.000 NA
ENDROOT
BRANCH   1   6
ATOM      6  C   UNL     1       4.541   4.054  17.324  0.00  0.00    +0.000 C 
BRANCH   6  10
ATOM      7  O   UNL     1       2.489   2.561  21.465  0.00  0.00    +0.000 OA
ATOM      8  C   UNL     1       2.713   3.538  20.755  0.00  0.00    +0.000 A 
ATOM      9  C   UNL     1       3.485   3.383  19.496  0.00  0.00    +0.000 A 
ATOM     10  C   UNL     1       3.610   4.338  18.547  0.00  0.00    +0.000 A 
ATOM     11  C   UNL     1       2.956   5.613  18.833  0.00  0.00    +0.000 A 
ATOM     12  C   UNL     1       2.847   6.666  17.938  0.00  0.00    +0.000 A 
ATOM     13  C   UNL     1       2.389   7.940  18.237  0.00  0.00    +0.000 A 
ATOM     14  C   UNL     1       1.816   8.127  19.469  0.00  0.00    +0.000 A 
ATOM     15 CL   UNL     1       1.050   9.634  19.796  0.00  0.00    +0.000 Cl
ATOM     16  C   UNL     1       1.758   7.063  20.390  0.00  0.00    +0.000 A 
ATOM     17  C   UNL     1       2.353   5.831  20.082  0.00  0.00    +0.000 A 
ATOM     18  O   UNL     1       2.171   4.795  21.020  0.00  0.00    +0.000 OA
ENDBRANCH   6  10
ENDBRANCH   1   6
BRANCH   3  19
ATOM     19  C   UNL     1       8.155   7.443  18.235  0.00  0.00    +0.000 C 
BRANCH  19  20
ATOM     20  S   UNL     1       7.475   9.100  17.658  0.00  0.00    +0.000 S 
BRANCH  20  21
ATOM     21  C   UNL     1       8.675  10.328  18.185  0.00  0.00    +0.000 A 
ATOM     22  N   UNL     1       9.503  10.116  19.156  0.00  0.00    +0.000 NA
ATOM     23  C   UNL     1      10.184  11.315  19.322  0.00  0.00    +0.000 A 
ATOM     24  C   UNL     1      11.236  11.658  20.170  0.00  0.00    +0.000 A 
ATOM     25  C   UNL     1      11.951  12.870  19.947  0.00  0.00    +0.000 A 
ATOM     26  C   UNL     1      11.276  14.075  19.790  0.00  0.00    +0.000 A 
ATOM     27  C   UNL     1      10.297  13.727  18.811  0.00  0.00    +0.000 A 
ATOM     28  C   UNL     1       9.675  12.362  18.562  0.00  0.00    +0.000 A 
ATOM     29  N   UNL     1       8.757  11.638  17.732  0.00  0.00    +0.000 N 
ATOM     30  H   UNL     1       8.206  11.999  16.984  0.00  0.00    +0.000 HD
ENDBRANCH  20  21
ENDBRANCH  19  20
ENDBRANCH   3  19
TORSDOF 5
ENDMDL
MODEL 3
REMARK VINA RESULT:      -8.5      5.111      6.933
REMARK  Name = 
REMARK  5 active torsions:
REMARK  status: ('A' for Active; 'I' for Inactive)
REMARK    1  A    between atoms: C_4  and  C_5
REMARK    2  A    between atoms: C_5  and  N_6
REMARK    3  A    between atoms: C_8  and  C_9
REMARK    4  A    between atoms: C_9  and  S_10
REMARK    5  A    between atoms: S_10  and  C_11
REMARK                            x       y       z     vdW  Elec       q    Type
REMARK                         _______ _______ _______ _____ _____    ______ ____
ROOT
ATOM      1  N   UNL     1       6.094   4.681  17.881  0.00  0.00    +0.000 N 
ATOM      2  C   UNL     1       6.736   5.458  18.811  0.00  0.00    +0.000 A 
ATOM      3  C   UNL     1       7.482   6.373  18.092  0.00  0.00    +0.000 A 
ATOM      4  N   UNL     1       7.304   6.081  16.746  0.00  0.00    +0.000 NA
ATOM      5  N   UNL     1       6.461   5.049  16.631  0.00  0.00    +0.000 NA
ENDROOT
BRANCH   1   6
ATOM      6  C   UNL     1       4.916   3.837  18.127  0.00  0.00    +0.000 C 
BRANCH   6  10
ATOM      7  O   UNL     1       1.902   3.356  21.904  0.00  0.00    +0.000 OA
ATOM      8  C   UNL     1       2.364   4.150  21.087  0.00  0.00    +0.000 A 
ATOM      9  C   UNL     1       3.365   3.693  20.091  0.00  0.00    +0.000 A 
ATOM     10  C   UNL     1       3.779   4.420  19.027  0.00  0.00    +0.000 A 
ATOM     11  C   UNL     1       3.206   5.758  18.906  0.00  0.00    +0.000 A 
ATOM     12  C   UNL     1       3.391   6.603  17.822  0.00  0.00    +0.000 A 
ATOM     13  C   UNL     1       3.006   7.933  17.756  0.00  0.00    +0.000 A 
ATOM     14  C   UNL     1       2.206   8.405  18.767  0.00  0.00    +0.000 A 
ATOM     15 CL   UNL     1       1.537   9.984  18.613  0.00  0.00    +0.000 Cl
ATOM     16  C   UNL     1       1.852   7.563  19.839  0.00  0.00    +0.000 A 
ATOM     17  C   UNL     1       2.377   6.265  19.918  0.00  0.00    +0.000 A 
ATOM     18  O   UNL     1       1.902   5.461  20.974  0.00  0.00    +0.000 OA
ENDBRANCH   6  10
ENDBRANCH   1   6
BRANCH   3  19
ATOM     19  C   UNL     1       8.231   7.601  18.588  0.00  0.00    +0.000 C 
BRANCH  19  20
ATOM     20  S   UNL     1       7.790   9.158  17.628  0.00  0.00    +0.000 S 
BRANCH  20  21
ATOM     21  C   UNL     1       8.862  10.447  18.272  0.00  0.00    +0.000 A 
ATOM     22  N   UNL     1       8.746  11.686  17.919  0.00  0.00    +0.000 NA
ATOM     23  C   UNL     1       9.798  12.343  18.543  0.00  0.00    +0.000 A 
ATOM     24  C   UNL     1      10.138  13.695  18.582  0.00  0.00    +0.000 A 
ATOM     25  C   UNL     1      11.099  14.150  19.529  0.00  0.00    +0.000 A 
ATOM     26  C   UNL     1      12.332  13.520  19.650  0.00  0.00    +0.000 A 
ATOM     27  C   UNL     1      11.942  12.151  19.751  0.00  0.00    +0.000 A 
ATOM     28  C   UNL     1      10.700  11.491  19.172  0.00  0.00    +0.000 A 
ATOM     29  N   UNL     1       9.979  10.257  19.075  0.00  0.00    +0.000 N 
ATOM     30  H   UNL     1      10.239   9.374  19.458  0.00  0.00    +0.000 HD
ENDBRANCH  20  21
ENDBRANCH  19  20
ENDBRANCH   3  19
TORSDOF 5
ENDMDL
MODEL 4
REMARK VINA RESULT:      -8.4      0.598      1.159
REMARK  Name = 
REMARK  5 active torsions:
REMARK  status: ('A' for Active; 'I' for Inactive)
REMARK    1  A    between atoms: C_4  and  C_5
REMARK    2  A    between atoms: C_5  and  N_6
REMARK    3  A    between atoms: C_8  and  C_9
REMARK    4  A    between atoms: C_9  and  S_10
REMARK    5  A    between atoms: S_10  and  C_11
REMARK                            x       y       z     vdW  Elec       q    Type
REMARK                         _______ _______ _______ _____ _____    ______ ____
ROOT
ATOM      1  N   UNL     1       1.736   5.450  20.224  0.00  0.00    +0.000 N 
ATOM      2  C   UNL     1       1.909   4.160  20.655  0.00  0.00    +0.000 A 
ATOM      3  C   UNL     1       1.754   3.361  19.537  0.00  0.00    +0.000 A 
ATOM      4  N   UNL     1       1.440   4.198  18.475  0.00  0.00    +0.000 NA
ATOM      5  N   UNL     1       1.428   5.466  18.906  0.00  0.00    +0.000 NA
ENDROOT
BRANCH   1   6
ATOM      6  C   UNL     1       2.168   6.663  20.933  0.00  0.00    +0.000 C 
BRANCH   6  10
ATOM      7  O   UNL     1       2.026   9.843  17.266  0.00  0.00    +0.000 OA
ATOM      8  C   UNL     1       1.553   9.561  18.365  0.00  0.00    +0.000 A 
ATOM      9  C   UNL     1       2.000   8.336  19.075  0.00  0.00    +0.000 A 
ATOM     10  C   UNL     1       1.706   8.043  20.362  0.00  0.00    +0.000 A 
ATOM     11  C   UNL     1       0.855   9.004  21.059  0.00  0.00    +0.000 A 
ATOM     12  C   UNL     1       0.553   8.960  22.411  0.00  0.00    +0.000 A 
ATOM     13  C   UNL     1      -0.383   9.751  23.060  0.00  0.00    +0.000 A 
ATOM     14  C   UNL     1      -0.921  10.795  22.349  0.00  0.00    +0.000 A 
ATOM     15 CL   UNL     1      -1.923  11.921  23.180  0.00  0.00    +0.000 Cl
ATOM     16  C   UNL     1      -0.556  10.996  21.004  0.00  0.00    +0.000 A 
ATOM     17  C   UNL     1       0.297  10.087  20.362  0.00  0.00    +0.000 A 
ATOM     18  O   UNL     1       0.681  10.411  19.044  0.00  0.00    +0.000 OA
ENDBRANCH   6  10
ENDBRANCH   1   6
BRANCH   3  19
ATOM     19  C   UNL     1       2.035   1.875  19.374  0.00  0.00    +0.000 C 
BRANCH  19  20
ATOM     20  S   UNL     1       3.489   1.531  18.229  0.00  0.00    +0.000 S 
BRANCH  20  21
ATOM     21  C   UNL     1       4.411   3.069  18.140  0.00  0.00    +0.000 A 
ATOM     22  N   UNL     1       4.389   3.831  17.095  0.00  0.00    +0.000 NA
ATOM     23  C   UNL     1       5.289   4.852  17.369  0.00  0.00    +0.000 A 
ATOM     24  C   UNL     1       5.628   5.992  16.641  0.00  0.00    +0.000 A 
ATOM     25  C   UNL     1       6.367   7.034  17.270  0.00  0.00    +0.000 A 
ATOM     26  C   UNL     1       7.538   6.754  17.967  0.00  0.00    +0.000 A 
ATOM     27  C   UNL     1       7.120   5.677  18.804  0.00  0.00    +0.000 A 
ATOM     28  C   UNL     1       6.024   4.657  18.533  0.00  0.00    +0.000 A 
ATOM     29  N   UNL     1       5.327   3.530  19.077  0.00  0.00    +0.000 N 
ATOM     30  H   UNL     1       5.489   3.086  19.955  0.00  0.00    +0.000 HD
ENDBRANCH  20  21
ENDBRANCH  19  20
ENDBRANCH   3  19
TORSDOF 5
ENDMDL
MODEL 5
REMARK VINA RESULT:      -8.4      3.131      4.149
REMARK  Name = 
REMARK  5 active torsions:
REMARK  status: ('A' for Active; 'I' for Inactive)
REMARK    1  A    between atoms: C_4  and  C_5
REMARK    2  A    between atoms: C_5  and  N_6
REMARK    3  A    between atoms: C_8  and  C_9
REMARK    4  A    between atoms: C_9  and  S_10
REMARK    5  A    between atoms: S_10  and  C_11
REMARK                            x       y       z     vdW  Elec       q    Type
REMARK                         _______ _______ _______ _____ _____    ______ ____
ROOT
ATOM      1  N   UNL     1       2.300   8.220  18.525  0.00  0.00    +0.000 N 
ATOM      2  C   UNL     1       3.105   7.292  17.916  0.00  0.00    +0.000 A 
ATOM      3  C   UNL     1       3.155   6.210  18.775  0.00  0.00    +0.000 A 
ATOM      4  N   UNL     1       2.417   6.546  19.902  0.00  0.00    +0.000 NA
ATOM      5  N   UNL     1       1.905   7.772  19.739  0.00  0.00    +0.000 NA
ENDROOT
BRANCH   1   6
ATOM      6  C   UNL     1       1.640   9.356  17.865  0.00  0.00    +0.000 C 
BRANCH   6  10
ATOM      7  O   UNL     1       0.634  12.119  21.730  0.00  0.00    +0.000 OA
ATOM      8  C   UNL     1       0.214  11.728  20.643  0.00  0.00    +0.000 A 
ATOM      9  C   UNL     1       1.048  10.833  19.802  0.00  0.00    +0.000 A 
ATOM     10  C   UNL     1       0.609  10.182  18.700  0.00  0.00    +0.000 A 
ATOM     11  C   UNL     1      -0.779  10.434  18.320  0.00  0.00    +0.000 A 
ATOM     12  C   UNL     1      -1.458   9.765  17.313  0.00  0.00    +0.000 A 
ATOM     13  C   UNL     1      -2.710  10.099  16.819  0.00  0.00    +0.000 A 
ATOM     14  C   UNL     1      -3.422  11.048  17.507  0.00  0.00    +0.000 A 
ATOM     15 CL   UNL     1      -5.057  11.337  17.050  0.00  0.00    +0.000 Cl
ATOM     16  C   UNL     1      -2.857  11.677  18.633  0.00  0.00    +0.000 A 
ATOM     17  C   UNL     1      -1.537  11.392  19.011  0.00  0.00    +0.000 A 
ATOM     18  O   UNL     1      -1.080  11.998  20.199  0.00  0.00    +0.000 OA
ENDBRANCH   6  10
ENDBRANCH   1   6
BRANCH   3  19
ATOM     19  C   UNL     1       3.727   4.821  18.536  0.00  0.00    +0.000 C 
BRANCH  19  20
ATOM     20  S   UNL     1       5.609   4.797  18.553  0.00  0.00    +0.000 S 
BRANCH  20  21
ATOM     21  C   UNL     1       6.108   4.584  16.842  0.00  0.00    +0.000 A 
ATOM     22  N   UNL     1       6.768   5.488  16.194  0.00  0.00    +0.000 NA
ATOM     23  C   UNL     1       6.875   5.003  14.897  0.00  0.00    +0.000 A 
ATOM     24  C   UNL     1       7.538   5.515  13.782  0.00  0.00    +0.000 A 
ATOM     25  C   UNL     1       7.738   4.684  12.642  0.00  0.00    +0.000 A 
ATOM     26  C   UNL     1       6.678   3.985  12.077  0.00  0.00    +0.000 A 
ATOM     27  C   UNL     1       6.107   3.359  13.225  0.00  0.00    +0.000 A 
ATOM     28  C   UNL     1       6.133   3.851  14.664  0.00  0.00    +0.000 A 
ATOM     29  N   UNL     1       5.740   3.537  16.006  0.00  0.00    +0.000 N 
ATOM     30  H   UNL     1       5.231   2.737  16.314  0.00  0.00    +0.000 HD
ENDBRANCH  20  21
ENDBRANCH  19  20
ENDBRANCH   3  19
TORSDOF 5
ENDMDL
MODEL 6
REMARK VINA RESULT:      -8.3      5.033      9.069
REMARK  Name = 
REMARK  5 active torsions:
REMARK  status: ('A' for Active; 'I' for Inactive)
REMARK    1  A    between atoms: C_4  and  C_5
REMARK    2  A    between atoms: C_5  and  N_6
REMARK    3  A    between atoms: C_8  and  C_9
REMARK    4  A    between atoms: C_9  and  S_10
REMARK    5  A    between atoms: S_10  and  C_11
REMARK                            x       y       z     vdW  Elec       q    Type
REMARK                         _______ _______ _______ _____ _____    ______ ____
ROOT
ATOM      1  N   UNL     1       1.616   7.303  20.260  0.00  0.00    +0.000 N 
ATOM      2  C   UNL     1       1.845   7.943  19.069  0.00  0.00    +0.000 A 
ATOM      3  C   UNL     1       1.459   9.257  19.263  0.00  0.00    +0.000 A 
ATOM      4  N   UNL     1       0.959   9.351  20.554  0.00  0.00    +0.000 NA
ATOM      5  N   UNL     1       1.057   8.156  21.150  0.00  0.00    +0.000 NA
ENDROOT
BRANCH   1   6
ATOM      6  C   UNL     1       2.203   6.021  20.677  0.00  0.00    +0.000 C 
BRANCH   6  10
ATOM      7  O   UNL     1       0.304   2.123  18.490  0.00  0.00    +0.000 OA
ATOM      8  C   UNL     1       1.189   2.973  18.428  0.00  0.00    +0.000 A 
ATOM      9  C   UNL     1       1.272   4.038  19.459  0.00  0.00    +0.000 A 
ATOM     10  C   UNL     1       2.313   4.889  19.605  0.00  0.00    +0.000 A 
ATOM     11  C   UNL     1       3.396   4.745  18.636  0.00  0.00    +0.000 A 
ATOM     12  C   UNL     1       4.605   5.420  18.694  0.00  0.00    +0.000 A 
ATOM     13  C   UNL     1       5.575   5.435  17.703  0.00  0.00    +0.000 A 
ATOM     14  C   UNL     1       5.417   4.558  16.659  0.00  0.00    +0.000 A 
ATOM     15 CL   UNL     1       6.700   4.397  15.523  0.00  0.00    +0.000 Cl
ATOM     16  C   UNL     1       4.280   3.729  16.599  0.00  0.00    +0.000 A 
ATOM     17  C   UNL     1       3.268   3.850  17.562  0.00  0.00    +0.000 A 
ATOM     18  O   UNL     1       2.209   2.923  17.479  0.00  0.00    +0.000 OA
ENDBRANCH   6  10
ENDBRANCH   1   6
BRANCH   3  19
ATOM     19  C   UNL     1       1.673  10.462  18.360  0.00  0.00    +0.000 C 
BRANCH  19  20
ATOM     20  S   UNL     1       0.984  12.052  19.096  0.00  0.00    +0.000 S 
BRANCH  20  21
ATOM     21  C   UNL     1      -0.775  12.031  18.739  0.00  0.00    +0.000 A 
ATOM     22  N   UNL     1      -1.670  12.228  19.652  0.00  0.00    +0.000 NA
ATOM     23  C   UNL     1      -2.889  12.038  19.014  0.00  0.00    +0.000 A 
ATOM     24  C   UNL     1      -4.196  12.183  19.478  0.00  0.00    +0.000 A 
ATOM     25  C   UNL     1      -5.273  12.208  18.547  0.00  0.00    +0.000 A 
ATOM     26  C   UNL     1      -5.398  11.220  17.578  0.00  0.00    +0.000 A 
ATOM     27  C   UNL     1      -4.083  11.195  17.026  0.00  0.00    +0.000 A 
ATOM     28  C   UNL     1      -2.776  11.550  17.717  0.00  0.00    +0.000 A 
ATOM     29  N   UNL     1      -1.361  11.677  17.531  0.00  0.00    +0.000 N 
ATOM     30  H   UNL     1      -0.842  11.490  16.700  0.00  0.00    +0.000 HD
ENDBRANCH  20  21
ENDBRANCH  19  20
ENDBRANCH   3  19
TORSDOF 5
ENDMDL
MODEL 7
REMARK VINA RESULT:      -8.3      5.219      9.441
REMARK  Name = 
REMARK  5 active torsions:
REMARK  status: ('A' for Active; 'I' for Inactive)
REMARK    1  A    between atoms: C_4  and  C_5
REMARK    2  A    between atoms: C_5  and  N_6
REMARK    3  A    between atoms: C_8  and  C_9
REMARK    4  A    between atoms: C_9  and  S_10
REMARK    5  A    between atoms: S_10  and  C_11
REMARK                            x       y       z     vdW  Elec       q    Type
REMARK                         _______ _______ _______ _____ _____    ______ ____
ROOT
ATOM      1  N   UNL     1       1.891   7.398  20.428  0.00  0.00    +0.000 N 
ATOM      2  C   UNL     1       1.261   8.400  21.121  0.00  0.00    +0.000 A 
ATOM      3  C   UNL     1       0.950   9.371  20.187  0.00  0.00    +0.000 A 
ATOM      4  N   UNL     1       1.454   8.942  18.967  0.00  0.00    +0.000 NA
ATOM      5  N   UNL     1       2.027   7.743  19.127  0.00  0.00    +0.000 NA
ENDROOT
BRANCH   1   6
ATOM      6  C   UNL     1       2.071   6.013  20.886  0.00  0.00    +0.000 C 
BRANCH   6  10
ATOM      7  O   UNL     1       0.312   2.227  18.406  0.00  0.00    +0.000 OA
ATOM      8  C   UNL     1       1.220   3.054  18.459  0.00  0.00    +0.000 A 
ATOM      9  C   UNL     1       1.222   4.089  19.523  0.00  0.00    +0.000 A 
ATOM     10  C   UNL     1       2.263   4.907  19.798  0.00  0.00    +0.000 A 
ATOM     11  C   UNL     1       3.437   4.759  18.941  0.00  0.00    +0.000 A 
ATOM     12  C   UNL     1       4.649   5.399  19.141  0.00  0.00    +0.000 A 
ATOM     13  C   UNL     1       5.716   5.413  18.254  0.00  0.00    +0.000 A 
ATOM     14  C   UNL     1       5.644   4.569  17.175  0.00  0.00    +0.000 A 
ATOM     15 CL   UNL     1       7.032   4.403  16.171  0.00  0.00    +0.000 Cl
ATOM     16  C   UNL     1       4.499   3.774  16.976  0.00  0.00    +0.000 A 
ATOM     17  C   UNL     1       3.397   3.896  17.835  0.00  0.00    +0.000 A 
ATOM     18  O   UNL     1       2.330   3.001  17.617  0.00  0.00    +0.000 OA
ENDBRANCH   6  10
ENDBRANCH   1   6
BRANCH   3  19
ATOM     19  C   UNL     1       0.075  10.606  20.342  0.00  0.00    +0.000 C 
BRANCH  19  20
ATOM     20  S   UNL     1      -0.163  11.535  18.723  0.00  0.00    +0.000 S 
BRANCH  20  21
ATOM     21  C   UNL     1      -1.929  11.828  18.586  0.00  0.00    +0.000 A 
ATOM     22  N   UNL     1      -2.685  12.005  19.620  0.00  0.00    +0.000 NA
ATOM     23  C   UNL     1      -3.976  12.098  19.117  0.00  0.00    +0.000 A 
ATOM     24  C   UNL     1      -5.189  12.356  19.754  0.00  0.00    +0.000 A 
ATOM     25  C   UNL     1      -6.335  12.686  18.975  0.00  0.00    +0.000 A 
ATOM     26  C   UNL     1      -6.715  11.894  17.898  0.00  0.00    +0.000 A 
ATOM     27  C   UNL     1      -5.482  11.767  17.190  0.00  0.00    +0.000 A 
ATOM     28  C   UNL     1      -4.073  11.813  17.760  0.00  0.00    +0.000 A 
ATOM     29  N   UNL     1      -2.681  11.761  17.421  0.00  0.00    +0.000 N 
ATOM     30  H   UNL     1      -2.285  11.636  16.514  0.00  0.00    +0.000 HD
ENDBRANCH  20  21
ENDBRANCH  19  20
ENDBRANCH   3  19
TORSDOF 5
ENDMDL
MODEL 8
REMARK VINA RESULT:      -8.3      5.129      8.835
REMARK  Name = 
REMARK  5 active torsions:
REMARK  status: ('A' for Active; 'I' for Inactive)
REMARK    1  A    between atoms: C_4  and  C_5
REMARK    2  A    between atoms: C_5  and  N_6
REMARK    3  A    between atoms: C_8  and  C_9
REMARK    4  A    between atoms: C_9  and  S_10
REMARK    5  A    between atoms: S_10  and  C_11
REMARK                            x       y       z     vdW  Elec       q    Type
REMARK                         _______ _______ _______ _____ _____    ______ ____
ROOT
ATOM      1  N   UNL     1       1.323   8.325  20.995  0.00  0.00    +0.000 N 
ATOM      2  C   UNL     1       0.041   8.760  21.214  0.00  0.00    +0.000 A 
ATOM      3  C   UNL     1       0.111   9.623  22.292  0.00  0.00    +0.000 A 
ATOM      4  N   UNL     1       1.431   9.637  22.721  0.00  0.00    +0.000 NA
ATOM      5  N   UNL     1       2.158   8.842  21.927  0.00  0.00    +0.000 NA
ENDROOT
BRANCH   1   6
ATOM      6  C   UNL     1       1.826   7.709  19.760  0.00  0.00    +0.000 C 
BRANCH   6  10
ATOM      7  O   UNL     1       2.039   3.428  22.044  0.00  0.00    +0.000 OA
ATOM      8  C   UNL     1       2.330   4.026  21.011  0.00  0.00    +0.000 A 
ATOM      9  C   UNL     1       1.953   5.453  20.845  0.00  0.00    +0.000 A 
ATOM     10  C   UNL     1       2.398   6.256  19.852  0.00  0.00    +0.000 A 
ATOM     11  C   UNL     1       3.280   5.630  18.870  0.00  0.00    +0.000 A 
ATOM     12  C   UNL     1       3.949   6.307  17.863  0.00  0.00    +0.000 A 
ATOM     13  C   UNL     1       4.649   5.722  16.819  0.00  0.00    +0.000 A 
ATOM     14  C   UNL     1       4.863   4.368  16.890  0.00  0.00    +0.000 A 
ATOM     15 CL   UNL     1       5.903   3.641  15.726  0.00  0.00    +0.000 Cl
ATOM     16  C   UNL     1       4.335   3.625  17.962  0.00  0.00    +0.000 A 
ATOM     17  C   UNL     1       3.525   4.249  18.922  0.00  0.00    +0.000 A 
ATOM     18  O   UNL     1       3.111   3.452  20.008  0.00  0.00    +0.000 OA
ENDBRANCH   6  10
ENDBRANCH   1   6
BRANCH   3  19
ATOM     19  C   UNL     1      -0.957  10.553  22.847  0.00  0.00    +0.000 C 
BRANCH  19  20
ATOM     20  S   UNL     1      -1.146  12.129  21.836  0.00  0.00    +0.000 S 
BRANCH  20  21
ATOM     21  C   UNL     1      -1.843  11.618  20.263  0.00  0.00    +0.000 A 
ATOM     22  N   UNL     1      -1.163  10.954  19.385  0.00  0.00    +0.000 NA
ATOM     23  C   UNL     1      -2.003  10.838  18.285  0.00  0.00    +0.000 A 
ATOM     24  C   UNL     1      -1.834  10.168  17.074  0.00  0.00    +0.000 A 
ATOM     25  C   UNL     1      -2.958   9.959  16.225  0.00  0.00    +0.000 A 
ATOM     26  C   UNL     1      -3.795  11.014  15.880  0.00  0.00    +0.000 A 
ATOM     27  C   UNL     1      -4.063  11.593  17.156  0.00  0.00    +0.000 A 
ATOM     28  C   UNL     1      -3.175  11.577  18.391  0.00  0.00    +0.000 A 
ATOM     29  N   UNL     1      -3.088  11.979  19.764  0.00  0.00    +0.000 N 
ATOM     30  H   UNL     1      -3.766  12.489  20.288  0.00  0.00    +0.000 HD
ENDBRANCH  20  21
ENDBRANCH  19  20
ENDBRANCH   3  19
TORSDOF 5
ENDMDL
MODEL 9
REMARK VINA RESULT:      -8.2      1.570      1.898
REMARK  Name = 
REMARK  5 active torsions:
REMARK  status: ('A' for Active; 'I' for Inactive)
REMARK    1  A    between atoms: C_4  and  C_5
REMARK    2  A    between atoms: C_5  and  N_6
REMARK    3  A    between atoms: C_8  and  C_9
REMARK    4  A    between atoms: C_9  and  S_10
REMARK    5  A    between atoms: S_10  and  C_11
REMARK                            x       y       z     vdW  Elec       q    Type
REMARK                         _______ _______ _______ _____ _____    ______ ____
ROOT
ATOM      1  N   UNL     1       1.707   5.153  20.783  0.00  0.00    +0.000 N 
ATOM      2  C   UNL     1       2.839   4.409  20.567  0.00  0.00    +0.000 A 
ATOM      3  C   UNL     1       2.430   3.286  19.872  0.00  0.00    +0.000 A 
ATOM      4  N   UNL     1       1.051   3.366  19.739  0.00  0.00    +0.000 NA
ATOM      5  N   UNL     1       0.622   4.504  20.299  0.00  0.00    +0.000 NA
ENDROOT
BRANCH   1   6
ATOM      6  C   UNL     1       1.666   6.579  21.132  0.00  0.00    +0.000 C 
BRANCH   6  10
ATOM      7  O   UNL     1       3.429   7.767  16.766  0.00  0.00    +0.000 OA
ATOM      8  C   UNL     1       2.632   8.088  17.644  0.00  0.00    +0.000 A 
ATOM      9  C   UNL     1       2.490   7.252  18.863  0.00  0.00    +0.000 A 
ATOM     10  C   UNL     1       1.805   7.616  19.971  0.00  0.00    +0.000 A 
ATOM     11  C   UNL     1       1.139   8.915  19.912  0.00  0.00    +0.000 A 
ATOM     12  C   UNL     1       0.508   9.530  20.982  0.00  0.00    +0.000 A 
ATOM     13  C   UNL     1      -0.276  10.672  20.914  0.00  0.00    +0.000 A 
ATOM     14  C   UNL     1      -0.273  11.364  19.729  0.00  0.00    +0.000 A 
ATOM     15 CL   UNL     1      -1.061  12.893  19.672  0.00  0.00    +0.000 Cl
ATOM     16  C   UNL     1       0.463  10.880  18.631  0.00  0.00    +0.000 A 
ATOM     17  C   UNL     1       1.133   9.651  18.717  0.00  0.00    +0.000 A 
ATOM     18  O   UNL     1       1.917   9.285  17.604  0.00  0.00    +0.000 OA
ENDBRANCH   6  10
ENDBRANCH   1   6
BRANCH   3  19
ATOM     19  C   UNL     1       3.274   2.218  19.193  0.00  0.00    +0.000 C 
BRANCH  19  20
ATOM     20  S   UNL     1       3.756   2.682  17.434  0.00  0.00    +0.000 S 
BRANCH  20  21
ATOM     21  C   UNL     1       5.005   3.961  17.593  0.00  0.00    +0.000 A 
ATOM     22  N   UNL     1       5.707   4.115  18.669  0.00  0.00    +0.000 NA
ATOM     23  C   UNL     1       6.477   5.248  18.443  0.00  0.00    +0.000 A 
ATOM     24  C   UNL     1       7.465   5.852  19.221  0.00  0.00    +0.000 A 
ATOM     25  C   UNL     1       8.310   6.840  18.639  0.00  0.00    +0.000 A 
ATOM     26  C   UNL     1       7.771   7.912  17.938  0.00  0.00    +0.000 A 
ATOM     27  C   UNL     1       6.869   7.249  17.054  0.00  0.00    +0.000 A 
ATOM     28  C   UNL     1       6.149   5.928  17.276  0.00  0.00    +0.000 A 
ATOM     29  N   UNL     1       5.257   4.978  16.681  0.00  0.00    +0.000 N 
ATOM     30  H   UNL     1       4.822   5.036  15.786  0.00  0.00    +0.000 HD
ENDBRANCH  20  21
ENDBRANCH  19  20
ENDBRANCH   3  19
TORSDOF 5
ENDMDL
