MODEL 1
REMARK VINA RESULT:      -7.3      0.000      0.000
REMARK  Name = 
REMARK  5 active torsions:
REMARK  status: ('A' for Active; 'I' for Inactive)
REMARK    1  A    between atoms: C_1  and  C_2
REMARK    2  A    between atoms: C_2  and  N_3
REMARK    3  A    between atoms: C_11  and  N_12
REMARK    4  A    between atoms: N_12  and  S_13
REMARK    5  A    between atoms: S_13  and  C_16
REMARK                            x       y       z     vdW  Elec       q    Type
REMARK                         _______ _______ _______ _____ _____    ______ ____
ROOT
ATOM      1  N   UNL     1       2.029   4.211  19.939  0.00  0.00    +0.000 N 
ATOM      2  C   UNL     1       1.679   5.561  20.215  0.00  0.00    +0.000 C 
ATOM      3  O   UNL     1       0.941   5.942  21.108  0.00  0.00    +0.000 OA
ATOM      4  C   UNL     1       2.386   6.287  19.181  0.00  0.00    +0.000 A 
ATOM      5  C   UNL     1       2.448   7.655  18.920  0.00  0.00    +0.000 A 
ATOM      6  C   UNL     1       3.209   8.055  17.811  0.00  0.00    +0.000 A 
ATOM      7  C   UNL     1       3.872   7.122  16.989  0.00  0.00    +0.000 A 
ATOM      8  C   UNL     1       3.789   5.739  17.258  0.00  0.00    +0.000 A 
ATOM      9  C   UNL     1       4.347   4.655  16.546  0.00  0.00    +0.000 A 
ATOM     10  C   UNL     1       4.192   3.330  17.023  0.00  0.00    +0.000 A 
ATOM     11  C   UNL     1       3.429   3.033  18.172  0.00  0.00    +0.000 A 
ATOM     12  C   UNL     1       2.854   4.118  18.816  0.00  0.00    +0.000 A 
ATOM     13  C   UNL     1       3.057   5.401  18.359  0.00  0.00    +0.000 A 
ENDROOT
BRANCH   1  15
ATOM     14  C   UNL     1       2.282   2.663  21.825  0.00  0.00    +0.000 C 
ATOM     15  C   UNL     1       1.430   3.103  20.644  0.00  0.00    +0.000 C 
ENDBRANCH   1  15
BRANCH   9  16
ATOM     16  N   UNL     1       5.108   4.925  15.375  0.00  0.00    +0.000 N 
ATOM     17  H   UNL     1       4.740   5.580  14.689  0.00  0.00    +0.000 HD
BRANCH  16  18
ATOM     18  S   UNL     1       6.787   4.859  15.450  0.00  0.00    +0.000 S 
ATOM     19  O   UNL     1       7.132   3.473  15.688  0.00  0.00    +0.000 OA
ATOM     20  O   UNL     1       7.363   5.592  14.343  0.00  0.00    +0.000 OA
BRANCH  18  21
ATOM     21  C   UNL     1       7.307   5.738  16.906  0.00  0.00    +0.000 A 
ATOM     22  C   UNL     1       7.539   7.079  17.148  0.00  0.00    +0.000 A 
ATOM     23  C   UNL     1       7.995   7.322  18.477  0.00  0.00    +0.000 A 
ATOM     24  C   UNL     1       8.076   6.160  19.213  0.00  0.00    +0.000 A 
ATOM     25  S   UNL     1       7.608   4.790  18.302  0.00  0.00    +0.000 S 
ENDBRANCH  18  21
ENDBRANCH  16  18
ENDBRANCH   9  16
TORSDOF 4
ENDMDL
MODEL 2
REMARK VINA RESULT:      -6.8      2.514      6.013
REMARK  Name = 
REMARK  5 active torsions:
REMARK  status: ('A' for Active; 'I' for Inactive)
REMARK    1  A    between atoms: C_1  and  C_2
REMARK    2  A    between atoms: C_2  and  N_3
REMARK    3  A    between atoms: C_11  and  N_12
REMARK    4  A    between atoms: N_12  and  S_13
REMARK    5  A    between atoms: S_13  and  C_16
REMARK                            x       y       z     vdW  Elec       q    Type
REMARK                         _______ _______ _______ _____ _____    ______ ____
ROOT
ATOM      1  N   UNL     1       6.191   4.148  14.689  0.00  0.00    +0.000 N 
ATOM      2  C   UNL     1       7.177   5.144  14.925  0.00  0.00    +0.000 C 
ATOM      3  O   UNL     1       7.986   5.559  14.113  0.00  0.00    +0.000 OA
ATOM      4  C   UNL     1       6.964   5.472  16.319  0.00  0.00    +0.000 A 
ATOM      5  C   UNL     1       7.617   6.391  17.140  0.00  0.00    +0.000 A 
ATOM      6  C   UNL     1       7.192   6.461  18.476  0.00  0.00    +0.000 A 
ATOM      7  C   UNL     1       6.163   5.636  18.973  0.00  0.00    +0.000 A 
ATOM      8  C   UNL     1       5.521   4.701  18.133  0.00  0.00    +0.000 A 
ATOM      9  C   UNL     1       4.503   3.774  18.443  0.00  0.00    +0.000 A 
ATOM     10  C   UNL     1       3.947   2.957  17.427  0.00  0.00    +0.000 A 
ATOM     11  C   UNL     1       4.425   2.982  16.101  0.00  0.00    +0.000 A 
ATOM     12  C   UNL     1       5.460   3.870  15.845  0.00  0.00    +0.000 A 
ATOM     13  C   UNL     1       5.952   4.687  16.839  0.00  0.00    +0.000 A 
ENDROOT
BRANCH   1  15
ATOM     14  C   UNL     1       5.000   3.922  12.556  0.00  0.00    +0.000 C 
ATOM     15  C   UNL     1       6.123   3.414  13.447  0.00  0.00    +0.000 C 
ENDBRANCH   1  15
BRANCH   9  16
ATOM     16  N   UNL     1       4.012   3.716  19.777  0.00  0.00    +0.000 N 
ATOM     17  H   UNL     1       4.670   3.811  20.547  0.00  0.00    +0.000 HD
BRANCH  16  18
ATOM     18  S   UNL     1       2.459   4.270  20.109  0.00  0.00    +0.000 S 
ATOM     19  O   UNL     1       1.556   3.443  19.336  0.00  0.00    +0.000 OA
ATOM     20  O   UNL     1       2.285   4.433  21.537  0.00  0.00    +0.000 OA
BRANCH  18  21
ATOM     21  C   UNL     1       2.303   5.908  19.434  0.00  0.00    +0.000 A 
ATOM     22  C   UNL     1       2.504   6.411  18.162  0.00  0.00    +0.000 A 
ATOM     23  C   UNL     1       2.298   7.820  18.095  0.00  0.00    +0.000 A 
ATOM     24  C   UNL     1       1.925   8.343  19.313  0.00  0.00    +0.000 A 
ATOM     25  S   UNL     1       1.829   7.141  20.525  0.00  0.00    +0.000 S 
ENDBRANCH  18  21
ENDBRANCH  16  18
ENDBRANCH   9  16
TORSDOF 4
ENDMDL
MODEL 3
REMARK VINA RESULT:      -6.8      4.157      6.808
REMARK  Name = 
REMARK  5 active torsions:
REMARK  status: ('A' for Active; 'I' for Inactive)
REMARK    1  A    between atoms: C_1  and  C_2
REMARK    2  A    between atoms: C_2  and  N_3
REMARK    3  A    between atoms: C_11  and  N_12
REMARK    4  A    between atoms: N_12  and  S_13
REMARK    5  A    between atoms: S_13  and  C_16
REMARK                            x       y       z     vdW  Elec       q    Type
REMARK                         _______ _______ _______ _____ _____    ______ ____
ROOT
ATOM      1  N   UNL     1       4.267   4.297  17.181  0.00  0.00    +0.000 N 
ATOM      2  C   UNL     1       3.727   3.242  17.966  0.00  0.00    +0.000 C 
ATOM      3  O   UNL     1       3.933   2.051  17.805  0.00  0.00    +0.000 OA
ATOM      4  C   UNL     1       2.901   3.951  18.920  0.00  0.00    +0.000 A 
ATOM      5  C   UNL     1       2.112   3.470  19.964  0.00  0.00    +0.000 A 
ATOM      6  C   UNL     1       1.397   4.421  20.708  0.00  0.00    +0.000 A 
ATOM      7  C   UNL     1       1.460   5.797  20.413  0.00  0.00    +0.000 A 
ATOM      8  C   UNL     1       2.253   6.268  19.344  0.00  0.00    +0.000 A 
ATOM      9  C   UNL     1       2.424   7.587  18.873  0.00  0.00    +0.000 A 
ATOM     10  C   UNL     1       3.324   7.856  17.811  0.00  0.00    +0.000 A 
ATOM     11  C   UNL     1       4.022   6.829  17.143  0.00  0.00    +0.000 A 
ATOM     12  C   UNL     1       3.790   5.540  17.601  0.00  0.00    +0.000 A 
ATOM     13  C   UNL     1       2.947   5.309  18.665  0.00  0.00    +0.000 A 
ENDROOT
BRANCH   1  15
ATOM     14  C   UNL     1       6.530   4.327  16.234  0.00  0.00    +0.000 C 
ATOM     15  C   UNL     1       5.054   4.048  15.996  0.00  0.00    +0.000 C 
ENDBRANCH   1  15
BRANCH   9  16
ATOM     16  N   UNL     1       1.720   8.641  19.517  0.00  0.00    +0.000 N 
ATOM     17  H   UNL     1       2.009   8.928  20.450  0.00  0.00    +0.000 HD
BRANCH  16  18
ATOM     18  S   UNL     1       1.037   9.866  18.588  0.00  0.00    +0.000 S 
ATOM     19  O   UNL     1       2.112  10.779  18.260  0.00  0.00    +0.000 OA
ATOM     20  O   UNL     1       0.200   9.296  17.554  0.00  0.00    +0.000 OA
BRANCH  18  21
ATOM     21  C   UNL     1      -0.074  10.789  19.626  0.00  0.00    +0.000 A 
ATOM     22  C   UNL     1      -0.142  10.954  20.998  0.00  0.00    +0.000 A 
ATOM     23  C   UNL     1      -1.248  11.762  21.394  0.00  0.00    +0.000 A 
ATOM     24  C   UNL     1      -1.975  12.205  20.312  0.00  0.00    +0.000 A 
ATOM     25  S   UNL     1      -1.327  11.645  18.831  0.00  0.00    +0.000 S 
ENDBRANCH  18  21
ENDBRANCH  16  18
ENDBRANCH   9  16
TORSDOF 4
ENDMDL
MODEL 4
REMARK VINA RESULT:      -6.7      3.827      6.333
REMARK  Name = 
REMARK  5 active torsions:
REMARK  status: ('A' for Active; 'I' for Inactive)
REMARK    1  A    between atoms: C_1  and  C_2
REMARK    2  A    between atoms: C_2  and  N_3
REMARK    3  A    between atoms: C_11  and  N_12
REMARK    4  A    between atoms: N_12  and  S_13
REMARK    5  A    between atoms: S_13  and  C_16
REMARK                            x       y       z     vdW  Elec       q    Type
REMARK                         _______ _______ _______ _____ _____    ______ ____
ROOT
ATOM      1  N   UNL     1       4.190   4.378  17.176  0.00  0.00    +0.000 N 
ATOM      2  C   UNL     1       3.650   3.278  17.897  0.00  0.00    +0.000 C 
ATOM      3  O   UNL     1       3.848   2.099  17.659  0.00  0.00    +0.000 OA
ATOM      4  C   UNL     1       2.838   3.931  18.903  0.00  0.00    +0.000 A 
ATOM      5  C   UNL     1       2.055   3.388  19.921  0.00  0.00    +0.000 A 
ATOM      6  C   UNL     1       1.352   4.294  20.731  0.00  0.00    +0.000 A 
ATOM      7  C   UNL     1       1.421   5.686  20.522  0.00  0.00    +0.000 A 
ATOM      8  C   UNL     1       2.207   6.219  19.478  0.00  0.00    +0.000 A 
ATOM      9  C   UNL     1       2.382   7.565  19.090  0.00  0.00    +0.000 A 
ATOM     10  C   UNL     1       3.273   7.895  18.039  0.00  0.00    +0.000 A 
ATOM     11  C   UNL     1       3.959   6.909  17.301  0.00  0.00    +0.000 A 
ATOM     12  C   UNL     1       3.724   5.595  17.678  0.00  0.00    +0.000 A 
ATOM     13  C   UNL     1       2.889   5.301  18.733  0.00  0.00    +0.000 A 
ENDROOT
BRANCH   1  15
ATOM     14  C   UNL     1       6.457   4.314  16.241  0.00  0.00    +0.000 C 
ATOM     15  C   UNL     1       4.965   4.200  15.970  0.00  0.00    +0.000 C 
ENDBRANCH   1  15
BRANCH   9  16
ATOM     16  N   UNL     1       1.689   8.579  19.806  0.00  0.00    +0.000 N 
ATOM     17  H   UNL     1       2.114   8.965  20.647  0.00  0.00    +0.000 HD
BRANCH  16  18
ATOM     18  S   UNL     1       0.696   9.648  18.970  0.00  0.00    +0.000 S 
ATOM     19  O   UNL     1       0.687   9.205  17.591  0.00  0.00    +0.000 OA
ATOM     20  O   UNL     1      -0.539   9.851  19.696  0.00  0.00    +0.000 OA
BRANCH  18  21
ATOM     21  C   UNL     1       1.490  11.240  18.954  0.00  0.00    +0.000 A 
ATOM     22  C   UNL     1       2.302  11.863  18.024  0.00  0.00    +0.000 A 
ATOM     23  C   UNL     1       2.752  13.142  18.466  0.00  0.00    +0.000 A 
ATOM     24  C   UNL     1       2.253  13.462  19.709  0.00  0.00    +0.000 A 
ATOM     25  S   UNL     1       1.252  12.225  20.335  0.00  0.00    +0.000 S 
ENDBRANCH  18  21
ENDBRANCH  16  18
ENDBRANCH   9  16
TORSDOF 4
ENDMDL
MODEL 5
REMARK VINA RESULT:      -6.7      1.223      2.871
REMARK  Name = 
REMARK  5 active torsions:
REMARK  status: ('A' for Active; 'I' for Inactive)
REMARK    1  A    between atoms: C_1  and  C_2
REMARK    2  A    between atoms: C_2  and  N_3
REMARK    3  A    between atoms: C_11  and  N_12
REMARK    4  A    between atoms: N_12  and  S_13
REMARK    5  A    between atoms: S_13  and  C_16
REMARK                            x       y       z     vdW  Elec       q    Type
REMARK                         _______ _______ _______ _____ _____    ______ ____
ROOT
ATOM      1  N   UNL     1       2.182   6.361  19.836  0.00  0.00    +0.000 N 
ATOM      2  C   UNL     1       1.824   5.028  20.178  0.00  0.00    +0.000 C 
ATOM      3  O   UNL     1       1.196   4.686  21.166  0.00  0.00    +0.000 OA
ATOM      4  C   UNL     1       2.407   4.259  19.098  0.00  0.00    +0.000 A 
ATOM      5  C   UNL     1       2.395   2.885  18.861  0.00  0.00    +0.000 A 
ATOM      6  C   UNL     1       3.083   2.434  17.724  0.00  0.00    +0.000 A 
ATOM      7  C   UNL     1       3.765   3.320  16.866  0.00  0.00    +0.000 A 
ATOM      8  C   UNL     1       3.779   4.707  17.128  0.00  0.00    +0.000 A 
ATOM      9  C   UNL     1       4.422   5.743  16.417  0.00  0.00    +0.000 A 
ATOM     10  C   UNL     1       4.259   7.092  16.818  0.00  0.00    +0.000 A 
ATOM     11  C   UNL     1       3.519   7.449  17.965  0.00  0.00    +0.000 A 
ATOM     12  C   UNL     1       2.943   6.399  18.667  0.00  0.00    +0.000 A 
ATOM     13  C   UNL     1       3.078   5.100  18.230  0.00  0.00    +0.000 A 
ENDROOT
BRANCH   1  15
ATOM     14  C   UNL     1       1.161   8.584  20.017  0.00  0.00    +0.000 C 
ATOM     15  C   UNL     1       1.929   7.475  20.719  0.00  0.00    +0.000 C 
ENDBRANCH   1  15
BRANCH   9  16
ATOM     16  N   UNL     1       5.188   5.411  15.266  0.00  0.00    +0.000 N 
ATOM     17  H   UNL     1       4.988   5.886  14.389  0.00  0.00    +0.000 HD
BRANCH  16  18
ATOM     18  S   UNL     1       6.787   4.924  15.452  0.00  0.00    +0.000 S 
ATOM     19  O   UNL     1       6.770   3.477  15.510  0.00  0.00    +0.000 OA
ATOM     20  O   UNL     1       7.631   5.623  14.507  0.00  0.00    +0.000 OA
BRANCH  18  21
ATOM     21  C   UNL     1       7.343   5.461  17.054  0.00  0.00    +0.000 A 
ATOM     22  C   UNL     1       7.565   4.778  18.236  0.00  0.00    +0.000 A 
ATOM     23  C   UNL     1       7.972   5.642  19.295  0.00  0.00    +0.000 A 
ATOM     24  C   UNL     1       8.067   6.952  18.881  0.00  0.00    +0.000 A 
ATOM     25  S   UNL     1       7.665   7.134  17.229  0.00  0.00    +0.000 S 
ENDBRANCH  18  21
ENDBRANCH  16  18
ENDBRANCH   9  16
TORSDOF 4
ENDMDL
MODEL 6
REMARK VINA RESULT:      -6.6      2.241      4.185
REMARK  Name = 
REMARK  5 active torsions:
REMARK  status: ('A' for Active; 'I' for Inactive)
REMARK    1  A    between atoms: C_1  and  C_2
REMARK    2  A    between atoms: C_2  and  N_3
REMARK    3  A    between atoms: C_11  and  N_12
REMARK    4  A    between atoms: N_12  and  S_13
REMARK    5  A    between atoms: S_13  and  C_16
REMARK                            x       y       z     vdW  Elec       q    Type
REMARK                         _______ _______ _______ _____ _____    ______ ____
ROOT
ATOM      1  N   UNL     1       1.856   7.954  19.464  0.00  0.00    +0.000 N 
ATOM      2  C   UNL     1       1.451   7.153  20.566  0.00  0.00    +0.000 C 
ATOM      3  O   UNL     1       0.705   7.499  21.467  0.00  0.00    +0.000 OA
ATOM      4  C   UNL     1       2.156   5.912  20.328  0.00  0.00    +0.000 A 
ATOM      5  C   UNL     1       2.166   4.725  21.060  0.00  0.00    +0.000 A 
ATOM      6  C   UNL     1       2.985   3.691  20.579  0.00  0.00    +0.000 A 
ATOM      7  C   UNL     1       3.772   3.843  19.420  0.00  0.00    +0.000 A 
ATOM      8  C   UNL     1       3.761   5.056  18.698  0.00  0.00    +0.000 A 
ATOM      9  C   UNL     1       4.492   5.414  17.544  0.00  0.00    +0.000 A 
ATOM     10  C   UNL     1       4.289   6.676  16.933  0.00  0.00    +0.000 A 
ATOM     11  C   UNL     1       3.416   7.641  17.479  0.00  0.00    +0.000 A 
ATOM     12  C   UNL     1       2.754   7.272  18.641  0.00  0.00    +0.000 A 
ATOM     13  C   UNL     1       2.933   6.022  19.190  0.00  0.00    +0.000 A 
ENDROOT
BRANCH   1  15
ATOM     14  C   UNL     1       0.744   9.642  18.073  0.00  0.00    +0.000 C 
ATOM     15  C   UNL     1       1.503   9.351  19.358  0.00  0.00    +0.000 C 
ENDBRANCH   1  15
BRANCH   9  16
ATOM     16  N   UNL     1       5.391   4.467  16.981  0.00  0.00    +0.000 N 
ATOM     17  H   UNL     1       5.023   3.579  16.647  0.00  0.00    +0.000 HD
BRANCH  16  18
ATOM     18  S   UNL     1       6.759   5.010  16.168  0.00  0.00    +0.000 S 
ATOM     19  O   UNL     1       6.679   6.456  16.153  0.00  0.00    +0.000 OA
ATOM     20  O   UNL     1       7.936   4.333  16.669  0.00  0.00    +0.000 OA
BRANCH  18  21
ATOM     21  C   UNL     1       6.624   4.507  14.467  0.00  0.00    +0.000 A 
ATOM     22  C   UNL     1       5.737   3.670  13.814  0.00  0.00    +0.000 A 
ATOM     23  C   UNL     1       6.046   3.523  12.430  0.00  0.00    +0.000 A 
ATOM     24  C   UNL     1       7.145   4.270  12.067  0.00  0.00    +0.000 A 
ATOM     25  S   UNL     1       7.797   5.136  13.390  0.00  0.00    +0.000 S 
ENDBRANCH  18  21
ENDBRANCH  16  18
ENDBRANCH   9  16
TORSDOF 4
ENDMDL
MODEL 7
REMARK VINA RESULT:      -6.6      1.498      3.269
REMARK  Name = 
REMARK  5 active torsions:
REMARK  status: ('A' for Active; 'I' for Inactive)
REMARK    1  A    between atoms: C_1  and  C_2
REMARK    2  A    between atoms: C_2  and  N_3
REMARK    3  A    between atoms: C_11  and  N_12
REMARK    4  A    between atoms: N_12  and  S_13
REMARK    5  A    between atoms: S_13  and  C_16
REMARK                            x       y       z     vdW  Elec       q    Type
REMARK                         _______ _______ _______ _____ _____    ______ ____
ROOT
ATOM      1  N   UNL     1       1.659   8.285  19.678  0.00  0.00    +0.000 N 
ATOM      2  C   UNL     1       1.295   7.459  20.776  0.00  0.00    +0.000 C 
ATOM      3  O   UNL     1       0.657   7.807  21.755  0.00  0.00    +0.000 OA
ATOM      4  C   UNL     1       1.888   6.186  20.422  0.00  0.00    +0.000 A 
ATOM      5  C   UNL     1       1.877   4.967  21.097  0.00  0.00    +0.000 A 
ATOM      6  C   UNL     1       2.576   3.906  20.500  0.00  0.00    +0.000 A 
ATOM      7  C   UNL     1       3.268   4.063  19.282  0.00  0.00    +0.000 A 
ATOM      8  C   UNL     1       3.281   5.308  18.618  0.00  0.00    +0.000 A 
ATOM      9  C   UNL     1       3.932   5.674  17.420  0.00  0.00    +0.000 A 
ATOM     10  C   UNL     1       3.767   6.976  16.886  0.00  0.00    +0.000 A 
ATOM     11  C   UNL     1       3.016   7.968  17.550  0.00  0.00    +0.000 A 
ATOM     12  C   UNL     1       2.432   7.587  18.749  0.00  0.00    +0.000 A 
ATOM     13  C   UNL     1       2.569   6.301  19.224  0.00  0.00    +0.000 A 
ENDROOT
BRANCH   1  15
ATOM     14  C   UNL     1       0.263  10.060  18.719  0.00  0.00    +0.000 C 
ATOM     15  C   UNL     1       1.399   9.706  19.667  0.00  0.00    +0.000 C 
ENDBRANCH   1  15
BRANCH   9  16
ATOM     16  N   UNL     1       4.709   4.698  16.737  0.00  0.00    +0.000 N 
ATOM     17  H   UNL     1       4.235   3.915  16.292  0.00  0.00    +0.000 HD
BRANCH  16  18
ATOM     18  S   UNL     1       6.147   5.159  15.997  0.00  0.00    +0.000 S 
ATOM     19  O   UNL     1       6.946   3.958  15.870  0.00  0.00    +0.000 OA
ATOM     20  O   UNL     1       5.868   5.994  14.848  0.00  0.00    +0.000 OA
BRANCH  18  21
ATOM     21  C   UNL     1       7.036   6.208  17.126  0.00  0.00    +0.000 A 
ATOM     22  C   UNL     1       7.398   7.541  17.065  0.00  0.00    +0.000 A 
ATOM     23  C   UNL     1       8.156   7.951  18.201  0.00  0.00    +0.000 A 
ATOM     24  C   UNL     1       8.330   6.924  19.100  0.00  0.00    +0.000 A 
ATOM     25  S   UNL     1       7.586   5.477  18.574  0.00  0.00    +0.000 S 
ENDBRANCH  18  21
ENDBRANCH  16  18
ENDBRANCH   9  16
TORSDOF 4
ENDMDL
MODEL 8
REMARK VINA RESULT:      -6.6      4.411      6.924
REMARK  Name = 
REMARK  5 active torsions:
REMARK  status: ('A' for Active; 'I' for Inactive)
REMARK    1  A    between atoms: C_1  and  C_2
REMARK    2  A    between atoms: C_2  and  N_3
REMARK    3  A    between atoms: C_11  and  N_12
REMARK    4  A    between atoms: N_12  and  S_13
REMARK    5  A    between atoms: S_13  and  C_16
REMARK                            x       y       z     vdW  Elec       q    Type
REMARK                         _______ _______ _______ _____ _____    ______ ____
ROOT
ATOM      1  N   UNL     1      -0.960  11.328  19.062  0.00  0.00    +0.000 N 
ATOM      2  C   UNL     1      -1.390  11.680  20.370  0.00  0.00    +0.000 C 
ATOM      3  O   UNL     1      -2.155  12.586  20.654  0.00  0.00    +0.000 OA
ATOM      4  C   UNL     1      -0.678  10.730  21.200  0.00  0.00    +0.000 A 
ATOM      5  C   UNL     1      -0.684  10.559  22.584  0.00  0.00    +0.000 A 
ATOM      6  C   UNL     1       0.146   9.553  23.101  0.00  0.00    +0.000 A 
ATOM      7  C   UNL     1       0.958   8.757  22.268  0.00  0.00    +0.000 A 
ATOM      8  C   UNL     1       0.963   8.952  20.870  0.00  0.00    +0.000 A 
ATOM      9  C   UNL     1       1.719   8.289  19.880  0.00  0.00    +0.000 A 
ATOM     10  C   UNL     1       1.529   8.598  18.510  0.00  0.00    +0.000 A 
ATOM     11  C   UNL     1       0.644   9.612  18.086  0.00  0.00    +0.000 A 
ATOM     12  C   UNL     1      -0.044  10.276  19.092  0.00  0.00    +0.000 A 
ATOM     13  C   UNL     1       0.124   9.925  20.413  0.00  0.00    +0.000 A 
ENDROOT
BRANCH   1  15
ATOM     14  C   UNL     1      -2.412  11.450  17.088  0.00  0.00    +0.000 C 
ATOM     15  C   UNL     1      -1.311  12.113  17.901  0.00  0.00    +0.000 C 
ENDBRANCH   1  15
BRANCH   9  16
ATOM     16  N   UNL     1       2.631   7.273  20.279  0.00  0.00    +0.000 N 
ATOM     17  H   UNL     1       2.609   6.944  21.242  0.00  0.00    +0.000 HD
BRANCH  16  18
ATOM     18  S   UNL     1       3.129   6.124  19.157  0.00  0.00    +0.000 S 
ATOM     19  O   UNL     1       2.844   6.679  17.849  0.00  0.00    +0.000 OA
ATOM     20  O   UNL     1       4.453   5.645  19.491  0.00  0.00    +0.000 OA
BRANCH  18  21
ATOM     21  C   UNL     1       2.069   4.705  19.315  0.00  0.00    +0.000 A 
ATOM     22  C   UNL     1       1.322   4.217  20.372  0.00  0.00    +0.000 A 
ATOM     23  C   UNL     1       0.650   3.001  20.048  0.00  0.00    +0.000 A 
ATOM     24  C   UNL     1       0.890   2.612  18.749  0.00  0.00    +0.000 A 
ATOM     25  S   UNL     1       1.920   3.706  17.932  0.00  0.00    +0.000 S 
ENDBRANCH  18  21
ENDBRANCH  16  18
ENDBRANCH   9  16
TORSDOF 4
ENDMDL
MODEL 9
REMARK VINA RESULT:      -6.5      2.780      4.184
REMARK  Name = 
REMARK  5 active torsions:
REMARK  status: ('A' for Active; 'I' for Inactive)
REMARK    1  A    between atoms: C_1  and  C_2
REMARK    2  A    between atoms: C_2  and  N_3
REMARK    3  A    between atoms: C_11  and  N_12
REMARK    4  A    between atoms: N_12  and  S_13
REMARK    5  A    between atoms: S_13  and  C_16
REMARK                            x       y       z     vdW  Elec       q    Type
REMARK                         _______ _______ _______ _____ _____    ______ ____
ROOT
ATOM      1  N   UNL     1       0.505   8.730  21.137  0.00  0.00    +0.000 N 
ATOM      2  C   UNL     1       0.730   9.755  20.178  0.00  0.00    +0.000 C 
ATOM      3  O   UNL     1       0.283  10.889  20.222  0.00  0.00    +0.000 OA
ATOM      4  C   UNL     1       1.563   9.090  19.197  0.00  0.00    +0.000 A 
ATOM      5  C   UNL     1       2.122   9.572  18.015  0.00  0.00    +0.000 A 
ATOM      6  C   UNL     1       2.872   8.661  17.253  0.00  0.00    +0.000 A 
ATOM      7  C   UNL     1       3.043   7.321  17.652  0.00  0.00    +0.000 A 
ATOM      8  C   UNL     1       2.458   6.846  18.845  0.00  0.00    +0.000 A 
ATOM      9  C   UNL     1       2.486   5.547  19.397  0.00  0.00    +0.000 A 
ATOM     10  C   UNL     1       1.877   5.290  20.651  0.00  0.00    +0.000 A 
ATOM     11  C   UNL     1       1.169   6.284  21.357  0.00  0.00    +0.000 A 
ATOM     12  C   UNL     1       1.120   7.535  20.760  0.00  0.00    +0.000 A 
ATOM     13  C   UNL     1       1.760   7.772  19.563  0.00  0.00    +0.000 A 
ENDROOT
BRANCH   1  15
ATOM     14  C   UNL     1       0.291   9.492  23.459  0.00  0.00    +0.000 C 
ATOM     15  C   UNL     1      -0.407   8.901  22.244  0.00  0.00    +0.000 C 
ENDBRANCH   1  15
BRANCH   9  16
ATOM     16  N   UNL     1       3.179   4.520  18.698  0.00  0.00    +0.000 N 
ATOM     17  H   UNL     1       2.830   4.222  17.790  0.00  0.00    +0.000 HD
BRANCH  16  18
ATOM     18  S   UNL     1       4.842   4.367  18.895  0.00  0.00    +0.000 S 
ATOM     19  O   UNL     1       5.279   5.543  19.619  0.00  0.00    +0.000 OA
ATOM     20  O   UNL     1       5.166   3.037  19.366  0.00  0.00    +0.000 OA
BRANCH  18  21
ATOM     21  C   UNL     1       5.599   4.486  17.290  0.00  0.00    +0.000 A 
ATOM     22  C   UNL     1       5.085   4.380  16.010  0.00  0.00    +0.000 A 
ATOM     23  C   UNL     1       6.091   4.503  15.008  0.00  0.00    +0.000 A 
ATOM     24  C   UNL     1       7.337   4.720  15.554  0.00  0.00    +0.000 A 
ATOM     25  S   UNL     1       7.288   4.771  17.262  0.00  0.00    +0.000 S 
ENDBRANCH  18  21
ENDBRANCH  16  18
ENDBRANCH   9  16
TORSDOF 4
ENDMDL
