MODEL 1
REMARK VINA RESULT:      -9.0      0.000      0.000
REMARK  Name = 
REMARK  4 active torsions:
REMARK  status: ('A' for Active; 'I' for Inactive)
REMARK    1  A    between atoms: C_2  and  C_3
REMARK    2  A    between atoms: C_3  and  S_4
REMARK    3  A    between atoms: S_4  and  C_5
REMARK    4  A    between atoms: N_14  and  C_15
REMARK                            x       y       z     vdW  Elec       q    Type
REMARK                         _______ _______ _______ _____ _____    ______ ____
ROOT
ATOM      1  C   UNL     1       3.522   6.195  17.963  0.00  0.00    +0.000 A 
ATOM      2  N   UNL     1       4.237   6.819  17.061  0.00  0.00    +0.000 NA
ATOM      3  C   UNL     1       4.977   5.995  16.290  0.00  0.00    +0.000 A 
ATOM      4  N   UNL     1       5.817   6.367  15.279  0.00  0.00    +0.000 N 
ATOM      5  N   UNL     1       6.375   5.314  14.644  0.00  0.00    +0.000 NA
ATOM      6  C   UNL     1       5.896   4.251  15.304  0.00  0.00    +0.000 A 
ATOM      7  C   UNL     1       5.037   4.632  16.342  0.00  0.00    +0.000 A 
ATOM      8  C   UNL     1       4.271   3.927  17.327  0.00  0.00    +0.000 A 
ATOM      9  O   UNL     1       4.307   2.702  17.382  0.00  0.00    +0.000 OA
ATOM     10  N   UNL     1       3.491   4.786  18.140  0.00  0.00    +0.000 N 
ATOM     11  H   UNL     1       6.040   7.304  14.961  0.00  0.00    +0.000 HD
ENDROOT
BRANCH  10  12
ATOM     12  C   UNL     1       2.671   4.145  19.122  0.00  0.00    +0.000 A 
ATOM     13  C   UNL     1       3.170   3.937  20.416  0.00  0.00    +0.000 A 
ATOM     14  C   UNL     1       2.383   3.314  21.386  0.00  0.00    +0.000 A 
ATOM     15  C   UNL     1       1.099   2.880  21.069  0.00  0.00    +0.000 A 
ATOM     16  C   UNL     1       0.604   3.055  19.777  0.00  0.00    +0.000 A 
ATOM     17  C   UNL     1       1.388   3.678  18.805  0.00  0.00    +0.000 A 
ENDBRANCH  10  12
BRANCH   1  18
ATOM     18  S   UNL     1       2.587   7.217  19.057  0.00  0.00    +0.000 S 
BRANCH  18  19
ATOM     19  C   UNL     1       2.150   8.663  18.055  0.00  0.00    +0.000 C 
BRANCH  19  21
ATOM     20  O   UNL     1       1.041   9.859  19.810  0.00  0.00    +0.000 OA
ATOM     21  C   UNL     1       1.012   9.490  18.642  0.00  0.00    +0.000 C 
ATOM     22  N   UNL     1       0.015   9.751  17.733  0.00  0.00    +0.000 N 
ATOM     23  C   UNL     1      -1.081  10.513  18.004  0.00  0.00    +0.000 A 
ATOM     24  N   UNL     1      -1.279  11.379  18.957  0.00  0.00    +0.000 NA
ATOM     25  C   UNL     1      -2.541  11.923  18.820  0.00  0.00    +0.000 A 
ATOM     26  C   UNL     1      -3.300  11.412  17.787  0.00  0.00    +0.000 A 
ATOM     27  S   UNL     1      -2.365  10.282  16.899  0.00  0.00    +0.000 S 
ATOM     28  H   UNL     1       0.014   9.270  16.842  0.00  0.00    +0.000 HD
ENDBRANCH  19  21
ENDBRANCH  18  19
ENDBRANCH   1  18
TORSDOF 4
ENDMDL
MODEL 2
REMARK VINA RESULT:      -8.8      1.887      2.029
REMARK  Name = 
REMARK  4 active torsions:
REMARK  status: ('A' for Active; 'I' for Inactive)
REMARK    1  A    between atoms: C_2  and  C_3
REMARK    2  A    between atoms: C_3  and  S_4
REMARK    3  A    between atoms: S_4  and  C_5
REMARK    4  A    between atoms: N_14  and  C_15
REMARK                            x       y       z     vdW  Elec       q    Type
REMARK                         _______ _______ _______ _____ _____    ______ ____
ROOT
ATOM      1  C   UNL     1       3.478   6.215  18.086  0.00  0.00    +0.000 A 
ATOM      2  N   UNL     1       4.188   6.862  17.196  0.00  0.00    +0.000 NA
ATOM      3  C   UNL     1       4.932   6.059  16.407  0.00  0.00    +0.000 A 
ATOM      4  N   UNL     1       5.769   6.457  15.404  0.00  0.00    +0.000 N 
ATOM      5  N   UNL     1       6.332   5.421  14.746  0.00  0.00    +0.000 NA
ATOM      6  C   UNL     1       5.860   4.341  15.384  0.00  0.00    +0.000 A 
ATOM      7  C   UNL     1       5.000   4.695  16.431  0.00  0.00    +0.000 A 
ATOM      8  C   UNL     1       4.240   3.965  17.401  0.00  0.00    +0.000 A 
ATOM      9  O   UNL     1       4.282   2.740  17.431  0.00  0.00    +0.000 OA
ATOM     10  N   UNL     1       3.456   4.803  18.233  0.00  0.00    +0.000 N 
ATOM     11  H   UNL     1       5.986   7.401  15.104  0.00  0.00    +0.000 HD
ENDROOT
BRANCH  10  12
ATOM     12  C   UNL     1       2.640   4.136  19.202  0.00  0.00    +0.000 A 
ATOM     13  C   UNL     1       3.156   3.870  20.479  0.00  0.00    +0.000 A 
ATOM     14  C   UNL     1       2.374   3.222  21.437  0.00  0.00    +0.000 A 
ATOM     15  C   UNL     1       1.078   2.822  21.124  0.00  0.00    +0.000 A 
ATOM     16  C   UNL     1       0.566   3.054  19.848  0.00  0.00    +0.000 A 
ATOM     17  C   UNL     1       1.345   3.703  18.888  0.00  0.00    +0.000 A 
ENDBRANCH  10  12
BRANCH   1  18
ATOM     18  S   UNL     1       2.538   7.209  19.201  0.00  0.00    +0.000 S 
BRANCH  18  19
ATOM     19  C   UNL     1       1.923   8.573  18.178  0.00  0.00    +0.000 C 
BRANCH  19  21
ATOM     20  O   UNL     1       1.269  10.844  18.574  0.00  0.00    +0.000 OA
ATOM     21  C   UNL     1       1.262   9.687  18.980  0.00  0.00    +0.000 C 
ATOM     22  N   UNL     1       0.690   9.240  20.147  0.00  0.00    +0.000 N 
ATOM     23  C   UNL     1      -0.003  10.037  21.008  0.00  0.00    +0.000 A 
ATOM     24  N   UNL     1      -0.546  11.205  20.809  0.00  0.00    +0.000 NA
ATOM     25  C   UNL     1      -1.165  11.620  21.971  0.00  0.00    +0.000 A 
ATOM     26  C   UNL     1      -1.030  10.774  23.053  0.00  0.00    +0.000 A 
ATOM     27  S   UNL     1      -0.182   9.364  22.570  0.00  0.00    +0.000 S 
ATOM     28  H   UNL     1       0.876   8.298  20.464  0.00  0.00    +0.000 HD
ENDBRANCH  19  21
ENDBRANCH  18  19
ENDBRANCH   1  18
TORSDOF 4
ENDMDL
MODEL 3
REMARK VINA RESULT:      -8.7      1.198      1.478
REMARK  Name = 
REMARK  4 active torsions:
REMARK  status: ('A' for Active; 'I' for Inactive)
REMARK    1  A    between atoms: C_2  and  C_3
REMARK    2  A    between atoms: C_3  and  S_4
REMARK    3  A    between atoms: S_4  and  C_5
REMARK    4  A    between atoms: N_14  and  C_15
REMARK                            x       y       z     vdW  Elec       q    Type
REMARK                         _______ _______ _______ _____ _____    ______ ____
ROOT
ATOM      1  C   UNL     1       3.496   6.495  17.983  0.00  0.00    +0.000 A 
ATOM      2  N   UNL     1       4.347   7.233  17.316  0.00  0.00    +0.000 NA
ATOM      3  C   UNL     1       5.588   6.706  17.250  0.00  0.00    +0.000 A 
ATOM      4  N   UNL     1       6.671   7.258  16.627  0.00  0.00    +0.000 N 
ATOM      5  N   UNL     1       7.765   6.468  16.675  0.00  0.00    +0.000 NA
ATOM      6  C   UNL     1       7.360   5.403  17.382  0.00  0.00    +0.000 A 
ATOM      7  C   UNL     1       6.020   5.520  17.770  0.00  0.00    +0.000 A 
ATOM      8  C   UNL     1       5.111   4.699  18.512  0.00  0.00    +0.000 A 
ATOM      9  O   UNL     1       5.480   3.627  18.979  0.00  0.00    +0.000 OA
ATOM     10  N   UNL     1       3.806   5.246  18.586  0.00  0.00    +0.000 N 
ATOM     11  H   UNL     1       6.732   8.147  16.142  0.00  0.00    +0.000 HD
ENDROOT
BRANCH  10  12
ATOM     12  C   UNL     1       2.834   4.458  19.281  0.00  0.00    +0.000 A 
ATOM     13  C   UNL     1       1.995   3.596  18.559  0.00  0.00    +0.000 A 
ATOM     14  C   UNL     1       1.043   2.819  19.220  0.00  0.00    +0.000 A 
ATOM     15  C   UNL     1       0.909   2.907  20.604  0.00  0.00    +0.000 A 
ATOM     16  C   UNL     1       1.718   3.783  21.327  0.00  0.00    +0.000 A 
ATOM     17  C   UNL     1       2.672   4.561  20.669  0.00  0.00    +0.000 A 
ENDBRANCH  10  12
BRANCH   1  18
ATOM     18  S   UNL     1       1.872   7.160  18.174  0.00  0.00    +0.000 S 
BRANCH  18  19
ATOM     19  C   UNL     1       2.092   8.946  17.953  0.00  0.00    +0.000 C 
BRANCH  19  21
ATOM     20  O   UNL     1       1.097  10.322  19.644  0.00  0.00    +0.000 OA
ATOM     21  C   UNL     1       0.964   9.777  18.554  0.00  0.00    +0.000 C 
ATOM     22  N   UNL     1      -0.149   9.830  17.750  0.00  0.00    +0.000 N 
ATOM     23  C   UNL     1      -1.267  10.551  18.046  0.00  0.00    +0.000 A 
ATOM     24  N   UNL     1      -1.425  11.538  18.882  0.00  0.00    +0.000 NA
ATOM     25  C   UNL     1      -2.735  11.972  18.828  0.00  0.00    +0.000 A 
ATOM     26  C   UNL     1      -3.563  11.260  17.984  0.00  0.00    +0.000 A 
ATOM     27  S   UNL     1      -2.646  10.071  17.157  0.00  0.00    +0.000 S 
ATOM     28  H   UNL     1      -0.213   9.220  16.946  0.00  0.00    +0.000 HD
ENDBRANCH  19  21
ENDBRANCH  18  19
ENDBRANCH   1  18
TORSDOF 4
ENDMDL
MODEL 4
REMARK VINA RESULT:      -8.6      2.142      2.305
REMARK  Name = 
REMARK  4 active torsions:
REMARK  status: ('A' for Active; 'I' for Inactive)
REMARK    1  A    between atoms: C_2  and  C_3
REMARK    2  A    between atoms: C_3  and  S_4
REMARK    3  A    between atoms: S_4  and  C_5
REMARK    4  A    between atoms: N_14  and  C_15
REMARK                            x       y       z     vdW  Elec       q    Type
REMARK                         _______ _______ _______ _____ _____    ______ ____
ROOT
ATOM      1  C   UNL     1       3.473   6.532  18.088  0.00  0.00    +0.000 A 
ATOM      2  N   UNL     1       4.317   7.274  17.416  0.00  0.00    +0.000 NA
ATOM      3  C   UNL     1       5.537   6.715  17.274  0.00  0.00    +0.000 A 
ATOM      4  N   UNL     1       6.609   7.262  16.628  0.00  0.00    +0.000 N 
ATOM      5  N   UNL     1       7.680   6.440  16.596  0.00  0.00    +0.000 NA
ATOM      6  C   UNL     1       7.274   5.358  17.276  0.00  0.00    +0.000 A 
ATOM      7  C   UNL     1       5.955   5.497  17.727  0.00  0.00    +0.000 A 
ATOM      8  C   UNL     1       5.054   4.671  18.474  0.00  0.00    +0.000 A 
ATOM      9  O   UNL     1       5.411   3.570  18.880  0.00  0.00    +0.000 OA
ATOM     10  N   UNL     1       3.770   5.251  18.626  0.00  0.00    +0.000 N 
ATOM     11  H   UNL     1       6.675   8.168  16.177  0.00  0.00    +0.000 HD
ENDROOT
BRANCH  10  12
ATOM     12  C   UNL     1       2.806   4.463  19.330  0.00  0.00    +0.000 A 
ATOM     13  C   UNL     1       2.776   4.491  20.732  0.00  0.00    +0.000 A 
ATOM     14  C   UNL     1       1.841   3.729  21.436  0.00  0.00    +0.000 A 
ATOM     15  C   UNL     1       0.940   2.921  20.747  0.00  0.00    +0.000 A 
ATOM     16  C   UNL     1       0.981   2.863  19.355  0.00  0.00    +0.000 A 
ATOM     17  C   UNL     1       1.914   3.624  18.648  0.00  0.00    +0.000 A 
ENDBRANCH  10  12
BRANCH   1  18
ATOM     18  S   UNL     1       1.879   7.234  18.376  0.00  0.00    +0.000 S 
BRANCH  18  19
ATOM     19  C   UNL     1       2.037   8.950  17.812  0.00  0.00    +0.000 C 
BRANCH  19  21
ATOM     20  O   UNL     1       1.502  11.168  18.545  0.00  0.00    +0.000 OA
ATOM     21  C   UNL     1       1.428   9.965  18.772  0.00  0.00    +0.000 C 
ATOM     22  N   UNL     1       0.819   9.380  19.856  0.00  0.00    +0.000 N 
ATOM     23  C   UNL     1       0.160  10.075  20.825  0.00  0.00    +0.000 A 
ATOM     24  N   UNL     1      -0.316  11.287  20.803  0.00  0.00    +0.000 NA
ATOM     25  C   UNL     1      -0.925  11.556  22.013  0.00  0.00    +0.000 A 
ATOM     26  C   UNL     1      -0.848  10.550  22.954  0.00  0.00    +0.000 A 
ATOM     27  S   UNL     1      -0.073   9.185  22.267  0.00  0.00    +0.000 S 
ATOM     28  H   UNL     1       0.950   8.391  20.027  0.00  0.00    +0.000 HD
ENDBRANCH  19  21
ENDBRANCH  18  19
ENDBRANCH   1  18
TORSDOF 4
ENDMDL
MODEL 5
REMARK VINA RESULT:      -8.5      1.773      2.074
REMARK  Name = 
REMARK  4 active torsions:
REMARK  status: ('A' for Active; 'I' for Inactive)
REMARK    1  A    between atoms: C_2  and  C_3
REMARK    2  A    between atoms: C_3  and  S_4
REMARK    3  A    between atoms: S_4  and  C_5
REMARK    4  A    between atoms: N_14  and  C_15
REMARK                            x       y       z     vdW  Elec       q    Type
REMARK                         _______ _______ _______ _____ _____    ______ ____
ROOT
ATOM      1  C   UNL     1       3.556   6.165  17.877  0.00  0.00    +0.000 A 
ATOM      2  N   UNL     1       4.282   6.760  16.964  0.00  0.00    +0.000 NA
ATOM      3  C   UNL     1       5.033   5.912  16.231  0.00  0.00    +0.000 A 
ATOM      4  N   UNL     1       5.887   6.252  15.220  0.00  0.00    +0.000 N 
ATOM      5  N   UNL     1       6.455   5.180  14.628  0.00  0.00    +0.000 NA
ATOM      6  C   UNL     1       5.968   4.138  15.316  0.00  0.00    +0.000 A 
ATOM      7  C   UNL     1       5.095   4.552  16.330  0.00  0.00    +0.000 A 
ATOM      8  C   UNL     1       4.318   3.878  17.327  0.00  0.00    +0.000 A 
ATOM      9  O   UNL     1       4.354   2.656  17.423  0.00  0.00    +0.000 OA
ATOM     10  N   UNL     1       3.525   4.762  18.100  0.00  0.00    +0.000 N 
ATOM     11  H   UNL     1       6.112   7.178  14.873  0.00  0.00    +0.000 HD
ENDROOT
BRANCH  10  12
ATOM     12  C   UNL     1       2.693   4.152  19.092  0.00  0.00    +0.000 A 
ATOM     13  C   UNL     1       1.415   3.695  18.739  0.00  0.00    +0.000 A 
ATOM     14  C   UNL     1       0.589   3.097  19.692  0.00  0.00    +0.000 A 
ATOM     15  C   UNL     1       1.026   2.964  21.007  0.00  0.00    +0.000 A 
ATOM     16  C   UNL     1       2.282   3.443  21.375  0.00  0.00    +0.000 A 
ATOM     17  C   UNL     1       3.111   4.041  20.425  0.00  0.00    +0.000 A 
ENDBRANCH  10  12
BRANCH   1  18
ATOM     18  S   UNL     1       2.604   7.221  18.923  0.00  0.00    +0.000 S 
BRANCH  18  19
ATOM     19  C   UNL     1       1.891   8.446  17.793  0.00  0.00    +0.000 C 
BRANCH  19  21
ATOM     20  O   UNL     1       2.195  10.814  17.991  0.00  0.00    +0.000 OA
ATOM     21  C   UNL     1       1.658   9.807  18.438  0.00  0.00    +0.000 C 
ATOM     22  N   UNL     1       0.812   9.750  19.520  0.00  0.00    +0.000 N 
ATOM     23  C   UNL     1       0.412  10.841  20.231  0.00  0.00    +0.000 A 
ATOM     24  N   UNL     1       0.433  12.103  19.903  0.00  0.00    +0.000 NA
ATOM     25  C   UNL     1      -0.096  12.848  20.938  0.00  0.00    +0.000 A 
ATOM     26  C   UNL     1      -0.459  12.133  22.061  0.00  0.00    +0.000 A 
ATOM     27  S   UNL     1      -0.221  10.460  21.772  0.00  0.00    +0.000 S 
ATOM     28  H   UNL     1       0.549   8.850  19.900  0.00  0.00    +0.000 HD
ENDBRANCH  19  21
ENDBRANCH  18  19
ENDBRANCH   1  18
TORSDOF 4
ENDMDL
MODEL 6
REMARK VINA RESULT:      -8.4      1.929      2.042
REMARK  Name = 
REMARK  4 active torsions:
REMARK  status: ('A' for Active; 'I' for Inactive)
REMARK    1  A    between atoms: C_2  and  C_3
REMARK    2  A    between atoms: C_3  and  S_4
REMARK    3  A    between atoms: S_4  and  C_5
REMARK    4  A    between atoms: N_14  and  C_15
REMARK                            x       y       z     vdW  Elec       q    Type
REMARK                         _______ _______ _______ _____ _____    ______ ____
ROOT
ATOM      1  C   UNL     1       3.530   6.169  17.788  0.00  0.00    +0.000 A 
ATOM      2  N   UNL     1       4.271   6.754  16.881  0.00  0.00    +0.000 NA
ATOM      3  C   UNL     1       5.054   5.901  16.188  0.00  0.00    +0.000 A 
ATOM      4  N   UNL     1       5.928   6.231  15.191  0.00  0.00    +0.000 N 
ATOM      5  N   UNL     1       6.528   5.154  14.640  0.00  0.00    +0.000 NA
ATOM      6  C   UNL     1       6.039   4.121  15.340  0.00  0.00    +0.000 A 
ATOM      7  C   UNL     1       5.133   4.545  16.320  0.00  0.00    +0.000 A 
ATOM      8  C   UNL     1       4.340   3.883  17.313  0.00  0.00    +0.000 A 
ATOM      9  O   UNL     1       4.392   2.664  17.439  0.00  0.00    +0.000 OA
ATOM     10  N   UNL     1       3.514   4.772  18.045  0.00  0.00    +0.000 N 
ATOM     11  H   UNL     1       6.149   7.151  14.829  0.00  0.00    +0.000 HD
ENDROOT
BRANCH  10  12
ATOM     12  C   UNL     1       2.665   4.173  19.028  0.00  0.00    +0.000 A 
ATOM     13  C   UNL     1       3.097   4.089  20.360  0.00  0.00    +0.000 A 
ATOM     14  C   UNL     1       2.281   3.509  21.333  0.00  0.00    +0.000 A 
ATOM     15  C   UNL     1       1.036   2.995  20.982  0.00  0.00    +0.000 A 
ATOM     16  C   UNL     1       0.610   3.046  19.656  0.00  0.00    +0.000 A 
ATOM     17  C   UNL     1       1.423   3.626  18.680  0.00  0.00    +0.000 A 
ENDBRANCH  10  12
BRANCH   1  18
ATOM     18  S   UNL     1       2.535   7.235  18.784  0.00  0.00    +0.000 S 
BRANCH  18  19
ATOM     19  C   UNL     1       2.189   8.655  17.712  0.00  0.00    +0.000 C 
BRANCH  19  21
ATOM     20  O   UNL     1       0.449   9.584  19.073  0.00  0.00    +0.000 OA
ATOM     21  C   UNL     1       1.467   9.793  18.424  0.00  0.00    +0.000 C 
ATOM     22  N   UNL     1       2.083  11.010  18.250  0.00  0.00    +0.000 N 
ATOM     23  C   UNL     1       1.657  12.168  18.828  0.00  0.00    +0.000 A 
ATOM     24  N   UNL     1       0.870  12.348  19.851  0.00  0.00    +0.000 NA
ATOM     25  C   UNL     1       0.740  13.702  20.088  0.00  0.00    +0.000 A 
ATOM     26  C   UNL     1       1.393  14.528  19.197  0.00  0.00    +0.000 A 
ATOM     27  S   UNL     1       2.282  13.575  18.083  0.00  0.00    +0.000 S 
ATOM     28  H   UNL     1       2.827  11.099  17.570  0.00  0.00    +0.000 HD
ENDBRANCH  19  21
ENDBRANCH  18  19
ENDBRANCH   1  18
TORSDOF 4
ENDMDL
MODEL 7
REMARK VINA RESULT:      -8.4      1.552      1.670
REMARK  Name = 
REMARK  4 active torsions:
REMARK  status: ('A' for Active; 'I' for Inactive)
REMARK    1  A    between atoms: C_2  and  C_3
REMARK    2  A    between atoms: C_3  and  S_4
REMARK    3  A    between atoms: S_4  and  C_5
REMARK    4  A    between atoms: N_14  and  C_15
REMARK                            x       y       z     vdW  Elec       q    Type
REMARK                         _______ _______ _______ _____ _____    ______ ____
ROOT
ATOM      1  C   UNL     1       3.482   6.240  17.848  0.00  0.00    +0.000 A 
ATOM      2  N   UNL     1       4.219   6.840  16.948  0.00  0.00    +0.000 NA
ATOM      3  C   UNL     1       5.010   6.000  16.247  0.00  0.00    +0.000 A 
ATOM      4  N   UNL     1       5.883   6.347  15.255  0.00  0.00    +0.000 N 
ATOM      5  N   UNL     1       6.492   5.281  14.693  0.00  0.00    +0.000 NA
ATOM      6  C   UNL     1       6.011   4.237  15.383  0.00  0.00    +0.000 A 
ATOM      7  C   UNL     1       5.100   4.643  16.366  0.00  0.00    +0.000 A 
ATOM      8  C   UNL     1       4.312   3.965  17.351  0.00  0.00    +0.000 A 
ATOM      9  O   UNL     1       4.374   2.745  17.465  0.00  0.00    +0.000 OA
ATOM     10  N   UNL     1       3.478   4.840  18.091  0.00  0.00    +0.000 N 
ATOM     11  H   UNL     1       6.096   7.273  14.901  0.00  0.00    +0.000 HD
ENDROOT
BRANCH  10  12
ATOM     12  C   UNL     1       2.633   4.224  19.067  0.00  0.00    +0.000 A 
ATOM     13  C   UNL     1       3.072   4.113  20.395  0.00  0.00    +0.000 A 
ATOM     14  C   UNL     1       2.260   3.517  21.361  0.00  0.00    +0.000 A 
ATOM     15  C   UNL     1       1.012   3.012  21.007  0.00  0.00    +0.000 A 
ATOM     16  C   UNL     1       0.579   3.090  19.684  0.00  0.00    +0.000 A 
ATOM     17  C   UNL     1       1.387   3.687  18.716  0.00  0.00    +0.000 A 
ENDBRANCH  10  12
BRANCH   1  18
ATOM     18  S   UNL     1       2.478   7.287  18.854  0.00  0.00    +0.000 S 
BRANCH  18  19
ATOM     19  C   UNL     1       2.273   8.793  17.867  0.00  0.00    +0.000 C 
BRANCH  19  21
ATOM     20  O   UNL     1      -0.019   9.451  17.631  0.00  0.00    +0.000 OA
ATOM     21  C   UNL     1       1.036   9.602  18.238  0.00  0.00    +0.000 C 
ATOM     22  N   UNL     1       1.254  10.464  19.286  0.00  0.00    +0.000 N 
ATOM     23  C   UNL     1       0.289  11.256  19.833  0.00  0.00    +0.000 A 
ATOM     24  N   UNL     1      -1.009  11.160  19.757  0.00  0.00    +0.000 NA
ATOM     25  C   UNL     1      -1.581  12.179  20.494  0.00  0.00    +0.000 A 
ATOM     26  C   UNL     1      -0.695  13.066  21.070  0.00  0.00    +0.000 A 
ATOM     27  S   UNL     1       0.910  12.549  20.763  0.00  0.00    +0.000 S 
ATOM     28  H   UNL     1       2.198  10.623  19.612  0.00  0.00    +0.000 HD
ENDBRANCH  19  21
ENDBRANCH  18  19
ENDBRANCH   1  18
TORSDOF 4
ENDMDL
MODEL 8
REMARK VINA RESULT:      -8.2      2.186      2.485
REMARK  Name = 
REMARK  4 active torsions:
REMARK  status: ('A' for Active; 'I' for Inactive)
REMARK    1  A    between atoms: C_2  and  C_3
REMARK    2  A    between atoms: C_3  and  S_4
REMARK    3  A    between atoms: S_4  and  C_5
REMARK    4  A    between atoms: N_14  and  C_15
REMARK                            x       y       z     vdW  Elec       q    Type
REMARK                         _______ _______ _______ _____ _____    ______ ____
ROOT
ATOM      1  C   UNL     1       3.490   6.518  17.996  0.00  0.00    +0.000 A 
ATOM      2  N   UNL     1       4.346   7.265  17.346  0.00  0.00    +0.000 NA
ATOM      3  C   UNL     1       5.581   6.727  17.260  0.00  0.00    +0.000 A 
ATOM      4  N   UNL     1       6.667   7.285  16.648  0.00  0.00    +0.000 N 
ATOM      5  N   UNL     1       7.753   6.483  16.670  0.00  0.00    +0.000 NA
ATOM      6  C   UNL     1       7.341   5.404  17.350  0.00  0.00    +0.000 A 
ATOM      7  C   UNL     1       6.003   5.524  17.747  0.00  0.00    +0.000 A 
ATOM      8  C   UNL     1       5.089   4.693  18.471  0.00  0.00    +0.000 A 
ATOM      9  O   UNL     1       5.450   3.605  18.909  0.00  0.00    +0.000 OA
ATOM     10  N   UNL     1       3.790   5.251  18.565  0.00  0.00    +0.000 N 
ATOM     11  H   UNL     1       6.735   8.185  16.186  0.00  0.00    +0.000 HD
ENDROOT
BRANCH  10  12
ATOM     12  C   UNL     1       2.813   4.454  19.243  0.00  0.00    +0.000 A 
ATOM     13  C   UNL     1       1.951   3.633  18.502  0.00  0.00    +0.000 A 
ATOM     14  C   UNL     1       0.993   2.849  19.147  0.00  0.00    +0.000 A 
ATOM     15  C   UNL     1       0.878   2.889  20.534  0.00  0.00    +0.000 A 
ATOM     16  C   UNL     1       1.710   3.724  21.278  0.00  0.00    +0.000 A 
ATOM     17  C   UNL     1       2.669   4.509  20.636  0.00  0.00    +0.000 A 
ENDBRANCH  10  12
BRANCH   1  18
ATOM     18  S   UNL     1       1.874   7.194  18.211  0.00  0.00    +0.000 S 
BRANCH  18  19
ATOM     19  C   UNL     1       1.929   7.973  19.847  0.00  0.00    +0.000 C 
BRANCH  19  21
ATOM     20  O   UNL     1       1.194  10.102  19.027  0.00  0.00    +0.000 OA
ATOM     21  C   UNL     1       1.138   9.273  19.929  0.00  0.00    +0.000 C 
ATOM     22  N   UNL     1       0.395   9.377  21.081  0.00  0.00    +0.000 N 
ATOM     23  C   UNL     1      -0.433  10.422  21.361  0.00  0.00    +0.000 A 
ATOM     24  N   UNL     1      -0.951  11.311  20.562  0.00  0.00    +0.000 NA
ATOM     25  C   UNL     1      -1.749  12.167  21.295  0.00  0.00    +0.000 A 
ATOM     26  C   UNL     1      -1.774  11.939  22.655  0.00  0.00    +0.000 A 
ATOM     27  S   UNL     1      -0.845  10.544  23.016  0.00  0.00    +0.000 S 
ATOM     28  H   UNL     1       0.540   8.711  21.829  0.00  0.00    +0.000 HD
ENDBRANCH  19  21
ENDBRANCH  18  19
ENDBRANCH   1  18
TORSDOF 4
ENDMDL
MODEL 9
REMARK VINA RESULT:      -8.2      1.225      1.308
REMARK  Name = 
REMARK  4 active torsions:
REMARK  status: ('A' for Active; 'I' for Inactive)
REMARK    1  A    between atoms: C_2  and  C_3
REMARK    2  A    between atoms: C_3  and  S_4
REMARK    3  A    between atoms: S_4  and  C_5
REMARK    4  A    between atoms: N_14  and  C_15
REMARK                            x       y       z     vdW  Elec       q    Type
REMARK                         _______ _______ _______ _____ _____    ______ ____
ROOT
ATOM      1  C   UNL     1       3.543   6.251  17.802  0.00  0.00    +0.000 A 
ATOM      2  N   UNL     1       4.293   6.838  16.904  0.00  0.00    +0.000 NA
ATOM      3  C   UNL     1       5.064   5.985  16.198  0.00  0.00    +0.000 A 
ATOM      4  N   UNL     1       5.944   6.317  15.207  0.00  0.00    +0.000 N 
ATOM      5  N   UNL     1       6.528   5.240  14.640  0.00  0.00    +0.000 NA
ATOM      6  C   UNL     1       6.023   4.203  15.324  0.00  0.00    +0.000 A 
ATOM      7  C   UNL     1       5.123   4.625  16.310  0.00  0.00    +0.000 A 
ATOM      8  C   UNL     1       4.319   3.960  17.292  0.00  0.00    +0.000 A 
ATOM      9  O   UNL     1       4.353   2.739  17.400  0.00  0.00    +0.000 OA
ATOM     10  N   UNL     1       3.506   4.850  18.036  0.00  0.00    +0.000 N 
ATOM     11  H   UNL     1       6.178   7.240  14.859  0.00  0.00    +0.000 HD
ENDROOT
BRANCH  10  12
ATOM     12  C   UNL     1       2.647   4.248  19.010  0.00  0.00    +0.000 A 
ATOM     13  C   UNL     1       3.078   4.134  20.340  0.00  0.00    +0.000 A 
ATOM     14  C   UNL     1       2.254   3.551  21.303  0.00  0.00    +0.000 A 
ATOM     15  C   UNL     1       0.999   3.064  20.945  0.00  0.00    +0.000 A 
ATOM     16  C   UNL     1       0.574   3.146  19.620  0.00  0.00    +0.000 A 
ATOM     17  C   UNL     1       1.396   3.729  18.654  0.00  0.00    +0.000 A 
ENDBRANCH  10  12
BRANCH   1  18
ATOM     18  S   UNL     1       2.563   7.315  18.814  0.00  0.00    +0.000 S 
BRANCH  18  19
ATOM     19  C   UNL     1       1.663   8.354  17.631  0.00  0.00    +0.000 C 
BRANCH  19  21
ATOM     20  O   UNL     1       2.567  10.528  18.076  0.00  0.00    +0.000 OA
ATOM     21  C   UNL     1       1.570   9.815  18.052  0.00  0.00    +0.000 C 
ATOM     22  N   UNL     1       0.290  10.199  18.374  0.00  0.00    +0.000 N 
ATOM     23  C   UNL     1      -0.056  11.468  18.731  0.00  0.00    +0.000 A 
ATOM     24  N   UNL     1       0.580  12.590  18.541  0.00  0.00    +0.000 NA
ATOM     25  C   UNL     1      -0.171  13.628  19.058  0.00  0.00    +0.000 A 
ATOM     26  C   UNL     1      -1.344  13.260  19.683  0.00  0.00    +0.000 A 
ATOM     27  S   UNL     1      -1.563  11.566  19.533  0.00  0.00    +0.000 S 
ATOM     28  H   UNL     1      -0.431   9.497  18.471  0.00  0.00    +0.000 HD
ENDBRANCH  19  21
ENDBRANCH  18  19
ENDBRANCH   1  18
TORSDOF 4
ENDMDL
