MODEL 1
REMARK VINA RESULT:      -6.7      0.000      0.000
REMARK  Name = 
REMARK  9 active torsions:
REMARK  status: ('A' for Active; 'I' for Inactive)
REMARK    1  A    between atoms: C_1  and  C_2
REMARK    2  A    between atoms: C_2  and  C_3
REMARK    3  A    between atoms: C_2  and  C_4
REMARK    4  A    between atoms: C_4  and  S_5
REMARK    5  A    between atoms: S_5  and  C_6
REMARK    6  A    between atoms: C_8  and  C_9
REMARK    7  A    between atoms: C_9  and  O_11
REMARK    8  A    between atoms: C_12  and  C_13
REMARK    9  A    between atoms: C_20  and  C_21
REMARK                            x       y       z     vdW  Elec       q    Type
REMARK                         _______ _______ _______ _____ _____    ______ ____
ROOT
ATOM      1  C   UNL     1       5.459   4.647  16.734  0.00  0.00    +0.000 A 
ATOM      2  S   UNL     1       4.251   3.457  16.885  0.00  0.00    +0.000 S 
ATOM      3  C   UNL     1       3.133   4.539  17.610  0.00  0.00    +0.000 A 
ATOM      4  C   UNL     1       3.674   5.823  17.743  0.00  0.00    +0.000 A 
ATOM      5  C   UNL     1       5.048   5.860  17.250  0.00  0.00    +0.000 A 
ENDROOT
BRANCH   4   6
ATOM      6  C   UNL     1       2.912   6.961  18.298  0.00  0.00    +0.000 A 
ATOM      7  C   UNL     1       2.599   8.070  17.496  0.00  0.00    +0.000 A 
ATOM      8  C   UNL     1       1.857   9.143  17.997  0.00  0.00    +0.000 A 
ATOM      9  C   UNL     1       1.455   9.147  19.326  0.00  0.00    +0.000 A 
ATOM     10 CL   UNL     1       0.576  10.482  19.950  0.00  0.00    +0.000 Cl
ATOM     11  C   UNL     1       1.758   8.069  20.146  0.00  0.00    +0.000 A 
ATOM     12  C   UNL     1       2.449   6.973  19.624  0.00  0.00    +0.000 A 
ENDBRANCH   4   6
BRANCH   3  13
ATOM     13  C   UNL     1       1.837   3.999  18.020  0.00  0.00    +0.000 C 
ATOM     14  O   UNL     1       0.819   3.956  17.345  0.00  0.00    +0.000 OA
BRANCH  13  15
ATOM     15  O   UNL     1       1.861   3.460  19.269  0.00  0.00    +0.000 OA
ATOM     16  H   UNL     1       2.584   3.814  19.819  0.00  0.00    +0.000 HD
ENDBRANCH  13  15
ENDBRANCH   3  13
BRANCH   5  17
ATOM     17  C   UNL     1       5.913   7.023  17.257  0.00  0.00    +0.000 C 
ATOM     18  N   UNL     1       6.633   7.925  17.293  0.00  0.00    +0.000 NA
ENDBRANCH   5  17
BRANCH   1  19
ATOM     19  S   UNL     1       7.027   4.257  16.022  0.00  0.00    +0.000 S 
BRANCH  19  20
ATOM     20  C   UNL     1       6.844   4.910  14.319  0.00  0.00    +0.000 C 
BRANCH  20  22
ATOM     21  C   UNL     1       5.033   3.655  13.050  0.00  0.00    +0.000 C 
ATOM     22  C   UNL     1       6.537   3.836  13.259  0.00  0.00    +0.000 C 
ATOM     23  C   UNL     1       7.193   4.181  11.916  0.00  0.00    +0.000 C 
ENDBRANCH  20  22
ENDBRANCH  19  20
ENDBRANCH   1  19
TORSDOF 7
ENDMDL
MODEL 2
REMARK VINA RESULT:      -6.6      0.305      1.263
REMARK  Name = 
REMARK  9 active torsions:
REMARK  status: ('A' for Active; 'I' for Inactive)
REMARK    1  A    between atoms: C_1  and  C_2
REMARK    2  A    between atoms: C_2  and  C_3
REMARK    3  A    between atoms: C_2  and  C_4
REMARK    4  A    between atoms: C_4  and  S_5
REMARK    5  A    between atoms: S_5  and  C_6
REMARK    6  A    between atoms: C_8  and  C_9
REMARK    7  A    between atoms: C_9  and  O_11
REMARK    8  A    between atoms: C_12  and  C_13
REMARK    9  A    between atoms: C_20  and  C_21
REMARK                            x       y       z     vdW  Elec       q    Type
REMARK                         _______ _______ _______ _____ _____    ______ ____
ROOT
ATOM      1  C   UNL     1       5.234   4.535  16.613  0.00  0.00    +0.000 A 
ATOM      2  S   UNL     1       4.034   3.353  16.865  0.00  0.00    +0.000 S 
ATOM      3  C   UNL     1       2.977   4.448  17.658  0.00  0.00    +0.000 A 
ATOM      4  C   UNL     1       3.532   5.731  17.737  0.00  0.00    +0.000 A 
ATOM      5  C   UNL     1       4.867   5.756  17.144  0.00  0.00    +0.000 A 
ENDROOT
BRANCH   4   6
ATOM      6  C   UNL     1       2.818   6.879  18.334  0.00  0.00    +0.000 A 
ATOM      7  C   UNL     1       2.445   6.863  19.687  0.00  0.00    +0.000 A 
ATOM      8  C   UNL     1       1.793   7.950  20.275  0.00  0.00    +0.000 A 
ATOM      9  C   UNL     1       1.461   9.056  19.505  0.00  0.00    +0.000 A 
ATOM     10 CL   UNL     1       0.628  10.376  20.218  0.00  0.00    +0.000 Cl
ATOM     11  C   UNL     1       1.809   9.098  18.162  0.00  0.00    +0.000 A 
ATOM     12  C   UNL     1       2.512   8.033  17.594  0.00  0.00    +0.000 A 
ENDBRANCH   4   6
BRANCH   3  13
ATOM     13  C   UNL     1       1.712   3.920  18.168  0.00  0.00    +0.000 C 
ATOM     14  O   UNL     1       1.521   3.424  19.269  0.00  0.00    +0.000 OA
BRANCH  13  15
ATOM     15  O   UNL     1       0.681   4.083  17.295  0.00  0.00    +0.000 OA
ATOM     16  H   UNL     1       0.682   4.961  16.871  0.00  0.00    +0.000 HD
ENDBRANCH  13  15
ENDBRANCH   3  13
BRANCH   5  17
ATOM     17  C   UNL     1       5.736   6.913  17.076  0.00  0.00    +0.000 C 
ATOM     18  N   UNL     1       6.417   7.845  17.069  0.00  0.00    +0.000 NA
ENDBRANCH   5  17
BRANCH   1  19
ATOM     19  S   UNL     1       6.743   4.129  15.793  0.00  0.00    +0.000 S 
BRANCH  19  20
ATOM     20  C   UNL     1       6.419   4.717  14.087  0.00  0.00    +0.000 C 
BRANCH  20  22
ATOM     21  C   UNL     1       4.773   3.558  12.535  0.00  0.00    +0.000 C 
ATOM     22  C   UNL     1       6.209   3.590  13.058  0.00  0.00    +0.000 C 
ATOM     23  C   UNL     1       7.173   3.737  11.874  0.00  0.00    +0.000 C 
ENDBRANCH  20  22
ENDBRANCH  19  20
ENDBRANCH   1  19
TORSDOF 7
ENDMDL
MODEL 3
REMARK VINA RESULT:      -6.3      0.542      1.302
REMARK  Name = 
REMARK  9 active torsions:
REMARK  status: ('A' for Active; 'I' for Inactive)
REMARK    1  A    between atoms: C_1  and  C_2
REMARK    2  A    between atoms: C_2  and  C_3
REMARK    3  A    between atoms: C_2  and  C_4
REMARK    4  A    between atoms: C_4  and  S_5
REMARK    5  A    between atoms: S_5  and  C_6
REMARK    6  A    between atoms: C_8  and  C_9
REMARK    7  A    between atoms: C_9  and  O_11
REMARK    8  A    between atoms: C_12  and  C_13
REMARK    9  A    between atoms: C_20  and  C_21
REMARK                            x       y       z     vdW  Elec       q    Type
REMARK                         _______ _______ _______ _____ _____    ______ ____
ROOT
ATOM      1  C   UNL     1       5.351   4.730  16.702  0.00  0.00    +0.000 A 
ATOM      2  S   UNL     1       4.181   3.512  16.915  0.00  0.00    +0.000 S 
ATOM      3  C   UNL     1       3.073   4.571  17.689  0.00  0.00    +0.000 A 
ATOM      4  C   UNL     1       3.589   5.868  17.791  0.00  0.00    +0.000 A 
ATOM      5  C   UNL     1       4.937   5.936  17.232  0.00  0.00    +0.000 A 
ENDROOT
BRANCH   4   6
ATOM      6  C   UNL     1       2.827   6.991  18.378  0.00  0.00    +0.000 A 
ATOM      7  C   UNL     1       2.441   6.964  19.727  0.00  0.00    +0.000 A 
ATOM      8  C   UNL     1       1.745   8.029  20.305  0.00  0.00    +0.000 A 
ATOM      9  C   UNL     1       1.379   9.120  19.529  0.00  0.00    +0.000 A 
ATOM     10 CL   UNL     1       0.491  10.410  20.230  0.00  0.00    +0.000 Cl
ATOM     11  C   UNL     1       1.739   9.171  18.189  0.00  0.00    +0.000 A 
ATOM     12  C   UNL     1       2.486   8.131  17.631  0.00  0.00    +0.000 A 
ENDBRANCH   4   6
BRANCH   3  13
ATOM     13  C   UNL     1       1.811   4.003  18.164  0.00  0.00    +0.000 C 
ATOM     14  O   UNL     1       0.776   3.893  17.523  0.00  0.00    +0.000 OA
BRANCH  13  15
ATOM     15  O   UNL     1       1.894   3.520  19.433  0.00  0.00    +0.000 OA
ATOM     16  H   UNL     1       1.073   3.655  19.941  0.00  0.00    +0.000 HD
ENDBRANCH  13  15
ENDBRANCH   3  13
BRANCH   5  17
ATOM     17  C   UNL     1       5.773   7.119  17.193  0.00  0.00    +0.000 C 
ATOM     18  N   UNL     1       6.467   8.041  17.197  0.00  0.00    +0.000 NA
ENDBRANCH   5  17
BRANCH   1  19
ATOM     19  S   UNL     1       6.892   4.374  15.917  0.00  0.00    +0.000 S 
BRANCH  19  20
ATOM     20  C   UNL     1       6.349   3.557  14.368  0.00  0.00    +0.000 C 
BRANCH  20  22
ATOM     21  C   UNL     1       7.871   5.246  13.230  0.00  0.00    +0.000 C 
ATOM     22  C   UNL     1       6.621   4.376  13.092  0.00  0.00    +0.000 C 
ATOM     23  C   UNL     1       6.778   3.461  11.871  0.00  0.00    +0.000 C 
ENDBRANCH  20  22
ENDBRANCH  19  20
ENDBRANCH   1  19
TORSDOF 7
ENDMDL
MODEL 4
REMARK VINA RESULT:      -6.2      0.498      1.086
REMARK  Name = 
REMARK  9 active torsions:
REMARK  status: ('A' for Active; 'I' for Inactive)
REMARK    1  A    between atoms: C_1  and  C_2
REMARK    2  A    between atoms: C_2  and  C_3
REMARK    3  A    between atoms: C_2  and  C_4
REMARK    4  A    between atoms: C_4  and  S_5
REMARK    5  A    between atoms: S_5  and  C_6
REMARK    6  A    between atoms: C_8  and  C_9
REMARK    7  A    between atoms: C_9  and  O_11
REMARK    8  A    between atoms: C_12  and  C_13
REMARK    9  A    between atoms: C_20  and  C_21
REMARK                            x       y       z     vdW  Elec       q    Type
REMARK                         _______ _______ _______ _____ _____    ______ ____
ROOT
ATOM      1  C   UNL     1       5.312   4.763  16.554  0.00  0.00    +0.000 A 
ATOM      2  S   UNL     1       4.137   3.544  16.737  0.00  0.00    +0.000 S 
ATOM      3  C   UNL     1       3.060   4.570  17.594  0.00  0.00    +0.000 A 
ATOM      4  C   UNL     1       3.589   5.856  17.747  0.00  0.00    +0.000 A 
ATOM      5  C   UNL     1       4.921   5.943  17.155  0.00  0.00    +0.000 A 
ENDROOT
BRANCH   4   6
ATOM      6  C   UNL     1       2.853   6.954  18.410  0.00  0.00    +0.000 A 
ATOM      7  C   UNL     1       2.495   8.108  17.696  0.00  0.00    +0.000 A 
ATOM      8  C   UNL     1       1.776   9.143  18.300  0.00  0.00    +0.000 A 
ATOM      9  C   UNL     1       1.444   9.062  19.645  0.00  0.00    +0.000 A 
ATOM     10 CL   UNL     1       0.594  10.350  20.396  0.00  0.00    +0.000 Cl
ATOM     11  C   UNL     1       1.792   7.937  20.380  0.00  0.00    +0.000 A 
ATOM     12  C   UNL     1       2.459   6.880  19.757  0.00  0.00    +0.000 A 
ENDBRANCH   4   6
BRANCH   3  13
ATOM     13  C   UNL     1       1.807   3.987  18.074  0.00  0.00    +0.000 C 
ATOM     14  O   UNL     1       1.623   3.443  19.153  0.00  0.00    +0.000 OA
BRANCH  13  15
ATOM     15  O   UNL     1       0.777   4.155  17.200  0.00  0.00    +0.000 OA
ATOM     16  H   UNL     1       0.126   3.430  17.242  0.00  0.00    +0.000 HD
ENDBRANCH  13  15
ENDBRANCH   3  13
BRANCH   5  17
ATOM     17  C   UNL     1       5.766   7.121  17.153  0.00  0.00    +0.000 C 
ATOM     18  N   UNL     1       6.477   8.030  17.163  0.00  0.00    +0.000 NA
ENDBRANCH   5  17
BRANCH   1  19
ATOM     19  S   UNL     1       6.827   4.437  15.709  0.00  0.00    +0.000 S 
BRANCH  19  20
ATOM     20  C   UNL     1       6.268   3.379  14.320  0.00  0.00    +0.000 C 
BRANCH  20  22
ATOM     21  C   UNL     1       7.295   4.438  12.250  0.00  0.00    +0.000 C 
ATOM     22  C   UNL     1       6.001   4.143  13.010  0.00  0.00    +0.000 C 
ATOM     23  C   UNL     1       5.049   3.361  12.097  0.00  0.00    +0.000 C 
ENDBRANCH  20  22
ENDBRANCH  19  20
ENDBRANCH   1  19
TORSDOF 7
ENDMDL
MODEL 5
REMARK VINA RESULT:      -6.1      3.495      6.054
REMARK  Name = 
REMARK  9 active torsions:
REMARK  status: ('A' for Active; 'I' for Inactive)
REMARK    1  A    between atoms: C_1  and  C_2
REMARK    2  A    between atoms: C_2  and  C_3
REMARK    3  A    between atoms: C_2  and  C_4
REMARK    4  A    between atoms: C_4  and  S_5
REMARK    5  A    between atoms: S_5  and  C_6
REMARK    6  A    between atoms: C_8  and  C_9
REMARK    7  A    between atoms: C_9  and  O_11
REMARK    8  A    between atoms: C_12  and  C_13
REMARK    9  A    between atoms: C_20  and  C_21
REMARK                            x       y       z     vdW  Elec       q    Type
REMARK                         _______ _______ _______ _____ _____    ______ ____
ROOT
ATOM      1  C   UNL     1       3.297   4.180  17.431  0.00  0.00    +0.000 A 
ATOM      2  S   UNL     1       4.234   3.323  16.296  0.00  0.00    +0.000 S 
ATOM      3  C   UNL     1       5.564   4.399  16.429  0.00  0.00    +0.000 A 
ATOM      4  C   UNL     1       5.305   5.425  17.344  0.00  0.00    +0.000 A 
ATOM      5  C   UNL     1       3.960   5.296  17.902  0.00  0.00    +0.000 A 
ENDROOT
BRANCH   4   6
ATOM      6  C   UNL     1       6.296   6.468  17.684  0.00  0.00    +0.000 A 
ATOM      7  C   UNL     1       7.341   6.195  18.581  0.00  0.00    +0.000 A 
ATOM      8  C   UNL     1       8.302   7.160  18.893  0.00  0.00    +0.000 A 
ATOM      9  C   UNL     1       8.206   8.434  18.348  0.00  0.00    +0.000 A 
ATOM     10 CL   UNL     1       9.365   9.630  18.761  0.00  0.00    +0.000 Cl
ATOM     11  C   UNL     1       7.179   8.736  17.465  0.00  0.00    +0.000 A 
ATOM     12  C   UNL     1       6.255   7.750  17.112  0.00  0.00    +0.000 A 
ENDBRANCH   4   6
BRANCH   3  13
ATOM     13  C   UNL     1       6.726   4.149  15.576  0.00  0.00    +0.000 C 
ATOM     14  O   UNL     1       7.888   4.433  15.827  0.00  0.00    +0.000 OA
BRANCH  13  15
ATOM     15  O   UNL     1       6.409   3.481  14.434  0.00  0.00    +0.000 OA
ATOM     16  H   UNL     1       6.035   4.065  13.748  0.00  0.00    +0.000 HD
ENDBRANCH  13  15
ENDBRANCH   3  13
BRANCH   5  17
ATOM     17  C   UNL     1       3.357   6.199  18.860  0.00  0.00    +0.000 C 
ATOM     18  N   UNL     1       2.873   6.953  19.589  0.00  0.00    +0.000 NA
ENDBRANCH   5  17
BRANCH   1  19
ATOM     19  S   UNL     1       1.672   3.637  17.854  0.00  0.00    +0.000 S 
BRANCH  19  20
ATOM     20  C   UNL     1       2.013   2.386  19.150  0.00  0.00    +0.000 C 
BRANCH  20  22
ATOM     21  C   UNL     1       2.508   2.629  21.631  0.00  0.00    +0.000 C 
ATOM     22  C   UNL     1       1.446   2.740  20.537  0.00  0.00    +0.000 C 
ATOM     23  C   UNL     1       0.858   4.157  20.548  0.00  0.00    +0.000 C 
ENDBRANCH  20  22
ENDBRANCH  19  20
ENDBRANCH   1  19
TORSDOF 7
ENDMDL
MODEL 6
REMARK VINA RESULT:      -5.9      3.463      6.930
REMARK  Name = 
REMARK  9 active torsions:
REMARK  status: ('A' for Active; 'I' for Inactive)
REMARK    1  A    between atoms: C_1  and  C_2
REMARK    2  A    between atoms: C_2  and  C_3
REMARK    3  A    between atoms: C_2  and  C_4
REMARK    4  A    between atoms: C_4  and  S_5
REMARK    5  A    between atoms: S_5  and  C_6
REMARK    6  A    between atoms: C_8  and  C_9
REMARK    7  A    between atoms: C_9  and  O_11
REMARK    8  A    between atoms: C_12  and  C_13
REMARK    9  A    between atoms: C_20  and  C_21
REMARK                            x       y       z     vdW  Elec       q    Type
REMARK                         _______ _______ _______ _____ _____    ______ ____
ROOT
ATOM      1  C   UNL     1       1.877   6.059  20.095  0.00  0.00    +0.000 A 
ATOM      2  S   UNL     1       2.237   4.536  20.766  0.00  0.00    +0.000 S 
ATOM      3  C   UNL     1       3.420   4.177  19.574  0.00  0.00    +0.000 A 
ATOM      4  C   UNL     1       3.551   5.221  18.652  0.00  0.00    +0.000 A 
ATOM      5  C   UNL     1       2.620   6.304  18.957  0.00  0.00    +0.000 A 
ENDROOT
BRANCH   4   6
ATOM      6  C   UNL     1       4.529   5.194  17.543  0.00  0.00    +0.000 A 
ATOM      7  C   UNL     1       4.342   4.338  16.447  0.00  0.00    +0.000 A 
ATOM      8  C   UNL     1       5.241   4.318  15.377  0.00  0.00    +0.000 A 
ATOM      9  C   UNL     1       6.372   5.124  15.410  0.00  0.00    +0.000 A 
ATOM     10 CL   UNL     1       7.496   5.072  14.113  0.00  0.00    +0.000 Cl
ATOM     11  C   UNL     1       6.589   5.975  16.484  0.00  0.00    +0.000 A 
ATOM     12  C   UNL     1       5.656   6.032  17.523  0.00  0.00    +0.000 A 
ENDBRANCH   4   6
BRANCH   3  13
ATOM     13  C   UNL     1       4.075   2.871  19.642  0.00  0.00    +0.000 C 
ATOM     14  O   UNL     1       5.134   2.616  20.196  0.00  0.00    +0.000 OA
BRANCH  13  15
ATOM     15  O   UNL     1       3.346   1.884  19.055  0.00  0.00    +0.000 OA
ATOM     16  H   UNL     1       3.311   1.071  19.593  0.00  0.00    +0.000 HD
ENDBRANCH  13  15
ENDBRANCH   3  13
BRANCH   5  17
ATOM     17  C   UNL     1       2.472   7.527  18.194  0.00  0.00    +0.000 C 
ATOM     18  N   UNL     1       2.404   8.508  17.588  0.00  0.00    +0.000 NA
ENDBRANCH   5  17
BRANCH   1  19
ATOM     19  S   UNL     1       0.657   7.103  20.829  0.00  0.00    +0.000 S 
BRANCH  19  20
ATOM     20  C   UNL     1       1.687   8.419  21.583  0.00  0.00    +0.000 C 
BRANCH  20  22
ATOM     21  C   UNL     1       0.133  10.189  20.625  0.00  0.00    +0.000 C 
ATOM     22  C   UNL     1       0.936   9.737  21.846  0.00  0.00    +0.000 C 
ATOM     23  C   UNL     1      -0.009   9.605  23.048  0.00  0.00    +0.000 C 
ENDBRANCH  20  22
ENDBRANCH  19  20
ENDBRANCH   1  19
TORSDOF 7
ENDMDL
MODEL 7
REMARK VINA RESULT:      -5.9      3.454      6.866
REMARK  Name = 
REMARK  9 active torsions:
REMARK  status: ('A' for Active; 'I' for Inactive)
REMARK    1  A    between atoms: C_1  and  C_2
REMARK    2  A    between atoms: C_2  and  C_3
REMARK    3  A    between atoms: C_2  and  C_4
REMARK    4  A    between atoms: C_4  and  S_5
REMARK    5  A    between atoms: S_5  and  C_6
REMARK    6  A    between atoms: C_8  and  C_9
REMARK    7  A    between atoms: C_9  and  O_11
REMARK    8  A    between atoms: C_12  and  C_13
REMARK    9  A    between atoms: C_20  and  C_21
REMARK                            x       y       z     vdW  Elec       q    Type
REMARK                         _______ _______ _______ _____ _____    ______ ____
ROOT
ATOM      1  C   UNL     1       1.913   5.839  20.067  0.00  0.00    +0.000 A 
ATOM      2  S   UNL     1       2.211   4.260  20.629  0.00  0.00    +0.000 S 
ATOM      3  C   UNL     1       3.377   3.937  19.413  0.00  0.00    +0.000 A 
ATOM      4  C   UNL     1       3.551   5.036  18.564  0.00  0.00    +0.000 A 
ATOM      5  C   UNL     1       2.664   6.133  18.946  0.00  0.00    +0.000 A 
ENDROOT
BRANCH   4   6
ATOM      6  C   UNL     1       4.526   5.047  17.453  0.00  0.00    +0.000 A 
ATOM      7  C   UNL     1       5.676   5.850  17.520  0.00  0.00    +0.000 A 
ATOM      8  C   UNL     1       6.622   5.852  16.491  0.00  0.00    +0.000 A 
ATOM      9  C   UNL     1       6.409   5.086  15.353  0.00  0.00    +0.000 A 
ATOM     10 CL   UNL     1       7.553   5.118  14.074  0.00  0.00    +0.000 Cl
ATOM     11  C   UNL     1       5.277   4.289  15.254  0.00  0.00    +0.000 A 
ATOM     12  C   UNL     1       4.364   4.246  16.311  0.00  0.00    +0.000 A 
ENDBRANCH   4   6
BRANCH   3  13
ATOM     13  C   UNL     1       3.979   2.604  19.387  0.00  0.00    +0.000 C 
ATOM     14  O   UNL     1       3.501   1.599  18.881  0.00  0.00    +0.000 OA
BRANCH  13  15
ATOM     15  O   UNL     1       5.216   2.572  19.953  0.00  0.00    +0.000 OA
ATOM     16  H   UNL     1       5.712   1.763  19.728  0.00  0.00    +0.000 HD
ENDBRANCH  13  15
ENDBRANCH   3  13
BRANCH   5  17
ATOM     17  C   UNL     1       2.566   7.410  18.270  0.00  0.00    +0.000 C 
ATOM     18  N   UNL     1       2.486   8.451  17.776  0.00  0.00    +0.000 NA
ENDBRANCH   5  17
BRANCH   1  19
ATOM     19  S   UNL     1       0.737   6.879  20.875  0.00  0.00    +0.000 S 
BRANCH  19  20
ATOM     20  C   UNL     1       1.795   8.242  21.494  0.00  0.00    +0.000 C 
BRANCH  20  22
ATOM     21  C   UNL     1       0.131   9.947  20.609  0.00  0.00    +0.000 C 
ATOM     22  C   UNL     1       1.039   9.553  21.775  0.00  0.00    +0.000 C 
ATOM     23  C   UNL     1       0.196   9.443  23.052  0.00  0.00    +0.000 C 
ENDBRANCH  20  22
ENDBRANCH  19  20
ENDBRANCH   1  19
TORSDOF 7
ENDMDL
MODEL 8
REMARK VINA RESULT:      -5.9      3.476      5.859
REMARK  Name = 
REMARK  9 active torsions:
REMARK  status: ('A' for Active; 'I' for Inactive)
REMARK    1  A    between atoms: C_1  and  C_2
REMARK    2  A    between atoms: C_2  and  C_3
REMARK    3  A    between atoms: C_2  and  C_4
REMARK    4  A    between atoms: C_4  and  S_5
REMARK    5  A    between atoms: S_5  and  C_6
REMARK    6  A    between atoms: C_8  and  C_9
REMARK    7  A    between atoms: C_9  and  O_11
REMARK    8  A    between atoms: C_12  and  C_13
REMARK    9  A    between atoms: C_20  and  C_21
REMARK                            x       y       z     vdW  Elec       q    Type
REMARK                         _______ _______ _______ _____ _____    ______ ____
ROOT
ATOM      1  C   UNL     1       3.175   4.206  17.442  0.00  0.00    +0.000 A 
ATOM      2  S   UNL     1       4.081   3.336  16.293  0.00  0.00    +0.000 S 
ATOM      3  C   UNL     1       5.444   4.368  16.436  0.00  0.00    +0.000 A 
ATOM      4  C   UNL     1       5.220   5.389  17.366  0.00  0.00    +0.000 A 
ATOM      5  C   UNL     1       3.873   5.294  17.926  0.00  0.00    +0.000 A 
ENDROOT
BRANCH   4   6
ATOM      6  C   UNL     1       6.244   6.396  17.717  0.00  0.00    +0.000 A 
ATOM      7  C   UNL     1       6.202   7.682  17.155  0.00  0.00    +0.000 A 
ATOM      8  C   UNL     1       7.146   8.655  17.495  0.00  0.00    +0.000 A 
ATOM      9  C   UNL     1       8.179   8.341  18.369  0.00  0.00    +0.000 A 
ATOM     10 CL   UNL     1       9.359   9.525  18.757  0.00  0.00    +0.000 Cl
ATOM     11  C   UNL     1       8.251   7.075  18.933  0.00  0.00    +0.000 A 
ATOM     12  C   UNL     1       7.272   6.125  18.634  0.00  0.00    +0.000 A 
ENDBRANCH   4   6
BRANCH   3  13
ATOM     13  C   UNL     1       6.596   4.093  15.577  0.00  0.00    +0.000 C 
ATOM     14  O   UNL     1       7.757   4.407  15.793  0.00  0.00    +0.000 OA
BRANCH  13  15
ATOM     15  O   UNL     1       6.270   3.365  14.474  0.00  0.00    +0.000 OA
ATOM     16  H   UNL     1       5.355   3.523  14.175  0.00  0.00    +0.000 HD
ENDBRANCH  13  15
ENDBRANCH   3  13
BRANCH   5  17
ATOM     17  C   UNL     1       3.301   6.203  18.899  0.00  0.00    +0.000 C 
ATOM     18  N   UNL     1       2.800   6.909  19.663  0.00  0.00    +0.000 NA
ENDBRANCH   5  17
BRANCH   1  19
ATOM     19  S   UNL     1       1.534   3.708  17.863  0.00  0.00    +0.000 S 
BRANCH  19  20
ATOM     20  C   UNL     1       1.837   2.193  18.850  0.00  0.00    +0.000 C 
BRANCH  20  22
ATOM     21  C   UNL     1       3.558   2.655  20.663  0.00  0.00    +0.000 C 
ATOM     22  C   UNL     1       2.075   2.452  20.349  0.00  0.00    +0.000 C 
ATOM     23  C   UNL     1       1.287   3.677  20.831  0.00  0.00    +0.000 C 
ENDBRANCH  20  22
ENDBRANCH  19  20
ENDBRANCH   1  19
TORSDOF 7
ENDMDL
MODEL 9
REMARK VINA RESULT:      -5.7      1.278      1.583
REMARK  Name = 
REMARK  9 active torsions:
REMARK  status: ('A' for Active; 'I' for Inactive)
REMARK    1  A    between atoms: C_1  and  C_2
REMARK    2  A    between atoms: C_2  and  C_3
REMARK    3  A    between atoms: C_2  and  C_4
REMARK    4  A    between atoms: C_4  and  S_5
REMARK    5  A    between atoms: S_5  and  C_6
REMARK    6  A    between atoms: C_8  and  C_9
REMARK    7  A    between atoms: C_9  and  O_11
REMARK    8  A    between atoms: C_12  and  C_13
REMARK    9  A    between atoms: C_20  and  C_21
REMARK                            x       y       z     vdW  Elec       q    Type
REMARK                         _______ _______ _______ _____ _____    ______ ____
ROOT
ATOM      1  C   UNL     1       4.972   4.536  17.919  0.00  0.00    +0.000 A 
ATOM      2  S   UNL     1       4.032   3.484  18.873  0.00  0.00    +0.000 S 
ATOM      3  C   UNL     1       2.939   4.721  19.342  0.00  0.00    +0.000 A 
ATOM      4  C   UNL     1       3.283   5.953  18.773  0.00  0.00    +0.000 A 
ATOM      5  C   UNL     1       4.493   5.830  17.963  0.00  0.00    +0.000 A 
ENDROOT
BRANCH   4   6
ATOM      6  C   UNL     1       2.487   7.182  18.976  0.00  0.00    +0.000 A 
ATOM      7  C   UNL     1       2.166   8.012  17.891  0.00  0.00    +0.000 A 
ATOM      8  C   UNL     1       1.393   9.164  18.060  0.00  0.00    +0.000 A 
ATOM      9  C   UNL     1       0.966   9.530  19.330  0.00  0.00    +0.000 A 
ATOM     10 CL   UNL     1       0.047  10.964  19.543  0.00  0.00    +0.000 Cl
ATOM     11  C   UNL     1       1.275   8.734  20.424  0.00  0.00    +0.000 A 
ATOM     12  C   UNL     1       1.999   7.553  20.240  0.00  0.00    +0.000 A 
ENDBRANCH   4   6
BRANCH   3  13
ATOM     13  C   UNL     1       1.867   4.362  20.271  0.00  0.00    +0.000 C 
ATOM     14  O   UNL     1       0.714   4.084  19.978  0.00  0.00    +0.000 OA
BRANCH  13  15
ATOM     15  O   UNL     1       2.287   4.299  21.563  0.00  0.00    +0.000 OA
ATOM     16  H   UNL     1       3.243   4.121  21.641  0.00  0.00    +0.000 HD
ENDBRANCH  13  15
ENDBRANCH   3  13
BRANCH   5  17
ATOM     17  C   UNL     1       5.141   6.912  17.250  0.00  0.00    +0.000 C 
ATOM     18  N   UNL     1       5.624   7.806  16.700  0.00  0.00    +0.000 NA
ENDBRANCH   5  17
BRANCH   1  19
ATOM     19  S   UNL     1       6.389   3.943  17.050  0.00  0.00    +0.000 S 
BRANCH  19  20
ATOM     20  C   UNL     1       5.661   3.414  15.452  0.00  0.00    +0.000 C 
BRANCH  20  22
ATOM     21  C   UNL     1       7.246   5.153  14.492  0.00  0.00    +0.000 C 
ATOM     22  C   UNL     1       5.953   4.365  14.277  0.00  0.00    +0.000 C 
ATOM     23  C   UNL     1       6.047   3.597  12.953  0.00  0.00    +0.000 C 
ENDBRANCH  20  22
ENDBRANCH  19  20
ENDBRANCH   1  19
TORSDOF 7
ENDMDL
