MODEL 1
REMARK VINA RESULT:      -7.7      0.000      0.000
REMARK  Name = 
REMARK  7 active torsions:
REMARK  status: ('A' for Active; 'I' for Inactive)
REMARK    1  A    between atoms: C_1  and  C_2
REMARK    2  A    between atoms: C_2  and  C_3
REMARK    3  A    between atoms: C_6  and  S_7
REMARK    4  A    between atoms: S_7  and  N_10
REMARK    5  A    between atoms: N_10  and  C_11
REMARK    6  A    between atoms: C_14  and  O_15
REMARK    7  A    between atoms: C_20  and  C_21
REMARK                            x       y       z     vdW  Elec       q    Type
REMARK                         _______ _______ _______ _____ _____    ______ ____
ROOT
ATOM      1  C   UNL     1      -0.503  10.990  19.014  0.00  0.00    +0.000 A 
ATOM      2  C   UNL     1       0.376  10.043  18.483  0.00  0.00    +0.000 A 
ATOM      3  C   UNL     1       1.122   9.211  19.326  0.00  0.00    +0.000 A 
ATOM      4  C   UNL     1       0.953   9.297  20.705  0.00  0.00    +0.000 A 
ATOM      5  C   UNL     1       0.045  10.213  21.252  0.00  0.00    +0.000 A 
ATOM      6  C   UNL     1      -0.241  10.253  22.705  0.00  0.00    +0.000 A 
ATOM      7  O   UNL     1       0.373   9.630  23.558  0.00  0.00    +0.000 OA
ATOM      8  C   UNL     1      -1.339  11.123  23.124  0.00  0.00    +0.000 A 
ATOM      9  C   UNL     1      -1.840  12.001  22.248  0.00  0.00    +0.000 A 
ATOM     10  O   UNL     1      -1.518  12.055  20.905  0.00  0.00    +0.000 OA
ATOM     11  C   UNL     1      -0.666  11.086  20.410  0.00  0.00    +0.000 A 
ENDROOT
BRANCH   9  12
ATOM     12  C   UNL     1      -2.772  13.024  22.745  0.00  0.00    +0.000 A 
ATOM     13  C   UNL     1      -4.129  12.695  22.873  0.00  0.00    +0.000 A 
ATOM     14  C   UNL     1      -5.025  13.601  23.451  0.00  0.00    +0.000 A 
ATOM     15  C   UNL     1      -4.581  14.840  23.905  0.00  0.00    +0.000 A 
ATOM     16  C   UNL     1      -3.237  15.183  23.777  0.00  0.00    +0.000 A 
ATOM     17  C   UNL     1      -2.336  14.282  23.204  0.00  0.00    +0.000 A 
ATOM     18 CL   UNL     1      -0.674  14.768  23.104  0.00  0.00    +0.000 Cl
ENDBRANCH   9  12
BRANCH   1  19
ATOM     19  N   UNL     1      -1.329  11.739  18.093  0.00  0.00    +0.000 N 
ATOM     20  H   UNL     1      -1.812  12.502  18.591  0.00  0.00    +0.000 HD
BRANCH  19  21
ATOM     21  S   UNL     1      -2.543  10.777  17.355  0.00  0.00    +0.000 S 
ATOM     22  O   UNL     1      -2.522   9.495  18.027  0.00  0.00    +0.000 OA
ATOM     23  O   UNL     1      -2.431  10.882  15.910  0.00  0.00    +0.000 OA
BRANCH  21  27
ATOM     24  C   UNL     1      -6.407  12.958  18.542  0.00  0.00    +0.000 A 
ATOM     25  C   UNL     1      -5.398  12.720  19.490  0.00  0.00    +0.000 A 
ATOM     26  C   UNL     1      -4.222  12.052  19.130  0.00  0.00    +0.000 A 
ATOM     27  C   UNL     1      -4.051  11.615  17.815  0.00  0.00    +0.000 A 
ATOM     28  C   UNL     1      -5.025  11.885  16.848  0.00  0.00    +0.000 A 
ATOM     29  C   UNL     1      -6.199  12.555  17.216  0.00  0.00    +0.000 A 
BRANCH  24  31
ATOM     30  C   UNL     1      -7.525  15.053  19.430  0.00  0.00    +0.000 C 
ATOM     31  C   UNL     1      -7.699  13.623  18.955  0.00  0.00    +0.000 C 
ENDBRANCH  24  31
ENDBRANCH  21  27
ENDBRANCH  19  21
ENDBRANCH   1  19
BRANCH   4  32
ATOM     32  O   UNL     1       1.668   8.458  21.507  0.00  0.00    +0.000 OA
ATOM     33  H   UNL     1       1.935   7.659  21.025  0.00  0.00    +0.000 HD
ENDBRANCH   4  32
TORSDOF 6
ENDMDL
MODEL 2
REMARK VINA RESULT:      -7.6      2.888      5.821
REMARK  Name = 
REMARK  7 active torsions:
REMARK  status: ('A' for Active; 'I' for Inactive)
REMARK    1  A    between atoms: C_1  and  C_2
REMARK    2  A    between atoms: C_2  and  C_3
REMARK    3  A    between atoms: C_6  and  S_7
REMARK    4  A    between atoms: S_7  and  N_10
REMARK    5  A    between atoms: N_10  and  C_11
REMARK    6  A    between atoms: C_14  and  O_15
REMARK    7  A    between atoms: C_20  and  C_21
REMARK                            x       y       z     vdW  Elec       q    Type
REMARK                         _______ _______ _______ _____ _____    ______ ____
ROOT
ATOM      1  C   UNL     1      -5.433  13.261  22.503  0.00  0.00    +0.000 A 
ATOM      2  C   UNL     1      -6.365  14.210  22.931  0.00  0.00    +0.000 A 
ATOM      3  C   UNL     1      -5.998  15.209  23.840  0.00  0.00    +0.000 A 
ATOM      4  C   UNL     1      -4.682  15.284  24.287  0.00  0.00    +0.000 A 
ATOM      5  C   UNL     1      -3.727  14.365  23.837  0.00  0.00    +0.000 A 
ATOM      6  C   UNL     1      -2.297  14.484  24.205  0.00  0.00    +0.000 A 
ATOM      7  O   UNL     1      -1.848  15.266  25.030  0.00  0.00    +0.000 OA
ATOM      8  C   UNL     1      -1.375  13.576  23.523  0.00  0.00    +0.000 A 
ATOM      9  C   UNL     1      -1.876  12.551  22.825  0.00  0.00    +0.000 A 
ATOM     10  O   UNL     1      -3.215  12.356  22.548  0.00  0.00    +0.000 OA
ATOM     11  C   UNL     1      -4.104  13.329  22.965  0.00  0.00    +0.000 A 
ENDROOT
BRANCH   9  12
ATOM     12  C   UNL     1      -0.946  11.517  22.345  0.00  0.00    +0.000 A 
ATOM     13  C   UNL     1      -0.841  10.317  23.064  0.00  0.00    +0.000 A 
ATOM     14  C   UNL     1      -0.057   9.267  22.576  0.00  0.00    +0.000 A 
ATOM     15  C   UNL     1       0.629   9.399  21.371  0.00  0.00    +0.000 A 
ATOM     16  C   UNL     1       0.540  10.588  20.651  0.00  0.00    +0.000 A 
ATOM     17  C   UNL     1      -0.243  11.640  21.131  0.00  0.00    +0.000 A 
ATOM     18 CL   UNL     1      -0.328  13.078  20.165  0.00  0.00    +0.000 Cl
ENDBRANCH   9  12
BRANCH   1  19
ATOM     19  N   UNL     1      -5.842  12.327  21.477  0.00  0.00    +0.000 N 
ATOM     20  H   UNL     1      -5.099  11.629  21.318  0.00  0.00    +0.000 HD
BRANCH  19  21
ATOM     21  S   UNL     1      -6.144  13.086  19.967  0.00  0.00    +0.000 S 
ATOM     22  O   UNL     1      -5.654  14.443  20.081  0.00  0.00    +0.000 OA
ATOM     23  O   UNL     1      -7.505  12.800  19.547  0.00  0.00    +0.000 OA
BRANCH  21  27
ATOM     24  C   UNL     1      -3.368  10.790  17.118  0.00  0.00    +0.000 A 
ATOM     25  C   UNL     1      -2.885  11.298  18.336  0.00  0.00    +0.000 A 
ATOM     26  C   UNL     1      -3.729  12.001  19.202  0.00  0.00    +0.000 A 
ATOM     27  C   UNL     1      -5.066  12.201  18.852  0.00  0.00    +0.000 A 
ATOM     28  C   UNL     1      -5.574  11.663  17.666  0.00  0.00    +0.000 A 
ATOM     29  C   UNL     1      -4.723  10.959  16.805  0.00  0.00    +0.000 A 
BRANCH  24  31
ATOM     30  C   UNL     1      -2.925  10.080  14.724  0.00  0.00    +0.000 C 
ATOM     31  C   UNL     1      -2.435  10.088  16.160  0.00  0.00    +0.000 C 
ENDBRANCH  24  31
ENDBRANCH  21  27
ENDBRANCH  19  21
ENDBRANCH   1  19
BRANCH   4  32
ATOM     32  O   UNL     1      -4.340  16.282  25.151  0.00  0.00    +0.000 OA
ATOM     33  H   UNL     1      -4.008  15.919  25.989  0.00  0.00    +0.000 HD
ENDBRANCH   4  32
TORSDOF 6
ENDMDL
MODEL 3
REMARK VINA RESULT:      -7.6      1.087      1.232
REMARK  Name = 
REMARK  7 active torsions:
REMARK  status: ('A' for Active; 'I' for Inactive)
REMARK    1  A    between atoms: C_1  and  C_2
REMARK    2  A    between atoms: C_2  and  C_3
REMARK    3  A    between atoms: C_6  and  S_7
REMARK    4  A    between atoms: S_7  and  N_10
REMARK    5  A    between atoms: N_10  and  C_11
REMARK    6  A    between atoms: C_14  and  O_15
REMARK    7  A    between atoms: C_20  and  C_21
REMARK                            x       y       z     vdW  Elec       q    Type
REMARK                         _______ _______ _______ _____ _____    ______ ____
ROOT
ATOM      1  C   UNL     1      -0.295  10.842  18.726  0.00  0.00    +0.000 A 
ATOM      2  C   UNL     1       0.469   9.934  17.988  0.00  0.00    +0.000 A 
ATOM      3  C   UNL     1       1.277   8.992  18.635  0.00  0.00    +0.000 A 
ATOM      4  C   UNL     1       1.286   8.930  20.025  0.00  0.00    +0.000 A 
ATOM      5  C   UNL     1       0.495   9.806  20.779  0.00  0.00    +0.000 A 
ATOM      6  C   UNL     1       0.395   9.694  22.252  0.00  0.00    +0.000 A 
ATOM      7  O   UNL     1       1.084   8.962  22.948  0.00  0.00    +0.000 OA
ATOM      8  C   UNL     1      -0.604  10.543  22.900  0.00  0.00    +0.000 A 
ATOM      9  C   UNL     1      -1.172  11.527  22.194  0.00  0.00    +0.000 A 
ATOM     10  O   UNL     1      -1.019  11.721  20.835  0.00  0.00    +0.000 OA
ATOM     11  C   UNL     1      -0.278  10.788  20.134  0.00  0.00    +0.000 A 
ENDROOT
BRANCH   9  12
ATOM     12  C   UNL     1      -1.990  12.516  22.913  0.00  0.00    +0.000 A 
ATOM     13  C   UNL     1      -3.204  12.103  23.480  0.00  0.00    +0.000 A 
ATOM     14  C   UNL     1      -3.951  12.983  24.270  0.00  0.00    +0.000 A 
ATOM     15  C   UNL     1      -3.500  14.280  24.501  0.00  0.00    +0.000 A 
ATOM     16  C   UNL     1      -2.299  14.706  23.937  0.00  0.00    +0.000 A 
ATOM     17  C   UNL     1      -1.546  13.831  23.151  0.00  0.00    +0.000 A 
ATOM     18 CL   UNL     1      -0.049  14.423  22.506  0.00  0.00    +0.000 Cl
ENDBRANCH   9  12
BRANCH   1  19
ATOM     19  N   UNL     1      -1.197  11.712  18.003  0.00  0.00    +0.000 N 
ATOM     20  H   UNL     1      -1.575  12.433  18.636  0.00  0.00    +0.000 HD
BRANCH  19  21
ATOM     21  S   UNL     1      -2.540  10.875  17.340  0.00  0.00    +0.000 S 
ATOM     22  O   UNL     1      -2.342   9.473  17.635  0.00  0.00    +0.000 OA
ATOM     23  O   UNL     1      -2.779  11.343  15.985  0.00  0.00    +0.000 OA
BRANCH  21  27
ATOM     24  C   UNL     1      -6.046  12.407  19.883  0.00  0.00    +0.000 A 
ATOM     25  C   UNL     1      -4.728  12.809  20.161  0.00  0.00    +0.000 A 
ATOM     26  C   UNL     1      -3.660  12.339  19.389  0.00  0.00    +0.000 A 
ATOM     27  C   UNL     1      -3.905  11.460  18.332  0.00  0.00    +0.000 A 
ATOM     28  C   UNL     1      -5.214  11.086  18.013  0.00  0.00    +0.000 A 
ATOM     29  C   UNL     1      -6.279  11.562  18.789  0.00  0.00    +0.000 A 
BRANCH  24  31
ATOM     30  C   UNL     1      -7.741  11.781  21.661  0.00  0.00    +0.000 C 
ATOM     31  C   UNL     1      -7.185  12.868  20.760  0.00  0.00    +0.000 C 
ENDBRANCH  24  31
ENDBRANCH  21  27
ENDBRANCH  19  21
ENDBRANCH   1  19
BRANCH   4  32
ATOM     32  O   UNL     1       2.060   7.987  20.634  0.00  0.00    +0.000 OA
ATOM     33  H   UNL     1       2.865   8.383  21.005  0.00  0.00    +0.000 HD
ENDBRANCH   4  32
TORSDOF 6
ENDMDL
MODEL 4
REMARK VINA RESULT:      -7.6      2.512      5.538
REMARK  Name = 
REMARK  7 active torsions:
REMARK  status: ('A' for Active; 'I' for Inactive)
REMARK    1  A    between atoms: C_1  and  C_2
REMARK    2  A    between atoms: C_2  and  C_3
REMARK    3  A    between atoms: C_6  and  S_7
REMARK    4  A    between atoms: S_7  and  N_10
REMARK    5  A    between atoms: N_10  and  C_11
REMARK    6  A    between atoms: C_14  and  O_15
REMARK    7  A    between atoms: C_20  and  C_21
REMARK                            x       y       z     vdW  Elec       q    Type
REMARK                         _______ _______ _______ _____ _____    ______ ____
ROOT
ATOM      1  C   UNL     1      -5.001  11.735  18.412  0.00  0.00    +0.000 A 
ATOM      2  C   UNL     1      -6.166  11.025  18.110  0.00  0.00    +0.000 A 
ATOM      3  C   UNL     1      -7.131  10.788  19.094  0.00  0.00    +0.000 A 
ATOM      4  C   UNL     1      -6.950  11.301  20.375  0.00  0.00    +0.000 A 
ATOM      5  C   UNL     1      -5.808  12.049  20.683  0.00  0.00    +0.000 A 
ATOM      6  C   UNL     1      -5.637  12.704  22.001  0.00  0.00    +0.000 A 
ATOM      7  O   UNL     1      -6.366  12.536  22.968  0.00  0.00    +0.000 OA
ATOM      8  C   UNL     1      -4.493  13.605  22.133  0.00  0.00    +0.000 A 
ATOM      9  C   UNL     1      -3.549  13.595  21.186  0.00  0.00    +0.000 A 
ATOM     10  O   UNL     1      -3.633  12.914  19.987  0.00  0.00    +0.000 OA
ATOM     11  C   UNL     1      -4.811  12.244  19.711  0.00  0.00    +0.000 A 
ENDROOT
BRANCH   9  12
ATOM     12  C   UNL     1      -2.298  14.325  21.443  0.00  0.00    +0.000 A 
ATOM     13  C   UNL     1      -2.141  15.608  20.900  0.00  0.00    +0.000 A 
ATOM     14  C   UNL     1      -1.018  16.378  21.219  0.00  0.00    +0.000 A 
ATOM     15  C   UNL     1      -0.041  15.880  22.078  0.00  0.00    +0.000 A 
ATOM     16  C   UNL     1      -0.181  14.604  22.618  0.00  0.00    +0.000 A 
ATOM     17  C   UNL     1      -1.302  13.830  22.307  0.00  0.00    +0.000 A 
ATOM     18 CL   UNL     1      -1.420  12.263  23.040  0.00  0.00    +0.000 Cl
ENDBRANCH   9  12
BRANCH   1  19
ATOM     19  N   UNL     1      -4.097  12.046  17.326  0.00  0.00    +0.000 N 
ATOM     20  H   UNL     1      -4.625  12.155  16.447  0.00  0.00    +0.000 HD
BRANCH  19  21
ATOM     21  S   UNL     1      -2.929  10.817  17.059  0.00  0.00    +0.000 S 
ATOM     22  O   UNL     1      -2.527  10.922  15.673  0.00  0.00    +0.000 OA
ATOM     23  O   UNL     1      -3.409   9.566  17.621  0.00  0.00    +0.000 OA
BRANCH  21  27
ATOM     24  C   UNL     1       0.617  12.151  19.655  0.00  0.00    +0.000 A 
ATOM     25  C   UNL     1       0.085  10.856  19.778  0.00  0.00    +0.000 A 
ATOM     26  C   UNL     1      -0.998  10.451  18.990  0.00  0.00    +0.000 A 
ATOM     27  C   UNL     1      -1.557  11.343  18.073  0.00  0.00    +0.000 A 
ATOM     28  C   UNL     1      -1.012  12.620  17.906  0.00  0.00    +0.000 A 
ATOM     29  C   UNL     1       0.074  13.018  18.698  0.00  0.00    +0.000 A 
BRANCH  24  31
ATOM     30  C   UNL     1       2.448  13.855  20.071  0.00  0.00    +0.000 C 
ATOM     31  C   UNL     1       1.744  12.600  20.554  0.00  0.00    +0.000 C 
ENDBRANCH  24  31
ENDBRANCH  21  27
ENDBRANCH  19  21
ENDBRANCH   1  19
BRANCH   4  32
ATOM     32  O   UNL     1      -7.917  11.082  21.312  0.00  0.00    +0.000 OA
ATOM     33  H   UNL     1      -7.941  10.147  21.575  0.00  0.00    +0.000 HD
ENDBRANCH   4  32
TORSDOF 6
ENDMDL
MODEL 5
REMARK VINA RESULT:      -7.5      6.716     10.380
REMARK  Name = 
REMARK  7 active torsions:
REMARK  status: ('A' for Active; 'I' for Inactive)
REMARK    1  A    between atoms: C_1  and  C_2
REMARK    2  A    between atoms: C_2  and  C_3
REMARK    3  A    between atoms: C_6  and  S_7
REMARK    4  A    between atoms: S_7  and  N_10
REMARK    5  A    between atoms: N_10  and  C_11
REMARK    6  A    between atoms: C_14  and  O_15
REMARK    7  A    between atoms: C_20  and  C_21
REMARK                            x       y       z     vdW  Elec       q    Type
REMARK                         _______ _______ _______ _____ _____    ______ ____
ROOT
ATOM      1  C   UNL     1       4.800   5.288  18.532  0.00  0.00    +0.000 A 
ATOM      2  C   UNL     1       5.363   4.020  18.367  0.00  0.00    +0.000 A 
ATOM      3  C   UNL     1       4.867   2.922  19.080  0.00  0.00    +0.000 A 
ATOM      4  C   UNL     1       3.775   3.087  19.927  0.00  0.00    +0.000 A 
ATOM      5  C   UNL     1       3.174   4.343  20.072  0.00  0.00    +0.000 A 
ATOM      6  C   UNL     1       1.944   4.530  20.877  0.00  0.00    +0.000 A 
ATOM      7  O   UNL     1       1.439   3.679  21.594  0.00  0.00    +0.000 OA
ATOM      8  C   UNL     1       1.313   5.847  20.798  0.00  0.00    +0.000 A 
ATOM      9  C   UNL     1       1.989   6.855  20.236  0.00  0.00    +0.000 A 
ATOM     10  O   UNL     1       3.189   6.731  19.565  0.00  0.00    +0.000 OA
ATOM     11  C   UNL     1       3.702   5.458  19.399  0.00  0.00    +0.000 A 
ENDROOT
BRANCH   9  12
ATOM     12  C   UNL     1       1.448   8.216  20.374  0.00  0.00    +0.000 A 
ATOM     13  C   UNL     1       1.102   8.679  21.652  0.00  0.00    +0.000 A 
ATOM     14  C   UNL     1       0.696  10.004  21.838  0.00  0.00    +0.000 A 
ATOM     15  C   UNL     1       0.628  10.880  20.757  0.00  0.00    +0.000 A 
ATOM     16  C   UNL     1       0.961  10.431  19.481  0.00  0.00    +0.000 A 
ATOM     17  C   UNL     1       1.371   9.110  19.288  0.00  0.00    +0.000 A 
ATOM     18 CL   UNL     1       1.797   8.632  17.676  0.00  0.00    +0.000 Cl
ENDBRANCH   9  12
BRANCH   1  19
ATOM     19  N   UNL     1       5.280   6.357  17.683  0.00  0.00    +0.000 N 
ATOM     20  H   UNL     1       4.661   6.464  16.866  0.00  0.00    +0.000 HD
BRANCH  19  21
ATOM     21  S   UNL     1       6.860   6.068  17.079  0.00  0.00    +0.000 S 
ATOM     22  O   UNL     1       7.492   5.146  17.996  0.00  0.00    +0.000 OA
ATOM     23  O   UNL     1       7.479   7.334  16.723  0.00  0.00    +0.000 OA
BRANCH  21  27
ATOM     24  C   UNL     1       6.043   3.855  13.138  0.00  0.00    +0.000 A 
ATOM     25  C   UNL     1       5.057   3.933  14.135  0.00  0.00    +0.000 A 
ATOM     26  C   UNL     1       5.306   4.603  15.337  0.00  0.00    +0.000 A 
ATOM     27  C   UNL     1       6.550   5.201  15.550  0.00  0.00    +0.000 A 
ATOM     28  C   UNL     1       7.527   5.173  14.550  0.00  0.00    +0.000 A 
ATOM     29  C   UNL     1       7.269   4.501  13.348  0.00  0.00    +0.000 A 
BRANCH  24  31
ATOM     30  C   UNL     1       4.355   3.164  11.377  0.00  0.00    +0.000 C 
ATOM     31  C   UNL     1       5.787   3.076  11.870  0.00  0.00    +0.000 C 
ENDBRANCH  24  31
ENDBRANCH  21  27
ENDBRANCH  19  21
ENDBRANCH   1  19
BRANCH   4  32
ATOM     32  O   UNL     1       3.291   1.999  20.590  0.00  0.00    +0.000 OA
ATOM     33  H   UNL     1       3.142   1.257  19.982  0.00  0.00    +0.000 HD
ENDBRANCH   4  32
TORSDOF 6
ENDMDL
MODEL 6
REMARK VINA RESULT:      -7.3      6.591     10.650
REMARK  Name = 
REMARK  7 active torsions:
REMARK  status: ('A' for Active; 'I' for Inactive)
REMARK    1  A    between atoms: C_1  and  C_2
REMARK    2  A    between atoms: C_2  and  C_3
REMARK    3  A    between atoms: C_6  and  S_7
REMARK    4  A    between atoms: S_7  and  N_10
REMARK    5  A    between atoms: N_10  and  C_11
REMARK    6  A    between atoms: C_14  and  O_15
REMARK    7  A    between atoms: C_20  and  C_21
REMARK                            x       y       z     vdW  Elec       q    Type
REMARK                         _______ _______ _______ _____ _____    ______ ____
ROOT
ATOM      1  C   UNL     1       5.190   4.737  19.242  0.00  0.00    +0.000 A 
ATOM      2  C   UNL     1       5.580   3.407  19.068  0.00  0.00    +0.000 A 
ATOM      3  C   UNL     1       4.681   2.460  18.565  0.00  0.00    +0.000 A 
ATOM      4  C   UNL     1       3.401   2.857  18.191  0.00  0.00    +0.000 A 
ATOM      5  C   UNL     1       3.007   4.195  18.320  0.00  0.00    +0.000 A 
ATOM      6  C   UNL     1       1.693   4.672  17.829  0.00  0.00    +0.000 A 
ATOM      7  O   UNL     1       0.793   3.951  17.423  0.00  0.00    +0.000 OA
ATOM      8  C   UNL     1       1.479   6.118  17.853  0.00  0.00    +0.000 A 
ATOM      9  C   UNL     1       2.338   6.887  18.531  0.00  0.00    +0.000 A 
ATOM     10  O   UNL     1       3.525   6.453  19.090  0.00  0.00    +0.000 OA
ATOM     11  C   UNL     1       3.890   5.137  18.875  0.00  0.00    +0.000 A 
ENDROOT
BRANCH   9  12
ATOM     12  C   UNL     1       1.985   8.299  18.747  0.00  0.00    +0.000 A 
ATOM     13  C   UNL     1       2.199   9.215  17.707  0.00  0.00    +0.000 A 
ATOM     14  C   UNL     1       1.768  10.540  17.832  0.00  0.00    +0.000 A 
ATOM     15  C   UNL     1       1.124  10.966  18.991  0.00  0.00    +0.000 A 
ATOM     16  C   UNL     1       0.913  10.069  20.035  0.00  0.00    +0.000 A 
ATOM     17  C   UNL     1       1.337   8.743  19.916  0.00  0.00    +0.000 A 
ATOM     18 CL   UNL     1       1.013   7.677  21.246  0.00  0.00    +0.000 Cl
ENDBRANCH   9  12
BRANCH   1  19
ATOM     19  N   UNL     1       6.197   5.689  19.657  0.00  0.00    +0.000 N 
ATOM     20  H   UNL     1       5.795   6.638  19.686  0.00  0.00    +0.000 HD
BRANCH  19  21
ATOM     21  S   UNL     1       7.538   5.748  18.587  0.00  0.00    +0.000 S 
ATOM     22  O   UNL     1       8.428   4.676  18.979  0.00  0.00    +0.000 OA
ATOM     23  O   UNL     1       8.003   7.120  18.471  0.00  0.00    +0.000 OA
BRANCH  21  27
ATOM     24  C   UNL     1       5.686   4.661  14.527  0.00  0.00    +0.000 A 
ATOM     25  C   UNL     1       5.296   5.829  15.204  0.00  0.00    +0.000 A 
ATOM     26  C   UNL     1       5.857   6.158  16.443  0.00  0.00    +0.000 A 
ATOM     27  C   UNL     1       6.813   5.316  17.014  0.00  0.00    +0.000 A 
ATOM     28  C   UNL     1       7.246   4.174  16.332  0.00  0.00    +0.000 A 
ATOM     29  C   UNL     1       6.681   3.852  15.092  0.00  0.00    +0.000 A 
BRANCH  24  31
ATOM     30  C   UNL     1       5.860   3.339  12.370  0.00  0.00    +0.000 C 
ATOM     31  C   UNL     1       5.029   4.280  13.222  0.00  0.00    +0.000 C 
ENDBRANCH  24  31
ENDBRANCH  21  27
ENDBRANCH  19  21
ENDBRANCH   1  19
BRANCH   4  32
ATOM     32  O   UNL     1       2.549   1.924  17.676  0.00  0.00    +0.000 OA
ATOM     33  H   UNL     1       2.842   1.025  17.897  0.00  0.00    +0.000 HD
ENDBRANCH   4  32
TORSDOF 6
ENDMDL
MODEL 7
REMARK VINA RESULT:      -7.3      2.455      6.514
REMARK  Name = 
REMARK  7 active torsions:
REMARK  status: ('A' for Active; 'I' for Inactive)
REMARK    1  A    between atoms: C_1  and  C_2
REMARK    2  A    between atoms: C_2  and  C_3
REMARK    3  A    between atoms: C_6  and  S_7
REMARK    4  A    between atoms: S_7  and  N_10
REMARK    5  A    between atoms: N_10  and  C_11
REMARK    6  A    between atoms: C_14  and  O_15
REMARK    7  A    between atoms: C_20  and  C_21
REMARK                            x       y       z     vdW  Elec       q    Type
REMARK                         _______ _______ _______ _____ _____    ______ ____
ROOT
ATOM      1  C   UNL     1      -1.470  11.160  18.819  0.00  0.00    +0.000 A 
ATOM      2  C   UNL     1      -1.756  10.379  17.696  0.00  0.00    +0.000 A 
ATOM      3  C   UNL     1      -3.063  10.294  17.203  0.00  0.00    +0.000 A 
ATOM      4  C   UNL     1      -4.078  11.028  17.809  0.00  0.00    +0.000 A 
ATOM      5  C   UNL     1      -3.800  11.846  18.910  0.00  0.00    +0.000 A 
ATOM      6  C   UNL     1      -4.831  12.725  19.509  0.00  0.00    +0.000 A 
ATOM      7  O   UNL     1      -6.019  12.711  19.219  0.00  0.00    +0.000 OA
ATOM      8  C   UNL     1      -4.369  13.665  20.530  0.00  0.00    +0.000 A 
ATOM      9  C   UNL     1      -3.142  13.512  21.040  0.00  0.00    +0.000 A 
ATOM     10  O   UNL     1      -2.189  12.630  20.569  0.00  0.00    +0.000 OA
ATOM     11  C   UNL     1      -2.499  11.893  19.441  0.00  0.00    +0.000 A 
ENDROOT
BRANCH   9  12
ATOM     12  C   UNL     1      -2.778  14.307  22.223  0.00  0.00    +0.000 A 
ATOM     13  C   UNL     1      -2.385  15.641  22.046  0.00  0.00    +0.000 A 
ATOM     14  C   UNL     1      -2.145  16.461  23.153  0.00  0.00    +0.000 A 
ATOM     15  C   UNL     1      -2.292  15.962  24.445  0.00  0.00    +0.000 A 
ATOM     16  C   UNL     1      -2.674  14.637  24.636  0.00  0.00    +0.000 A 
ATOM     17  C   UNL     1      -2.919  13.813  23.535  0.00  0.00    +0.000 A 
ATOM     18 CL   UNL     1      -3.419  12.183  23.851  0.00  0.00    +0.000 Cl
ENDBRANCH   9  12
BRANCH   1  19
ATOM     19  N   UNL     1      -0.084  11.299  19.211  0.00  0.00    +0.000 N 
ATOM     20  H   UNL     1       0.532  11.090  18.411  0.00  0.00    +0.000 HD
BRANCH  19  21
ATOM     21  S   UNL     1       0.360  10.229  20.476  0.00  0.00    +0.000 S 
ATOM     22  O   UNL     1      -0.856   9.584  20.920  0.00  0.00    +0.000 OA
ATOM     23  O   UNL     1       1.240  10.918  21.405  0.00  0.00    +0.000 OA
BRANCH  21  27
ATOM     24  C   UNL     1       2.902   7.072  18.315  0.00  0.00    +0.000 A 
ATOM     25  C   UNL     1       2.467   6.862  19.635  0.00  0.00    +0.000 A 
ATOM     26  C   UNL     1       1.696   7.826  20.295  0.00  0.00    +0.000 A 
ATOM     27  C   UNL     1       1.357   9.008  19.636  0.00  0.00    +0.000 A 
ATOM     28  C   UNL     1       1.742   9.213  18.308  0.00  0.00    +0.000 A 
ATOM     29  C   UNL     1       2.512   8.243  17.653  0.00  0.00    +0.000 A 
BRANCH  24  31
ATOM     30  C   UNL     1       4.839   6.670  16.729  0.00  0.00    +0.000 C 
ATOM     31  C   UNL     1       3.786   6.055  17.633  0.00  0.00    +0.000 C 
ENDBRANCH  24  31
ENDBRANCH  21  27
ENDBRANCH  19  21
ENDBRANCH   1  19
BRANCH   4  32
ATOM     32  O   UNL     1      -5.339  10.951  17.295  0.00  0.00    +0.000 OA
ATOM     33  H   UNL     1      -5.319  10.692  16.360  0.00  0.00    +0.000 HD
ENDBRANCH   4  32
TORSDOF 6
ENDMDL
MODEL 8
REMARK VINA RESULT:      -7.3      6.059      9.933
REMARK  Name = 
REMARK  7 active torsions:
REMARK  status: ('A' for Active; 'I' for Inactive)
REMARK    1  A    between atoms: C_1  and  C_2
REMARK    2  A    between atoms: C_2  and  C_3
REMARK    3  A    between atoms: C_6  and  S_7
REMARK    4  A    between atoms: S_7  and  N_10
REMARK    5  A    between atoms: N_10  and  C_11
REMARK    6  A    between atoms: C_14  and  O_15
REMARK    7  A    between atoms: C_20  and  C_21
REMARK                            x       y       z     vdW  Elec       q    Type
REMARK                         _______ _______ _______ _____ _____    ______ ____
ROOT
ATOM      1  C   UNL     1       2.567   5.954  19.432  0.00  0.00    +0.000 A 
ATOM      2  C   UNL     1       1.661   5.765  20.478  0.00  0.00    +0.000 A 
ATOM      3  C   UNL     1       1.239   4.478  20.831  0.00  0.00    +0.000 A 
ATOM      4  C   UNL     1       1.759   3.375  20.163  0.00  0.00    +0.000 A 
ATOM      5  C   UNL     1       2.699   3.545  19.138  0.00  0.00    +0.000 A 
ATOM      6  C   UNL     1       3.356   2.390  18.483  0.00  0.00    +0.000 A 
ATOM      7  O   UNL     1       3.045   1.219  18.650  0.00  0.00    +0.000 OA
ATOM      8  C   UNL     1       4.449   2.702  17.564  0.00  0.00    +0.000 A 
ATOM      9  C   UNL     1       4.623   3.970  17.174  0.00  0.00    +0.000 A 
ATOM     10  O   UNL     1       3.954   5.061  17.694  0.00  0.00    +0.000 OA
ATOM     11  C   UNL     1       3.085   4.838  18.746  0.00  0.00    +0.000 A 
ENDROOT
BRANCH   9  12
ATOM     12  C   UNL     1       5.565   4.235  16.076  0.00  0.00    +0.000 A 
ATOM     13  C   UNL     1       5.188   3.901  14.767  0.00  0.00    +0.000 A 
ATOM     14  C   UNL     1       6.005   4.245  13.686  0.00  0.00    +0.000 A 
ATOM     15  C   UNL     1       7.204   4.922  13.895  0.00  0.00    +0.000 A 
ATOM     16  C   UNL     1       7.595   5.253  15.190  0.00  0.00    +0.000 A 
ATOM     17  C   UNL     1       6.782   4.916  16.275  0.00  0.00    +0.000 A 
ATOM     18 CL   UNL     1       7.320   5.387  17.855  0.00  0.00    +0.000 Cl
ENDBRANCH   9  12
BRANCH   1  19
ATOM     19  N   UNL     1       3.053   7.295  19.191  0.00  0.00    +0.000 N 
ATOM     20  H   UNL     1       3.067   7.830  20.073  0.00  0.00    +0.000 HD
BRANCH  19  21
ATOM     21  S   UNL     1       2.068   8.172  18.092  0.00  0.00    +0.000 S 
ATOM     22  O   UNL     1       1.154   7.218  17.502  0.00  0.00    +0.000 OA
ATOM     23  O   UNL     1       2.907   9.031  17.272  0.00  0.00    +0.000 OA
BRANCH  21  27
ATOM     24  C   UNL     1      -0.324  10.947  20.861  0.00  0.00    +0.000 A 
ATOM     25  C   UNL     1       0.599  10.030  21.389  0.00  0.00    +0.000 A 
ATOM     26  C   UNL     1       1.325   9.181  20.546  0.00  0.00    +0.000 A 
ATOM     27  C   UNL     1       1.129   9.246  19.165  0.00  0.00    +0.000 A 
ATOM     28  C   UNL     1       0.248  10.184  18.620  0.00  0.00    +0.000 A 
ATOM     29  C   UNL     1      -0.475  11.032  19.470  0.00  0.00    +0.000 A 
BRANCH  24  31
ATOM     30  C   UNL     1      -1.445  11.172  23.124  0.00  0.00    +0.000 C 
ATOM     31  C   UNL     1      -1.150  11.814  21.782  0.00  0.00    +0.000 C 
ENDBRANCH  24  31
ENDBRANCH  21  27
ENDBRANCH  19  21
ENDBRANCH   1  19
BRANCH   4  32
ATOM     32  O   UNL     1       1.355   2.128  20.541  0.00  0.00    +0.000 OA
ATOM     33  H   UNL     1       1.065   1.608  19.774  0.00  0.00    +0.000 HD
ENDBRANCH   4  32
TORSDOF 6
ENDMDL
MODEL 9
REMARK VINA RESULT:      -7.3      2.388      6.526
REMARK  Name = 
REMARK  7 active torsions:
REMARK  status: ('A' for Active; 'I' for Inactive)
REMARK    1  A    between atoms: C_1  and  C_2
REMARK    2  A    between atoms: C_2  and  C_3
REMARK    3  A    between atoms: C_6  and  S_7
REMARK    4  A    between atoms: S_7  and  N_10
REMARK    5  A    between atoms: N_10  and  C_11
REMARK    6  A    between atoms: C_14  and  O_15
REMARK    7  A    between atoms: C_20  and  C_21
REMARK                            x       y       z     vdW  Elec       q    Type
REMARK                         _______ _______ _______ _____ _____    ______ ____
ROOT
ATOM      1  C   UNL     1      -1.265  10.976  18.689  0.00  0.00    +0.000 A 
ATOM      2  C   UNL     1      -1.357  10.310  17.465  0.00  0.00    +0.000 A 
ATOM      3  C   UNL     1      -2.580  10.227  16.788  0.00  0.00    +0.000 A 
ATOM      4  C   UNL     1      -3.704  10.853  17.319  0.00  0.00    +0.000 A 
ATOM      5  C   UNL     1      -3.619  11.559  18.525  0.00  0.00    +0.000 A 
ATOM      6  C   UNL     1      -4.767  12.329  19.060  0.00  0.00    +0.000 A 
ATOM      7  O   UNL     1      -5.902  12.299  18.608  0.00  0.00    +0.000 OA
ATOM      8  C   UNL     1      -4.496  13.170  20.224  0.00  0.00    +0.000 A 
ATOM      9  C   UNL     1      -3.342  13.011  20.882  0.00  0.00    +0.000 A 
ATOM     10  O   UNL     1      -2.289  12.222  20.462  0.00  0.00    +0.000 OA
ATOM     11  C   UNL     1      -2.406  11.599  19.233  0.00  0.00    +0.000 A 
ENDROOT
BRANCH   9  12
ATOM     12  C   UNL     1      -3.182  13.688  22.178  0.00  0.00    +0.000 A 
ATOM     13  C   UNL     1      -3.823  13.151  23.304  0.00  0.00    +0.000 A 
ATOM     14  C   UNL     1      -3.601  13.696  24.572  0.00  0.00    +0.000 A 
ATOM     15  C   UNL     1      -2.742  14.781  24.733  0.00  0.00    +0.000 A 
ATOM     16  C   UNL     1      -2.104  15.329  23.623  0.00  0.00    +0.000 A 
ATOM     17  C   UNL     1      -2.318  14.787  22.354  0.00  0.00    +0.000 A 
ATOM     18 CL   UNL     1      -1.468  15.505  21.023  0.00  0.00    +0.000 Cl
ENDBRANCH   9  12
BRANCH   1  19
ATOM     19  N   UNL     1       0.046  11.126  19.281  0.00  0.00    +0.000 N 
ATOM     20  H   UNL     1       0.774  11.030  18.557  0.00  0.00    +0.000 HD
BRANCH  19  21
ATOM     21  S   UNL     1       0.375   9.941  20.479  0.00  0.00    +0.000 S 
ATOM     22  O   UNL     1      -0.883   9.288  20.771  0.00  0.00    +0.000 OA
ATOM     23  O   UNL     1       1.190  10.529  21.529  0.00  0.00    +0.000 OA
BRANCH  21  27
ATOM     24  C   UNL     1       3.071   6.962  18.255  0.00  0.00    +0.000 A 
ATOM     25  C   UNL     1       2.706   8.181  17.660  0.00  0.00    +0.000 A 
ATOM     26  C   UNL     1       1.882   9.087  18.336  0.00  0.00    +0.000 A 
ATOM     27  C   UNL     1       1.414   8.776  19.614  0.00  0.00    +0.000 A 
ATOM     28  C   UNL     1       1.805   7.588  20.239  0.00  0.00    +0.000 A 
ATOM     29  C   UNL     1       2.633   6.686  19.557  0.00  0.00    +0.000 A 
BRANCH  24  31
ATOM     30  C   UNL     1       4.876   6.598  16.512  0.00  0.00    +0.000 C 
ATOM     31  C   UNL     1       3.909   5.963  17.494  0.00  0.00    +0.000 C 
ENDBRANCH  24  31
ENDBRANCH  21  27
ENDBRANCH  19  21
ENDBRANCH   1  19
BRANCH   4  32
ATOM     32  O   UNL     1      -4.879  10.783  16.630  0.00  0.00    +0.000 OA
ATOM     33  H   UNL     1      -5.597  10.458  17.197  0.00  0.00    +0.000 HD
ENDBRANCH   4  32
TORSDOF 6
ENDMDL
