MODEL 1
REMARK VINA RESULT:      -6.6      0.000      0.000
REMARK  Name = 
REMARK  11 active torsions:
REMARK  status: ('A' for Active; 'I' for Inactive)
REMARK    1  A    between atoms: C_1  and  O_2
REMARK    2  A    between atoms: O_2  and  C_3
REMARK    3  A    between atoms: C_6  and  N_7
REMARK    4  A    between atoms: C_8  and  S_9
REMARK    5  A    between atoms: N_10  and  C_11
REMARK    6  A    between atoms: C_11  and  C_12
REMARK    7  A    between atoms: C_12  and  C_13
REMARK    8  A    between atoms: C_13  and  C_14
REMARK    9  A    between atoms: C_14  and  N_15
REMARK   10  A    between atoms: C_21  and  O_22
REMARK   11  A    between atoms: O_22  and  C_23
REMARK                            x       y       z     vdW  Elec       q    Type
REMARK                         _______ _______ _______ _____ _____    ______ ____
ROOT
ATOM      1  N   UNL     1       2.074   5.839  20.774  0.00  0.00    +0.000 N 
ATOM      2  C   UNL     1       1.965   4.571  20.261  0.00  0.00    +0.000 C 
ATOM      3  N   UNL     1       1.616   4.267  19.062  0.00  0.00    +0.000 NA
ATOM      4  H   UNL     1       2.269   5.885  21.766  0.00  0.00    +0.000 HD
ENDROOT
BRANCH   1   8
ATOM      5  C   UNL     1       1.266   9.652  19.091  0.00  0.00    +0.000 A 
ATOM      6  C   UNL     1       2.002   8.706  18.368  0.00  0.00    +0.000 A 
ATOM      7  C   UNL     1       2.273   7.439  18.899  0.00  0.00    +0.000 A 
ATOM      8  C   UNL     1       1.834   7.083  20.172  0.00  0.00    +0.000 A 
ATOM      9  C   UNL     1       1.158   8.065  20.911  0.00  0.00    +0.000 A 
ATOM     10  C   UNL     1       0.885   9.348  20.403  0.00  0.00    +0.000 A 
BRANCH   5  12
ATOM     11  C   UNL     1       1.924  11.877  18.642  0.00  0.00    +0.000 C 
ATOM     12  O   UNL     1       0.927  10.861  18.546  0.00  0.00    +0.000 OA
ENDBRANCH   5  12
BRANCH  10  13
ATOM     13  O   UNL     1       0.232  10.132  21.316  0.00  0.00    +0.000 OA
ATOM     14  C   UNL     1      -0.171   9.566  22.553  0.00  0.00    +0.000 C 
ENDBRANCH  10  13
ENDBRANCH   1   8
BRANCH   2  15
ATOM     15  S   UNL     1       2.373   3.357  21.472  0.00  0.00    +0.000 S 
ATOM     16  H   UNL     1       2.742   4.216  22.427  0.00  0.00    +0.000 HD
ENDBRANCH   2  15
BRANCH   3  17
ATOM     17  C   UNL     1       1.568   2.887  18.599  0.00  0.00    +0.000 C 
BRANCH  17  18
ATOM     18  C   UNL     1       2.827   2.604  17.772  0.00  0.00    +0.000 C 
BRANCH  18  19
ATOM     19  C   UNL     1       3.463   3.881  17.217  0.00  0.00    +0.000 C 
BRANCH  19  20
ATOM     20  C   UNL     1       4.885   4.070  17.738  0.00  0.00    +0.000 C 
BRANCH  20  21
ATOM     21  N   UNL     1       5.799   4.467  16.685  0.00  0.00    +0.000 N 
ATOM     22  C   UNL     1       5.905   3.899  15.447  0.00  0.00    +0.000 A 
ATOM     23  C   UNL     1       6.896   4.613  14.815  0.00  0.00    +0.000 A 
ATOM     24  N   UNL     1       7.383   5.600  15.631  0.00  0.00    +0.000 NA
ATOM     25  C   UNL     1       6.704   5.488  16.751  0.00  0.00    +0.000 A 
ENDBRANCH  20  21
ENDBRANCH  19  20
ENDBRANCH  18  19
ENDBRANCH  17  18
ENDBRANCH   3  17
TORSDOF 9
ENDMDL
MODEL 2
REMARK VINA RESULT:      -6.3      3.576      7.294
REMARK  Name = 
REMARK  11 active torsions:
REMARK  status: ('A' for Active; 'I' for Inactive)
REMARK    1  A    between atoms: C_1  and  O_2
REMARK    2  A    between atoms: O_2  and  C_3
REMARK    3  A    between atoms: C_6  and  N_7
REMARK    4  A    between atoms: C_8  and  S_9
REMARK    5  A    between atoms: N_10  and  C_11
REMARK    6  A    between atoms: C_11  and  C_12
REMARK    7  A    between atoms: C_12  and  C_13
REMARK    8  A    between atoms: C_13  and  C_14
REMARK    9  A    between atoms: C_14  and  N_15
REMARK   10  A    between atoms: C_21  and  O_22
REMARK   11  A    between atoms: O_22  and  C_23
REMARK                            x       y       z     vdW  Elec       q    Type
REMARK                         _______ _______ _______ _____ _____    ______ ____
ROOT
ATOM      1  N   UNL     1       3.387   3.743  19.202  0.00  0.00    +0.000 N 
ATOM      2  C   UNL     1       2.602   4.609  19.921  0.00  0.00    +0.000 C 
ATOM      3  N   UNL     1       2.604   5.890  19.824  0.00  0.00    +0.000 NA
ATOM      4  H   UNL     1       3.320   2.772  19.480  0.00  0.00    +0.000 HD
ENDROOT
BRANCH   1   8
ATOM      5  C   UNL     1       6.451   4.551  16.377  0.00  0.00    +0.000 A 
ATOM      6  C   UNL     1       5.166   4.205  15.941  0.00  0.00    +0.000 A 
ATOM      7  C   UNL     1       4.138   3.943  16.855  0.00  0.00    +0.000 A 
ATOM      8  C   UNL     1       4.363   4.002  18.228  0.00  0.00    +0.000 A 
ATOM      9  C   UNL     1       5.672   4.282  18.649  0.00  0.00    +0.000 A 
ATOM     10  C   UNL     1       6.723   4.536  17.749  0.00  0.00    +0.000 A 
BRANCH   5  12
ATOM     11  C   UNL     1       7.067   4.842  14.114  0.00  0.00    +0.000 C 
ATOM     12  O   UNL     1       7.438   4.889  15.490  0.00  0.00    +0.000 OA
ENDBRANCH   5  12
BRANCH  10  13
ATOM     13  O   UNL     1       7.907   4.766  18.398  0.00  0.00    +0.000 OA
ATOM     14  C   UNL     1       7.965   5.768  19.400  0.00  0.00    +0.000 C 
ENDBRANCH  10  13
ENDBRANCH   1   8
BRANCH   2  15
ATOM     15  S   UNL     1       1.551   3.739  21.037  0.00  0.00    +0.000 S 
ATOM     16  H   UNL     1       0.651   4.716  21.187  0.00  0.00    +0.000 HD
ENDBRANCH   2  15
BRANCH   3  17
ATOM     17  C   UNL     1       1.701   6.724  20.606  0.00  0.00    +0.000 C 
BRANCH  17  18
ATOM     18  C   UNL     1       1.818   8.170  20.112  0.00  0.00    +0.000 C 
BRANCH  18  19
ATOM     19  C   UNL     1       1.750   8.275  18.586  0.00  0.00    +0.000 C 
BRANCH  19  20
ATOM     20  C   UNL     1       1.872   9.723  18.119  0.00  0.00    +0.000 C 
BRANCH  20  21
ATOM     21  N   UNL     1       0.651  10.470  18.346  0.00  0.00    +0.000 N 
ATOM     22  C   UNL     1      -0.619  10.049  18.072  0.00  0.00    +0.000 A 
ATOM     23  C   UNL     1      -1.428  11.093  18.458  0.00  0.00    +0.000 A 
ATOM     24  N   UNL     1      -0.684  12.125  18.965  0.00  0.00    +0.000 NA
ATOM     25  C   UNL     1       0.565  11.723  18.885  0.00  0.00    +0.000 A 
ENDBRANCH  20  21
ENDBRANCH  19  20
ENDBRANCH  18  19
ENDBRANCH  17  18
ENDBRANCH   3  17
TORSDOF 9
ENDMDL
MODEL 3
REMARK VINA RESULT:      -6.3      4.622      8.243
REMARK  Name = 
REMARK  11 active torsions:
REMARK  status: ('A' for Active; 'I' for Inactive)
REMARK    1  A    between atoms: C_1  and  O_2
REMARK    2  A    between atoms: O_2  and  C_3
REMARK    3  A    between atoms: C_6  and  N_7
REMARK    4  A    between atoms: C_8  and  S_9
REMARK    5  A    between atoms: N_10  and  C_11
REMARK    6  A    between atoms: C_11  and  C_12
REMARK    7  A    between atoms: C_12  and  C_13
REMARK    8  A    between atoms: C_13  and  C_14
REMARK    9  A    between atoms: C_14  and  N_15
REMARK   10  A    between atoms: C_21  and  O_22
REMARK   11  A    between atoms: O_22  and  C_23
REMARK                            x       y       z     vdW  Elec       q    Type
REMARK                         _______ _______ _______ _____ _____    ______ ____
ROOT
ATOM      1  N   UNL     1       2.517   6.499  19.929  0.00  0.00    +0.000 N 
ATOM      2  C   UNL     1       2.010   7.764  19.775  0.00  0.00    +0.000 C 
ATOM      3  N   UNL     1       2.060   8.475  18.706  0.00  0.00    +0.000 NA
ATOM      4  H   UNL     1       2.472   6.130  20.870  0.00  0.00    +0.000 HD
ENDROOT
BRANCH   1   8
ATOM      5  C   UNL     1       4.740   4.055  17.261  0.00  0.00    +0.000 A 
ATOM      6  C   UNL     1       3.361   4.223  17.079  0.00  0.00    +0.000 A 
ATOM      7  C   UNL     1       2.610   5.031  17.941  0.00  0.00    +0.000 A 
ATOM      8  C   UNL     1       3.206   5.682  19.018  0.00  0.00    +0.000 A 
ATOM      9  C   UNL     1       4.573   5.449  19.229  0.00  0.00    +0.000 A 
ATOM     10  C   UNL     1       5.344   4.631  18.384  0.00  0.00    +0.000 A 
BRANCH   5  12
ATOM     11  C   UNL     1       5.947   4.054  15.229  0.00  0.00    +0.000 C 
ATOM     12  O   UNL     1       5.494   3.334  16.375  0.00  0.00    +0.000 OA
ENDBRANCH   5  12
BRANCH  10  13
ATOM     13  O   UNL     1       6.645   4.544  18.804  0.00  0.00    +0.000 OA
ATOM     14  C   UNL     1       7.341   5.730  19.154  0.00  0.00    +0.000 C 
ENDBRANCH  10  13
ENDBRANCH   1   8
BRANCH   2  15
ATOM     15  S   UNL     1       1.252   8.332  21.262  0.00  0.00    +0.000 S 
ATOM     16  H   UNL     1       2.384   8.494  21.954  0.00  0.00    +0.000 HD
ENDBRANCH   2  15
BRANCH   3  17
ATOM     17  C   UNL     1       1.454   9.798  18.629  0.00  0.00    +0.000 C 
BRANCH  17  18
ATOM     18  C   UNL     1       0.036   9.656  18.068  0.00  0.00    +0.000 C 
BRANCH  18  19
ATOM     19  C   UNL     1      -0.994  10.458  18.869  0.00  0.00    +0.000 C 
BRANCH  19  20
ATOM     20  C   UNL     1      -1.458  11.695  18.104  0.00  0.00    +0.000 C 
BRANCH  20  21
ATOM     21  N   UNL     1      -2.711  11.464  17.412  0.00  0.00    +0.000 N 
ATOM     22  C   UNL     1      -3.964  11.661  17.918  0.00  0.00    +0.000 A 
ATOM     23  C   UNL     1      -4.816  11.309  16.897  0.00  0.00    +0.000 A 
ATOM     24  N   UNL     1      -4.113  10.915  15.789  0.00  0.00    +0.000 NA
ATOM     25  C   UNL     1      -2.847  11.018  16.128  0.00  0.00    +0.000 A 
ENDBRANCH  20  21
ENDBRANCH  19  20
ENDBRANCH  18  19
ENDBRANCH  17  18
ENDBRANCH   3  17
TORSDOF 9
ENDMDL
MODEL 4
REMARK VINA RESULT:      -6.3      3.496      7.497
REMARK  Name = 
REMARK  11 active torsions:
REMARK  status: ('A' for Active; 'I' for Inactive)
REMARK    1  A    between atoms: C_1  and  O_2
REMARK    2  A    between atoms: O_2  and  C_3
REMARK    3  A    between atoms: C_6  and  N_7
REMARK    4  A    between atoms: C_8  and  S_9
REMARK    5  A    between atoms: N_10  and  C_11
REMARK    6  A    between atoms: C_11  and  C_12
REMARK    7  A    between atoms: C_12  and  C_13
REMARK    8  A    between atoms: C_13  and  C_14
REMARK    9  A    between atoms: C_14  and  N_15
REMARK   10  A    between atoms: C_21  and  O_22
REMARK   11  A    between atoms: O_22  and  C_23
REMARK                            x       y       z     vdW  Elec       q    Type
REMARK                         _______ _______ _______ _____ _____    ______ ____
ROOT
ATOM      1  N   UNL     1       3.384   3.542  18.928  0.00  0.00    +0.000 N 
ATOM      2  C   UNL     1       2.589   4.287  19.762  0.00  0.00    +0.000 C 
ATOM      3  N   UNL     1       2.583   5.568  19.858  0.00  0.00    +0.000 NA
ATOM      4  H   UNL     1       3.322   2.540  19.057  0.00  0.00    +0.000 HD
ENDROOT
BRANCH   1   8
ATOM      5  C   UNL     1       6.461   4.787  16.281  0.00  0.00    +0.000 A 
ATOM      6  C   UNL     1       5.198   4.446  15.781  0.00  0.00    +0.000 A 
ATOM      7  C   UNL     1       4.166   4.042  16.636  0.00  0.00    +0.000 A 
ATOM      8  C   UNL     1       4.366   3.948  18.011  0.00  0.00    +0.000 A 
ATOM      9  C   UNL     1       5.655   4.226  18.490  0.00  0.00    +0.000 A 
ATOM     10  C   UNL     1       6.710   4.622  17.648  0.00  0.00    +0.000 A 
BRANCH   5  12
ATOM     11  C   UNL     1       7.273   4.991  14.071  0.00  0.00    +0.000 C 
ATOM     12  O   UNL     1       7.449   5.263  15.461  0.00  0.00    +0.000 OA
ENDBRANCH   5  12
BRANCH  10  13
ATOM     13  O   UNL     1       7.873   4.819  18.343  0.00  0.00    +0.000 OA
ATOM     14  C   UNL     1       7.951   5.885  19.277  0.00  0.00    +0.000 C 
ENDBRANCH  10  13
ENDBRANCH   1   8
BRANCH   2  15
ATOM     15  S   UNL     1       1.535   3.254  20.727  0.00  0.00    +0.000 S 
ATOM     16  H   UNL     1       1.272   4.155  21.678  0.00  0.00    +0.000 HD
ENDBRANCH   2  15
BRANCH   3  17
ATOM     17  C   UNL     1       1.669   6.271  20.748  0.00  0.00    +0.000 C 
BRANCH  17  18
ATOM     18  C   UNL     1       1.714   7.766  20.416  0.00  0.00    +0.000 C 
BRANCH  18  19
ATOM     19  C   UNL     1       1.184   8.636  21.560  0.00  0.00    +0.000 C 
BRANCH  19  20
ATOM     20  C   UNL     1      -0.170   9.250  21.215  0.00  0.00    +0.000 C 
BRANCH  20  21
ATOM     21  N   UNL     1      -0.031  10.468  20.440  0.00  0.00    +0.000 N 
ATOM     22  C   UNL     1      -0.821  10.859  19.397  0.00  0.00    +0.000 A 
ATOM     23  C   UNL     1      -0.300  12.066  18.994  0.00  0.00    +0.000 A 
ATOM     24  N   UNL     1       0.774  12.418  19.768  0.00  0.00    +0.000 NA
ATOM     25  C   UNL     1       0.914  11.436  20.631  0.00  0.00    +0.000 A 
ENDBRANCH  20  21
ENDBRANCH  19  20
ENDBRANCH  18  19
ENDBRANCH  17  18
ENDBRANCH   3  17
TORSDOF 9
ENDMDL
MODEL 5
REMARK VINA RESULT:      -6.2      0.876      1.261
REMARK  Name = 
REMARK  11 active torsions:
REMARK  status: ('A' for Active; 'I' for Inactive)
REMARK    1  A    between atoms: C_1  and  O_2
REMARK    2  A    between atoms: O_2  and  C_3
REMARK    3  A    between atoms: C_6  and  N_7
REMARK    4  A    between atoms: C_8  and  S_9
REMARK    5  A    between atoms: N_10  and  C_11
REMARK    6  A    between atoms: C_11  and  C_12
REMARK    7  A    between atoms: C_12  and  C_13
REMARK    8  A    between atoms: C_13  and  C_14
REMARK    9  A    between atoms: C_14  and  N_15
REMARK   10  A    between atoms: C_21  and  O_22
REMARK   11  A    between atoms: O_22  and  C_23
REMARK                            x       y       z     vdW  Elec       q    Type
REMARK                         _______ _______ _______ _____ _____    ______ ____
ROOT
ATOM      1  N   UNL     1       2.041   5.920  20.844  0.00  0.00    +0.000 N 
ATOM      2  C   UNL     1       1.905   4.665  20.305  0.00  0.00    +0.000 C 
ATOM      3  N   UNL     1       1.537   4.392  19.105  0.00  0.00    +0.000 NA
ATOM      4  H   UNL     1       2.247   5.942  21.834  0.00  0.00    +0.000 HD
ENDROOT
BRANCH   1   8
ATOM      5  C   UNL     1       1.275   9.780  19.251  0.00  0.00    +0.000 A 
ATOM      6  C   UNL     1       1.990   8.839  18.500  0.00  0.00    +0.000 A 
ATOM      7  C   UNL     1       2.246   7.557  19.002  0.00  0.00    +0.000 A 
ATOM      8  C   UNL     1       1.813   7.180  20.271  0.00  0.00    +0.000 A 
ATOM      9  C   UNL     1       1.159   8.156  21.038  0.00  0.00    +0.000 A 
ATOM     10  C   UNL     1       0.902   9.454  20.559  0.00  0.00    +0.000 A 
BRANCH   5  12
ATOM     11  C   UNL     1       2.054  11.809  18.323  0.00  0.00    +0.000 C 
ATOM     12  O   UNL     1       0.949  11.006  18.735  0.00  0.00    +0.000 OA
ENDBRANCH   5  12
BRANCH  10  13
ATOM     13  O   UNL     1       0.269  10.228  21.495  0.00  0.00    +0.000 OA
ATOM     14  C   UNL     1      -0.147   9.637  22.716  0.00  0.00    +0.000 C 
ENDBRANCH  10  13
ENDBRANCH   1   8
BRANCH   2  15
ATOM     15  S   UNL     1       2.307   3.419  21.486  0.00  0.00    +0.000 S 
ATOM     16  H   UNL     1       1.124   3.416  22.109  0.00  0.00    +0.000 HD
ENDBRANCH   2  15
BRANCH   3  17
ATOM     17  C   UNL     1       1.463   3.023  18.613  0.00  0.00    +0.000 C 
BRANCH  17  18
ATOM     18  C   UNL     1       2.582   2.808  17.590  0.00  0.00    +0.000 C 
BRANCH  18  19
ATOM     19  C   UNL     1       3.355   4.095  17.287  0.00  0.00    +0.000 C 
BRANCH  19  20
ATOM     20  C   UNL     1       4.790   3.799  16.861  0.00  0.00    +0.000 C 
BRANCH  20  21
ATOM     21  N   UNL     1       5.736   4.709  17.477  0.00  0.00    +0.000 N 
ATOM     22  C   UNL     1       6.535   5.608  16.830  0.00  0.00    +0.000 A 
ATOM     23  C   UNL     1       7.245   6.233  17.829  0.00  0.00    +0.000 A 
ATOM     24  N   UNL     1       6.891   5.743  19.058  0.00  0.00    +0.000 NA
ATOM     25  C   UNL     1       5.981   4.826  18.816  0.00  0.00    +0.000 A 
ENDBRANCH  20  21
ENDBRANCH  19  20
ENDBRANCH  18  19
ENDBRANCH  17  18
ENDBRANCH   3  17
TORSDOF 9
ENDMDL
MODEL 6
REMARK VINA RESULT:      -6.2      3.017      6.060
REMARK  Name = 
REMARK  11 active torsions:
REMARK  status: ('A' for Active; 'I' for Inactive)
REMARK    1  A    between atoms: C_1  and  O_2
REMARK    2  A    between atoms: O_2  and  C_3
REMARK    3  A    between atoms: C_6  and  N_7
REMARK    4  A    between atoms: C_8  and  S_9
REMARK    5  A    between atoms: N_10  and  C_11
REMARK    6  A    between atoms: C_11  and  C_12
REMARK    7  A    between atoms: C_12  and  C_13
REMARK    8  A    between atoms: C_13  and  C_14
REMARK    9  A    between atoms: C_14  and  N_15
REMARK   10  A    between atoms: C_21  and  O_22
REMARK   11  A    between atoms: O_22  and  C_23
REMARK                            x       y       z     vdW  Elec       q    Type
REMARK                         _______ _______ _______ _____ _____    ______ ____
ROOT
ATOM      1  N   UNL     1       5.636   3.562  19.126  0.00  0.00    +0.000 N 
ATOM      2  C   UNL     1       4.313   3.295  19.366  0.00  0.00    +0.000 C 
ATOM      3  N   UNL     1       3.333   4.109  19.200  0.00  0.00    +0.000 NA
ATOM      4  H   UNL     1       6.279   2.833  19.406  0.00  0.00    +0.000 HD
ENDROOT
BRANCH   1   8
ATOM      5  C   UNL     1       7.410   7.114  17.619  0.00  0.00    +0.000 A 
ATOM      6  C   UNL     1       7.825   6.587  18.849  0.00  0.00    +0.000 A 
ATOM      7  C   UNL     1       7.260   5.413  19.361  0.00  0.00    +0.000 A 
ATOM      8  C   UNL     1       6.255   4.737  18.672  0.00  0.00    +0.000 A 
ATOM      9  C   UNL     1       5.802   5.314  17.476  0.00  0.00    +0.000 A 
ATOM     10  C   UNL     1       6.346   6.500  16.950  0.00  0.00    +0.000 A 
BRANCH   5  12
ATOM     11  C   UNL     1       8.320   9.263  17.992  0.00  0.00    +0.000 C 
ATOM     12  O   UNL     1       8.015   8.214  17.073  0.00  0.00    +0.000 OA
ENDBRANCH   5  12
BRANCH  10  13
ATOM     13  O   UNL     1       5.728   6.872  15.785  0.00  0.00    +0.000 OA
ATOM     14  C   UNL     1       5.347   5.873  14.853  0.00  0.00    +0.000 C 
ENDBRANCH  10  13
ENDBRANCH   1   8
BRANCH   2  15
ATOM     15  S   UNL     1       4.093   1.647  19.951  0.00  0.00    +0.000 S 
ATOM     16  H   UNL     1       3.187   1.941  20.890  0.00  0.00    +0.000 HD
ENDBRANCH   2  15
BRANCH   3  17
ATOM     17  C   UNL     1       1.952   3.716  19.445  0.00  0.00    +0.000 C 
BRANCH  17  18
ATOM     18  C   UNL     1       1.350   4.665  20.486  0.00  0.00    +0.000 C 
BRANCH  18  19
ATOM     19  C   UNL     1       2.244   5.877  20.761  0.00  0.00    +0.000 C 
BRANCH  19  20
ATOM     20  C   UNL     1       1.440   7.175  20.776  0.00  0.00    +0.000 C 
BRANCH  20  21
ATOM     21  N   UNL     1       1.698   7.985  19.601  0.00  0.00    +0.000 N 
ATOM     22  C   UNL     1       2.468   7.635  18.529  0.00  0.00    +0.000 A 
ATOM     23  C   UNL     1       2.408   8.717  17.683  0.00  0.00    +0.000 A 
ATOM     24  N   UNL     1       1.617   9.704  18.209  0.00  0.00    +0.000 NA
ATOM     25  C   UNL     1       1.203   9.236  19.365  0.00  0.00    +0.000 A 
ENDBRANCH  20  21
ENDBRANCH  19  20
ENDBRANCH  18  19
ENDBRANCH  17  18
ENDBRANCH   3  17
TORSDOF 9
ENDMDL
MODEL 7
REMARK VINA RESULT:      -6.2      2.384      4.509
REMARK  Name = 
REMARK  11 active torsions:
REMARK  status: ('A' for Active; 'I' for Inactive)
REMARK    1  A    between atoms: C_1  and  O_2
REMARK    2  A    between atoms: O_2  and  C_3
REMARK    3  A    between atoms: C_6  and  N_7
REMARK    4  A    between atoms: C_8  and  S_9
REMARK    5  A    between atoms: N_10  and  C_11
REMARK    6  A    between atoms: C_11  and  C_12
REMARK    7  A    between atoms: C_12  and  C_13
REMARK    8  A    between atoms: C_13  and  C_14
REMARK    9  A    between atoms: C_14  and  N_15
REMARK   10  A    between atoms: C_21  and  O_22
REMARK   11  A    between atoms: O_22  and  C_23
REMARK                            x       y       z     vdW  Elec       q    Type
REMARK                         _______ _______ _______ _____ _____    ______ ____
ROOT
ATOM      1  N   UNL     1       3.372   7.729  17.594  0.00  0.00    +0.000 N 
ATOM      2  C   UNL     1       4.105   6.574  17.502  0.00  0.00    +0.000 C 
ATOM      3  N   UNL     1       4.076   5.590  18.327  0.00  0.00    +0.000 NA
ATOM      4  H   UNL     1       3.595   8.436  16.905  0.00  0.00    +0.000 HD
ENDROOT
BRANCH   1   8
ATOM      5  C   UNL     1       0.539   9.102  20.443  0.00  0.00    +0.000 A 
ATOM      6  C   UNL     1       1.305   7.960  20.707  0.00  0.00    +0.000 A 
ATOM      7  C   UNL     1       2.251   7.494  19.786  0.00  0.00    +0.000 A 
ATOM      8  C   UNL     1       2.451   8.142  18.569  0.00  0.00    +0.000 A 
ATOM      9  C   UNL     1       1.628   9.243  18.290  0.00  0.00    +0.000 A 
ATOM     10  C   UNL     1       0.662   9.721  19.195  0.00  0.00    +0.000 A 
BRANCH   5  12
ATOM     11  C   UNL     1       0.048   9.410  22.735  0.00  0.00    +0.000 C 
ATOM     12  O   UNL     1      -0.328   9.611  21.373  0.00  0.00    +0.000 OA
ENDBRANCH   5  12
BRANCH  10  13
ATOM     13  O   UNL     1      -0.026  10.792  18.690  0.00  0.00    +0.000 OA
ATOM     14  C   UNL     1      -1.300  10.583  18.103  0.00  0.00    +0.000 C 
ENDBRANCH  10  13
ENDBRANCH   1   8
BRANCH   2  15
ATOM     15  S   UNL     1       5.132   6.585  16.069  0.00  0.00    +0.000 S 
ATOM     16  H   UNL     1       5.688   7.780  16.293  0.00  0.00    +0.000 HD
ENDBRANCH   2  15
BRANCH   3  17
ATOM     17  C   UNL     1       4.865   4.384  18.119  0.00  0.00    +0.000 C 
BRANCH  17  18
ATOM     18  C   UNL     1       4.135   3.487  17.115  0.00  0.00    +0.000 C 
BRANCH  18  19
ATOM     19  C   UNL     1       2.664   3.270  17.485  0.00  0.00    +0.000 C 
BRANCH  19  20
ATOM     20  C   UNL     1       2.485   2.038  18.368  0.00  0.00    +0.000 C 
BRANCH  20  21
ATOM     21  N   UNL     1       2.262   2.395  19.756  0.00  0.00    +0.000 N 
ATOM     22  C   UNL     1       1.091   2.837  20.300  0.00  0.00    +0.000 A 
ATOM     23  C   UNL     1       1.375   3.040  21.631  0.00  0.00    +0.000 A 
ATOM     24  N   UNL     1       2.680   2.723  21.905  0.00  0.00    +0.000 NA
ATOM     25  C   UNL     1       3.190   2.338  20.757  0.00  0.00    +0.000 A 
ENDBRANCH  20  21
ENDBRANCH  19  20
ENDBRANCH  18  19
ENDBRANCH  17  18
ENDBRANCH   3  17
TORSDOF 9
ENDMDL
MODEL 8
REMARK VINA RESULT:      -6.0      1.628      2.467
REMARK  Name = 
REMARK  11 active torsions:
REMARK  status: ('A' for Active; 'I' for Inactive)
REMARK    1  A    between atoms: C_1  and  O_2
REMARK    2  A    between atoms: O_2  and  C_3
REMARK    3  A    between atoms: C_6  and  N_7
REMARK    4  A    between atoms: C_8  and  S_9
REMARK    5  A    between atoms: N_10  and  C_11
REMARK    6  A    between atoms: C_11  and  C_12
REMARK    7  A    between atoms: C_12  and  C_13
REMARK    8  A    between atoms: C_13  and  C_14
REMARK    9  A    between atoms: C_14  and  N_15
REMARK   10  A    between atoms: C_21  and  O_22
REMARK   11  A    between atoms: O_22  and  C_23
REMARK                            x       y       z     vdW  Elec       q    Type
REMARK                         _______ _______ _______ _____ _____    ______ ____
ROOT
ATOM      1  N   UNL     1       3.136   5.470  19.658  0.00  0.00    +0.000 N 
ATOM      2  C   UNL     1       3.668   4.561  18.780  0.00  0.00    +0.000 C 
ATOM      3  N   UNL     1       3.749   4.697  17.505  0.00  0.00    +0.000 NA
ATOM      4  H   UNL     1       3.068   5.152  20.617  0.00  0.00    +0.000 HD
ENDROOT
BRANCH   1   8
ATOM      5  C   UNL     1       1.289   9.250  19.087  0.00  0.00    +0.000 A 
ATOM      6  C   UNL     1       2.175   8.748  18.126  0.00  0.00    +0.000 A 
ATOM      7  C   UNL     1       2.788   7.500  18.289  0.00  0.00    +0.000 A 
ATOM      8  C   UNL     1       2.551   6.724  19.421  0.00  0.00    +0.000 A 
ATOM      9  C   UNL     1       1.716   7.271  20.407  0.00  0.00    +0.000 A 
ATOM     10  C   UNL     1       1.100   8.528  20.270  0.00  0.00    +0.000 A 
BRANCH   5  12
ATOM     11  C   UNL     1      -0.680  10.312  18.324  0.00  0.00    +0.000 C 
ATOM     12  O   UNL     1       0.623  10.431  18.895  0.00  0.00    +0.000 OA
ENDBRANCH   5  12
BRANCH  10  13
ATOM     13  O   UNL     1       0.348   8.851  21.368  0.00  0.00    +0.000 OA
ATOM     14  C   UNL     1       0.991   9.389  22.513  0.00  0.00    +0.000 C 
ENDBRANCH  10  13
ENDBRANCH   1   8
BRANCH   2  15
ATOM     15  S   UNL     1       4.252   3.128  19.624  0.00  0.00    +0.000 S 
ATOM     16  H   UNL     1       4.402   2.364  18.537  0.00  0.00    +0.000 HD
ENDBRANCH   2  15
BRANCH   3  17
ATOM     17  C   UNL     1       4.372   3.688  16.659  0.00  0.00    +0.000 C 
BRANCH  17  18
ATOM     18  C   UNL     1       4.669   4.311  15.291  0.00  0.00    +0.000 C 
BRANCH  18  19
ATOM     19  C   UNL     1       5.475   5.609  15.401  0.00  0.00    +0.000 C 
BRANCH  19  20
ATOM     20  C   UNL     1       6.958   5.329  15.626  0.00  0.00    +0.000 C 
BRANCH  20  21
ATOM     21  N   UNL     1       7.352   5.572  17.000  0.00  0.00    +0.000 N 
ATOM     22  C   UNL     1       7.527   6.792  17.589  0.00  0.00    +0.000 A 
ATOM     23  C   UNL     1       7.894   6.509  18.884  0.00  0.00    +0.000 A 
ATOM     24  N   UNL     1       7.935   5.155  19.095  0.00  0.00    +0.000 NA
ATOM     25  C   UNL     1       7.605   4.616  17.943  0.00  0.00    +0.000 A 
ENDBRANCH  20  21
ENDBRANCH  19  20
ENDBRANCH  18  19
ENDBRANCH  17  18
ENDBRANCH   3  17
TORSDOF 9
ENDMDL
MODEL 9
REMARK VINA RESULT:      -6.0      0.902      1.119
REMARK  Name = 
REMARK  11 active torsions:
REMARK  status: ('A' for Active; 'I' for Inactive)
REMARK    1  A    between atoms: C_1  and  O_2
REMARK    2  A    between atoms: O_2  and  C_3
REMARK    3  A    between atoms: C_6  and  N_7
REMARK    4  A    between atoms: C_8  and  S_9
REMARK    5  A    between atoms: N_10  and  C_11
REMARK    6  A    between atoms: C_11  and  C_12
REMARK    7  A    between atoms: C_12  and  C_13
REMARK    8  A    between atoms: C_13  and  C_14
REMARK    9  A    between atoms: C_14  and  N_15
REMARK   10  A    between atoms: C_21  and  O_22
REMARK   11  A    between atoms: O_22  and  C_23
REMARK                            x       y       z     vdW  Elec       q    Type
REMARK                         _______ _______ _______ _____ _____    ______ ____
ROOT
ATOM      1  N   UNL     1       1.919   5.944  20.862  0.00  0.00    +0.000 N 
ATOM      2  C   UNL     1       1.806   4.676  20.353  0.00  0.00    +0.000 C 
ATOM      3  N   UNL     1       1.436   4.368  19.162  0.00  0.00    +0.000 NA
ATOM      4  H   UNL     1       2.131   5.993  21.851  0.00  0.00    +0.000 HD
ENDROOT
BRANCH   1   8
ATOM      5  C   UNL     1       1.035   9.737  19.169  0.00  0.00    +0.000 A 
ATOM      6  C   UNL     1       1.998   8.909  18.577  0.00  0.00    +0.000 A 
ATOM      7  C   UNL     1       2.299   7.651  19.113  0.00  0.00    +0.000 A 
ATOM      8  C   UNL     1       1.664   7.187  20.262  0.00  0.00    +0.000 A 
ATOM      9  C   UNL     1       0.753   8.056  20.883  0.00  0.00    +0.000 A 
ATOM     10  C   UNL     1       0.444   9.328  20.369  0.00  0.00    +0.000 A 
BRANCH   5  12
ATOM     11  C   UNL     1       1.600  12.001  18.798  0.00  0.00    +0.000 C 
ATOM     12  O   UNL     1       0.677  10.931  18.604  0.00  0.00    +0.000 OA
ENDBRANCH   5  12
BRANCH  10  13
ATOM     13  O   UNL     1      -0.456   9.993  21.158  0.00  0.00    +0.000 OA
ATOM     14  C   UNL     1       0.021  10.834  22.197  0.00  0.00    +0.000 C 
ENDBRANCH  10  13
ENDBRANCH   1   8
BRANCH   2  15
ATOM     15  S   UNL     1       2.239   3.465  21.559  0.00  0.00    +0.000 S 
ATOM     16  H   UNL     1       2.376   4.315  22.582  0.00  0.00    +0.000 HD
ENDBRANCH   2  15
BRANCH   3  17
ATOM     17  C   UNL     1       1.386   2.987  18.701  0.00  0.00    +0.000 C 
BRANCH  17  18
ATOM     18  C   UNL     1       2.336   2.832  17.510  0.00  0.00    +0.000 C 
BRANCH  18  19
ATOM     19  C   UNL     1       3.729   2.353  17.929  0.00  0.00    +0.000 C 
BRANCH  19  20
ATOM     20  C   UNL     1       4.629   3.523  18.318  0.00  0.00    +0.000 C 
BRANCH  20  21
ATOM     21  N   UNL     1       4.965   4.350  17.176  0.00  0.00    +0.000 N 
ATOM     22  C   UNL     1       4.740   5.692  17.053  0.00  0.00    +0.000 A 
ATOM     23  C   UNL     1       5.226   6.018  15.808  0.00  0.00    +0.000 A 
ATOM     24  N   UNL     1       5.746   4.916  15.183  0.00  0.00    +0.000 NA
ATOM     25  C   UNL     1       5.574   3.925  16.029  0.00  0.00    +0.000 A 
ENDBRANCH  20  21
ENDBRANCH  19  20
ENDBRANCH  18  19
ENDBRANCH  17  18
ENDBRANCH   3  17
TORSDOF 9
ENDMDL
