MODEL 1
REMARK VINA RESULT:      -8.6      0.000      0.000
REMARK  Name = 
REMARK  6 active torsions:
REMARK  status: ('A' for Active; 'I' for Inactive)
REMARK    1  A    between atoms: C_2  and  O_3
REMARK    2  A    between atoms: C_2  and  C_4
REMARK    3  A    between atoms: N_8  and  C_9
REMARK    4  A    between atoms: C_9  and  C_10
REMARK    5  A    between atoms: C_10  and  O_11
REMARK    6  A    between atoms: O_11  and  C_12
REMARK                            x       y       z     vdW  Elec       q    Type
REMARK                         _______ _______ _______ _____ _____    ______ ____
ROOT
ATOM      1  C   UNL     1       2.847   6.750  18.672  0.00  0.00    +0.000 C 
ATOM      2  C   UNL     1       3.452   5.537  18.772  0.00  0.00    +0.000 C 
ATOM      3  C   UNL     1       2.737   4.467  19.520  0.00  0.00    +0.000 A 
ATOM      4  C   UNL     1       2.425   4.685  20.876  0.00  0.00    +0.000 A 
ATOM      5  C   UNL     1       1.843   3.680  21.649  0.00  0.00    +0.000 A 
ATOM      6  C   UNL     1       1.560   2.447  21.081  0.00  0.00    +0.000 A 
ATOM      7  C   UNL     1       1.861   2.214  19.741  0.00  0.00    +0.000 A 
ATOM      8  C   UNL     1       2.460   3.208  18.939  0.00  0.00    +0.000 A 
ATOM      9  C   UNL     1       2.797   2.786  17.514  0.00  0.00    +0.000 C 
ATOM     10  C   UNL     1       3.374   3.799  16.519  0.00  0.00    +0.000 C 
ATOM     11  C   UNL     1       4.698   4.359  16.980  0.00  0.00    +0.000 A 
ATOM     12  C   UNL     1       5.889   4.081  16.301  0.00  0.00    +0.000 A 
ATOM     13  C   UNL     1       7.094   4.637  16.741  0.00  0.00    +0.000 A 
ATOM     14  C   UNL     1       7.123   5.459  17.867  0.00  0.00    +0.000 A 
ATOM     15  C   UNL     1       5.945   5.726  18.564  0.00  0.00    +0.000 A 
ATOM     16  C   UNL     1       4.726   5.199  18.106  0.00  0.00    +0.000 A 
ENDROOT
BRANCH   1  17
ATOM     17  O   UNL     1       3.141   7.890  17.952  0.00  0.00    +0.000 OA
BRANCH  17  18
ATOM     18  C   UNL     1       2.052   8.775  17.707  0.00  0.00    +0.000 C 
BRANCH  18  19
ATOM     19  C   UNL     1       1.613   9.557  18.952  0.00  0.00    +0.000 C 
BRANCH  19  24
ATOM     20  C   UNL     1      -1.810  11.172  18.970  0.00  0.00    +0.000 C 
ATOM     21  C   UNL     1      -1.432  12.640  19.178  0.00  0.00    +0.000 C 
ATOM     22  C   UNL     1      -0.090  12.964  18.535  0.00  0.00    +0.000 C 
ATOM     23  C   UNL     1       0.983  11.942  18.914  0.00  0.00    +0.000 C 
ATOM     24  N   UNL     1       0.551  10.551  18.635  0.00  0.00    +0.000 NA
ATOM     25  C   UNL     1      -0.673  10.243  19.406  0.00  0.00    +0.000 C 
BRANCH  20  27
ATOM     26  O   UNL     1      -3.172  11.542  17.009  0.00  0.00    +0.000 OA
ATOM     27  C   UNL     1      -2.259  10.921  17.536  0.00  0.00    +0.000 C 
BRANCH  27  28
ATOM     28  O   UNL     1      -1.531  10.006  16.852  0.00  0.00    +0.000 OA
ATOM     29  H   UNL     1      -0.650  10.366  16.586  0.00  0.00    +0.000 HD
ENDBRANCH  27  28
ENDBRANCH  20  27
ENDBRANCH  19  24
ENDBRANCH  18  19
ENDBRANCH  17  18
ENDBRANCH   1  17
TORSDOF 6
ENDMDL
MODEL 2
REMARK VINA RESULT:      -8.6      1.919      2.374
REMARK  Name = 
REMARK  6 active torsions:
REMARK  status: ('A' for Active; 'I' for Inactive)
REMARK    1  A    between atoms: C_2  and  O_3
REMARK    2  A    between atoms: C_2  and  C_4
REMARK    3  A    between atoms: N_8  and  C_9
REMARK    4  A    between atoms: C_9  and  C_10
REMARK    5  A    between atoms: C_10  and  O_11
REMARK    6  A    between atoms: O_11  and  C_12
REMARK                            x       y       z     vdW  Elec       q    Type
REMARK                         _______ _______ _______ _____ _____    ______ ____
ROOT
ATOM      1  C   UNL     1       2.972   6.772  18.478  0.00  0.00    +0.000 C 
ATOM      2  C   UNL     1       3.595   5.587  18.713  0.00  0.00    +0.000 C 
ATOM      3  C   UNL     1       2.817   4.520  19.398  0.00  0.00    +0.000 A 
ATOM      4  C   UNL     1       2.310   4.776  20.686  0.00  0.00    +0.000 A 
ATOM      5  C   UNL     1       1.657   3.779  21.412  0.00  0.00    +0.000 A 
ATOM      6  C   UNL     1       1.498   2.516  20.862  0.00  0.00    +0.000 A 
ATOM      7  C   UNL     1       1.993   2.245  19.588  0.00  0.00    +0.000 A 
ATOM      8  C   UNL     1       2.667   3.230  18.837  0.00  0.00    +0.000 A 
ATOM      9  C   UNL     1       3.215   2.769  17.492  0.00  0.00    +0.000 C 
ATOM     10  C   UNL     1       3.894   3.765  16.547  0.00  0.00    +0.000 C 
ATOM     11  C   UNL     1       5.120   4.393  17.164  0.00  0.00    +0.000 A 
ATOM     12  C   UNL     1       6.404   4.135  16.671  0.00  0.00    +0.000 A 
ATOM     13  C   UNL     1       7.516   4.753  17.252  0.00  0.00    +0.000 A 
ATOM     14  C   UNL     1       7.358   5.616  18.336  0.00  0.00    +0.000 A 
ATOM     15  C   UNL     1       6.085   5.864  18.849  0.00  0.00    +0.000 A 
ATOM     16  C   UNL     1       4.962   5.274  18.247  0.00  0.00    +0.000 A 
ENDROOT
BRANCH   1  17
ATOM     17  O   UNL     1       3.327   7.896  17.759  0.00  0.00    +0.000 OA
BRANCH  17  18
ATOM     18  C   UNL     1       2.494   9.038  17.929  0.00  0.00    +0.000 C 
BRANCH  18  19
ATOM     19  C   UNL     1       1.139   8.712  18.568  0.00  0.00    +0.000 C 
BRANCH  19  24
ATOM     20  C   UNL     1      -0.567  10.934  21.115  0.00  0.00    +0.000 C 
ATOM     21  C   UNL     1      -0.341  10.126  22.395  0.00  0.00    +0.000 C 
ATOM     22  C   UNL     1       0.973   9.357  22.342  0.00  0.00    +0.000 C 
ATOM     23  C   UNL     1       1.126   8.582  21.032  0.00  0.00    +0.000 C 
ATOM     24  N   UNL     1       0.938   9.452  19.845  0.00  0.00    +0.000 NA
ATOM     25  C   UNL     1      -0.414  10.051  19.872  0.00  0.00    +0.000 C 
BRANCH  20  27
ATOM     26  O   UNL     1       0.366  12.986  21.983  0.00  0.00    +0.000 OA
ATOM     27  C   UNL     1       0.331  12.163  21.079  0.00  0.00    +0.000 C 
BRANCH  27  28
ATOM     28  O   UNL     1       1.150  12.252  20.002  0.00  0.00    +0.000 OA
ATOM     29  H   UNL     1       1.969  11.712  20.122  0.00  0.00    +0.000 HD
ENDBRANCH  27  28
ENDBRANCH  20  27
ENDBRANCH  19  24
ENDBRANCH  18  19
ENDBRANCH  17  18
ENDBRANCH   1  17
TORSDOF 6
ENDMDL
MODEL 3
REMARK VINA RESULT:      -8.6      1.264      1.516
REMARK  Name = 
REMARK  6 active torsions:
REMARK  status: ('A' for Active; 'I' for Inactive)
REMARK    1  A    between atoms: C_2  and  O_3
REMARK    2  A    between atoms: C_2  and  C_4
REMARK    3  A    between atoms: N_8  and  C_9
REMARK    4  A    between atoms: C_9  and  C_10
REMARK    5  A    between atoms: C_10  and  O_11
REMARK    6  A    between atoms: O_11  and  C_12
REMARK                            x       y       z     vdW  Elec       q    Type
REMARK                         _______ _______ _______ _____ _____    ______ ____
ROOT
ATOM      1  C   UNL     1       2.720   6.733  18.416  0.00  0.00    +0.000 C 
ATOM      2  C   UNL     1       3.360   5.544  18.575  0.00  0.00    +0.000 C 
ATOM      3  C   UNL     1       2.685   4.499  19.392  0.00  0.00    +0.000 A 
ATOM      4  C   UNL     1       2.385   4.785  20.738  0.00  0.00    +0.000 A 
ATOM      5  C   UNL     1       1.842   3.809  21.575  0.00  0.00    +0.000 A 
ATOM      6  C   UNL     1       1.587   2.539  21.080  0.00  0.00    +0.000 A 
ATOM      7  C   UNL     1       1.877   2.239  19.751  0.00  0.00    +0.000 A 
ATOM      8  C   UNL     1       2.437   3.202  18.886  0.00  0.00    +0.000 A 
ATOM      9  C   UNL     1       2.767   2.711  17.482  0.00  0.00    +0.000 C 
ATOM     10  C   UNL     1       3.303   3.681  16.424  0.00  0.00    +0.000 C 
ATOM     11  C   UNL     1       4.616   4.303  16.833  0.00  0.00    +0.000 A 
ATOM     12  C   UNL     1       5.806   4.020  16.154  0.00  0.00    +0.000 A 
ATOM     13  C   UNL     1       7.000   4.633  16.545  0.00  0.00    +0.000 A 
ATOM     14  C   UNL     1       7.020   5.517  17.623  0.00  0.00    +0.000 A 
ATOM     15  C   UNL     1       5.844   5.791  18.321  0.00  0.00    +0.000 A 
ATOM     16  C   UNL     1       4.635   5.205  17.910  0.00  0.00    +0.000 A 
ENDROOT
BRANCH   1  17
ATOM     17  O   UNL     1       2.972   7.839  17.629  0.00  0.00    +0.000 OA
BRANCH  17  18
ATOM     18  C   UNL     1       2.160   8.983  17.877  0.00  0.00    +0.000 C 
BRANCH  18  19
ATOM     19  C   UNL     1       1.487   8.963  19.255  0.00  0.00    +0.000 C 
BRANCH  19  24
ATOM     20  C   UNL     1      -1.003  11.738  18.602  0.00  0.00    +0.000 C 
ATOM     21  C   UNL     1      -1.701  11.821  19.961  0.00  0.00    +0.000 C 
ATOM     22  C   UNL     1      -0.747  11.473  21.097  0.00  0.00    +0.000 C 
ATOM     23  C   UNL     1       0.016  10.176  20.821  0.00  0.00    +0.000 C 
ATOM     24  N   UNL     1       0.699  10.202  19.504  0.00  0.00    +0.000 NA
ATOM     25  C   UNL     1      -0.296  10.390  18.427  0.00  0.00    +0.000 C 
BRANCH  20  27
ATOM     26  O   UNL     1      -0.411  14.080  18.603  0.00  0.00    +0.000 OA
ATOM     27  C   UNL     1      -0.071  12.924  18.392  0.00  0.00    +0.000 C 
BRANCH  27  28
ATOM     28  O   UNL     1       1.193  12.609  18.019  0.00  0.00    +0.000 OA
ATOM     29  H   UNL     1       1.333  12.744  17.051  0.00  0.00    +0.000 HD
ENDBRANCH  27  28
ENDBRANCH  20  27
ENDBRANCH  19  24
ENDBRANCH  18  19
ENDBRANCH  17  18
ENDBRANCH   1  17
TORSDOF 6
ENDMDL
MODEL 4
REMARK VINA RESULT:      -8.4      1.611      2.025
REMARK  Name = 
REMARK  6 active torsions:
REMARK  status: ('A' for Active; 'I' for Inactive)
REMARK    1  A    between atoms: C_2  and  O_3
REMARK    2  A    between atoms: C_2  and  C_4
REMARK    3  A    between atoms: N_8  and  C_9
REMARK    4  A    between atoms: C_9  and  C_10
REMARK    5  A    between atoms: C_10  and  O_11
REMARK    6  A    between atoms: O_11  and  C_12
REMARK                            x       y       z     vdW  Elec       q    Type
REMARK                         _______ _______ _______ _____ _____    ______ ____
ROOT
ATOM      1  C   UNL     1       2.796   6.764  18.491  0.00  0.00    +0.000 C 
ATOM      2  C   UNL     1       3.418   5.565  18.644  0.00  0.00    +0.000 C 
ATOM      3  C   UNL     1       2.715   4.516  19.431  0.00  0.00    +0.000 A 
ATOM      4  C   UNL     1       2.394   4.785  20.776  0.00  0.00    +0.000 A 
ATOM      5  C   UNL     1       1.823   3.803  21.587  0.00  0.00    +0.000 A 
ATOM      6  C   UNL     1       1.561   2.544  21.068  0.00  0.00    +0.000 A 
ATOM      7  C   UNL     1       1.873   2.261  19.740  0.00  0.00    +0.000 A 
ATOM      8  C   UNL     1       2.461   3.231  18.900  0.00  0.00    +0.000 A 
ATOM      9  C   UNL     1       2.811   2.756  17.496  0.00  0.00    +0.000 C 
ATOM     10  C   UNL     1       3.378   3.736  16.463  0.00  0.00    +0.000 C 
ATOM     11  C   UNL     1       4.691   4.335  16.906  0.00  0.00    +0.000 A 
ATOM     12  C   UNL     1       5.890   4.048  16.245  0.00  0.00    +0.000 A 
ATOM     13  C   UNL     1       7.084   4.640  16.667  0.00  0.00    +0.000 A 
ATOM     14  C   UNL     1       7.094   5.507  17.759  0.00  0.00    +0.000 A 
ATOM     15  C   UNL     1       5.909   5.784  18.440  0.00  0.00    +0.000 A 
ATOM     16  C   UNL     1       4.701   5.221  17.997  0.00  0.00    +0.000 A 
ENDROOT
BRANCH   1  17
ATOM     17  O   UNL     1       3.076   7.879  17.726  0.00  0.00    +0.000 OA
BRANCH  17  18
ATOM     18  C   UNL     1       2.120   8.934  17.782  0.00  0.00    +0.000 C 
BRANCH  18  19
ATOM     19  C   UNL     1       1.429   9.055  19.146  0.00  0.00    +0.000 C 
BRANCH  19  24
ATOM     20  C   UNL     1       0.769  12.780  19.001  0.00  0.00    +0.000 C 
ATOM     21  C   UNL     1      -0.619  12.798  18.357  0.00  0.00    +0.000 C 
ATOM     22  C   UNL     1      -1.433  11.574  18.755  0.00  0.00    +0.000 C 
ATOM     23  C   UNL     1      -0.636  10.280  18.577  0.00  0.00    +0.000 C 
ATOM     24  N   UNL     1       0.673  10.332  19.272  0.00  0.00    +0.000 NA
ATOM     25  C   UNL     1       1.481  11.449  18.736  0.00  0.00    +0.000 C 
BRANCH  20  27
ATOM     26  O   UNL     1      -0.049  13.991  20.924  0.00  0.00    +0.000 OA
ATOM     27  C   UNL     1       0.689  13.120  20.483  0.00  0.00    +0.000 C 
BRANCH  27  28
ATOM     28  O   UNL     1       1.442  12.343  21.298  0.00  0.00    +0.000 OA
ATOM     29  H   UNL     1       1.378  11.387  21.053  0.00  0.00    +0.000 HD
ENDBRANCH  27  28
ENDBRANCH  20  27
ENDBRANCH  19  24
ENDBRANCH  18  19
ENDBRANCH  17  18
ENDBRANCH   1  17
TORSDOF 6
ENDMDL
MODEL 5
REMARK VINA RESULT:      -8.4      1.743      2.158
REMARK  Name = 
REMARK  6 active torsions:
REMARK  status: ('A' for Active; 'I' for Inactive)
REMARK    1  A    between atoms: C_2  and  O_3
REMARK    2  A    between atoms: C_2  and  C_4
REMARK    3  A    between atoms: N_8  and  C_9
REMARK    4  A    between atoms: C_9  and  C_10
REMARK    5  A    between atoms: C_10  and  O_11
REMARK    6  A    between atoms: O_11  and  C_12
REMARK                            x       y       z     vdW  Elec       q    Type
REMARK                         _______ _______ _______ _____ _____    ______ ____
ROOT
ATOM      1  C   UNL     1       2.636   6.719  18.436  0.00  0.00    +0.000 C 
ATOM      2  C   UNL     1       3.287   5.535  18.583  0.00  0.00    +0.000 C 
ATOM      3  C   UNL     1       2.648   4.494  19.433  0.00  0.00    +0.000 A 
ATOM      4  C   UNL     1       2.394   4.790  20.786  0.00  0.00    +0.000 A 
ATOM      5  C   UNL     1       1.886   3.820  21.650  0.00  0.00    +0.000 A 
ATOM      6  C   UNL     1       1.621   2.543  21.177  0.00  0.00    +0.000 A 
ATOM      7  C   UNL     1       1.866   2.233  19.841  0.00  0.00    +0.000 A 
ATOM      8  C   UNL     1       2.390   3.191  18.948  0.00  0.00    +0.000 A 
ATOM      9  C   UNL     1       2.673   2.688  17.538  0.00  0.00    +0.000 C 
ATOM     10  C   UNL     1       3.165   3.652  16.453  0.00  0.00    +0.000 C 
ATOM     11  C   UNL     1       4.488   4.285  16.810  0.00  0.00    +0.000 A 
ATOM     12  C   UNL     1       5.655   4.002  16.091  0.00  0.00    +0.000 A 
ATOM     13  C   UNL     1       6.859   4.625  16.434  0.00  0.00    +0.000 A 
ATOM     14  C   UNL     1       6.912   5.519  17.503  0.00  0.00    +0.000 A 
ATOM     15  C   UNL     1       5.759   5.793  18.240  0.00  0.00    +0.000 A 
ATOM     16  C   UNL     1       4.540   5.197  17.877  0.00  0.00    +0.000 A 
ENDROOT
BRANCH   1  17
ATOM     17  O   UNL     1       2.853   7.819  17.631  0.00  0.00    +0.000 OA
BRANCH  17  18
ATOM     18  C   UNL     1       2.381   9.066  18.132  0.00  0.00    +0.000 C 
BRANCH  18  19
ATOM     19  C   UNL     1       0.892   9.308  17.852  0.00  0.00    +0.000 C 
BRANCH  19  24
ATOM     20  C   UNL     1       0.557  11.478  20.936  0.00  0.00    +0.000 C 
ATOM     21  C   UNL     1      -0.673  12.310  20.567  0.00  0.00    +0.000 C 
ATOM     22  C   UNL     1      -1.639  11.516  19.696  0.00  0.00    +0.000 C 
ATOM     23  C   UNL     1      -0.923  10.836  18.528  0.00  0.00    +0.000 C 
ATOM     24  N   UNL     1       0.226  10.015  18.981  0.00  0.00    +0.000 NA
ATOM     25  C   UNL     1       1.204  10.868  19.688  0.00  0.00    +0.000 C 
BRANCH  20  27
ATOM     26  O   UNL     1      -0.291  10.721  23.068  0.00  0.00    +0.000 OA
ATOM     27  C   UNL     1       0.215  10.435  21.992  0.00  0.00    +0.000 C 
BRANCH  27  28
ATOM     28  O   UNL     1       0.444   9.148  21.632  0.00  0.00    +0.000 OA
ATOM     29  H   UNL     1      -0.354   8.738  21.218  0.00  0.00    +0.000 HD
ENDBRANCH  27  28
ENDBRANCH  20  27
ENDBRANCH  19  24
ENDBRANCH  18  19
ENDBRANCH  17  18
ENDBRANCH   1  17
TORSDOF 6
ENDMDL
MODEL 6
REMARK VINA RESULT:      -8.2      3.726      7.104
REMARK  Name = 
REMARK  6 active torsions:
REMARK  status: ('A' for Active; 'I' for Inactive)
REMARK    1  A    between atoms: C_2  and  O_3
REMARK    2  A    between atoms: C_2  and  C_4
REMARK    3  A    between atoms: N_8  and  C_9
REMARK    4  A    between atoms: C_9  and  C_10
REMARK    5  A    between atoms: C_10  and  O_11
REMARK    6  A    between atoms: O_11  and  C_12
REMARK                            x       y       z     vdW  Elec       q    Type
REMARK                         _______ _______ _______ _____ _____    ______ ____
ROOT
ATOM      1  C   UNL     1       4.986   5.225  19.001  0.00  0.00    +0.000 C 
ATOM      2  C   UNL     1       3.641   5.344  18.844  0.00  0.00    +0.000 C 
ATOM      3  C   UNL     1       2.837   4.093  18.803  0.00  0.00    +0.000 A 
ATOM      4  C   UNL     1       3.107   3.150  17.793  0.00  0.00    +0.000 A 
ATOM      5  C   UNL     1       2.320   2.006  17.649  0.00  0.00    +0.000 A 
ATOM      6  C   UNL     1       1.257   1.786  18.513  0.00  0.00    +0.000 A 
ATOM      7  C   UNL     1       0.976   2.708  19.518  0.00  0.00    +0.000 A 
ATOM      8  C   UNL     1       1.747   3.878  19.679  0.00  0.00    +0.000 A 
ATOM      9  C   UNL     1       1.278   4.828  20.774  0.00  0.00    +0.000 C 
ATOM     10  C   UNL     1       2.079   6.092  21.103  0.00  0.00    +0.000 C 
ATOM     11  C   UNL     1       2.176   7.029  19.923  0.00  0.00    +0.000 A 
ATOM     12  C   UNL     1       1.550   8.280  19.926  0.00  0.00    +0.000 A 
ATOM     13  C   UNL     1       1.680   9.133  18.826  0.00  0.00    +0.000 A 
ATOM     14  C   UNL     1       2.420   8.739  17.711  0.00  0.00    +0.000 A 
ATOM     15  C   UNL     1       3.031   7.485  17.688  0.00  0.00    +0.000 A 
ATOM     16  C   UNL     1       2.933   6.640  18.805  0.00  0.00    +0.000 A 
ENDROOT
BRANCH   1  17
ATOM     17  O   UNL     1       5.992   6.144  19.223  0.00  0.00    +0.000 OA
BRANCH  17  18
ATOM     18  C   UNL     1       7.242   5.871  18.596  0.00  0.00    +0.000 C 
BRANCH  18  19
ATOM     19  C   UNL     1       7.529   6.780  17.394  0.00  0.00    +0.000 C 
BRANCH  19  24
ATOM     20  C   UNL     1       6.771   4.263  14.670  0.00  0.00    +0.000 C 
ATOM     21  C   UNL     1       5.270   4.493  14.478  0.00  0.00    +0.000 C 
ATOM     22  C   UNL     1       4.894   5.946  14.739  0.00  0.00    +0.000 C 
ATOM     23  C   UNL     1       5.481   6.457  16.057  0.00  0.00    +0.000 C 
ATOM     24  N   UNL     1       6.945   6.235  16.137  0.00  0.00    +0.000 NA
ATOM     25  C   UNL     1       7.240   4.790  16.030  0.00  0.00    +0.000 C 
BRANCH  20  27
ATOM     26  O   UNL     1       7.367   4.523  12.344  0.00  0.00    +0.000 OA
ATOM     27  C   UNL     1       7.566   4.842  13.508  0.00  0.00    +0.000 C 
BRANCH  27  28
ATOM     28  O   UNL     1       8.470   5.795  13.841  0.00  0.00    +0.000 OA
ATOM     29  H   UNL     1       8.878   6.206  13.040  0.00  0.00    +0.000 HD
ENDBRANCH  27  28
ENDBRANCH  20  27
ENDBRANCH  19  24
ENDBRANCH  18  19
ENDBRANCH  17  18
ENDBRANCH   1  17
TORSDOF 6
ENDMDL
MODEL 7
REMARK VINA RESULT:      -8.2      1.853      2.259
REMARK  Name = 
REMARK  6 active torsions:
REMARK  status: ('A' for Active; 'I' for Inactive)
REMARK    1  A    between atoms: C_2  and  O_3
REMARK    2  A    between atoms: C_2  and  C_4
REMARK    3  A    between atoms: N_8  and  C_9
REMARK    4  A    between atoms: C_9  and  C_10
REMARK    5  A    between atoms: C_10  and  O_11
REMARK    6  A    between atoms: O_11  and  C_12
REMARK                            x       y       z     vdW  Elec       q    Type
REMARK                         _______ _______ _______ _____ _____    ______ ____
ROOT
ATOM      1  C   UNL     1       2.789   6.756  18.802  0.00  0.00    +0.000 C 
ATOM      2  C   UNL     1       3.409   5.547  18.848  0.00  0.00    +0.000 C 
ATOM      3  C   UNL     1       2.730   4.449  19.588  0.00  0.00    +0.000 A 
ATOM      4  C   UNL     1       2.460   4.625  20.958  0.00  0.00    +0.000 A 
ATOM      5  C   UNL     1       1.914   3.592  21.721  0.00  0.00    +0.000 A 
ATOM      6  C   UNL     1       1.626   2.372  21.127  0.00  0.00    +0.000 A 
ATOM      7  C   UNL     1       1.886   2.181  19.772  0.00  0.00    +0.000 A 
ATOM      8  C   UNL     1       2.449   3.204  18.980  0.00  0.00    +0.000 A 
ATOM      9  C   UNL     1       2.743   2.826  17.534  0.00  0.00    +0.000 C 
ATOM     10  C   UNL     1       3.278   3.873  16.550  0.00  0.00    +0.000 C 
ATOM     11  C   UNL     1       4.610   4.435  16.984  0.00  0.00    +0.000 A 
ATOM     12  C   UNL     1       5.781   4.190  16.260  0.00  0.00    +0.000 A 
ATOM     13  C   UNL     1       6.994   4.747  16.677  0.00  0.00    +0.000 A 
ATOM     14  C   UNL     1       7.050   5.537  17.825  0.00  0.00    +0.000 A 
ATOM     15  C   UNL     1       5.892   5.771  18.566  0.00  0.00    +0.000 A 
ATOM     16  C   UNL     1       4.665   5.243  18.132  0.00  0.00    +0.000 A 
ENDROOT
BRANCH   1  17
ATOM     17  O   UNL     1       3.047   7.919  18.105  0.00  0.00    +0.000 OA
BRANCH  17  18
ATOM     18  C   UNL     1       1.911   8.695  17.736  0.00  0.00    +0.000 C 
BRANCH  18  19
ATOM     19  C   UNL     1       2.111  10.201  17.940  0.00  0.00    +0.000 C 
BRANCH  19  24
ATOM     20  C   UNL     1      -0.119  12.486  19.975  0.00  0.00    +0.000 C 
ATOM     21  C   UNL     1      -1.008  11.461  20.682  0.00  0.00    +0.000 C 
ATOM     22  C   UNL     1      -0.253  10.166  20.957  0.00  0.00    +0.000 C 
ATOM     23  C   UNL     1       0.481   9.662  19.713  0.00  0.00    +0.000 C 
ATOM     24  N   UNL     1       1.354  10.705  19.120  0.00  0.00    +0.000 NA
ATOM     25  C   UNL     1       0.541  11.878  18.733  0.00  0.00    +0.000 C 
BRANCH  20  27
ATOM     26  O   UNL     1       0.578  13.514  22.047  0.00  0.00    +0.000 OA
ATOM     27  C   UNL     1       0.889  13.095  20.940  0.00  0.00    +0.000 C 
BRANCH  27  28
ATOM     28  O   UNL     1       2.177  13.078  20.520  0.00  0.00    +0.000 OA
ATOM     29  H   UNL     1       2.403  12.229  20.068  0.00  0.00    +0.000 HD
ENDBRANCH  27  28
ENDBRANCH  20  27
ENDBRANCH  19  24
ENDBRANCH  18  19
ENDBRANCH  17  18
ENDBRANCH   1  17
TORSDOF 6
ENDMDL
MODEL 8
REMARK VINA RESULT:      -8.1      1.143      1.381
REMARK  Name = 
REMARK  6 active torsions:
REMARK  status: ('A' for Active; 'I' for Inactive)
REMARK    1  A    between atoms: C_2  and  O_3
REMARK    2  A    between atoms: C_2  and  C_4
REMARK    3  A    between atoms: N_8  and  C_9
REMARK    4  A    between atoms: C_9  and  C_10
REMARK    5  A    between atoms: C_10  and  O_11
REMARK    6  A    between atoms: O_11  and  C_12
REMARK                            x       y       z     vdW  Elec       q    Type
REMARK                         _______ _______ _______ _____ _____    ______ ____
ROOT
ATOM      1  C   UNL     1       2.911   6.785  18.587  0.00  0.00    +0.000 C 
ATOM      2  C   UNL     1       3.508   5.572  18.720  0.00  0.00    +0.000 C 
ATOM      3  C   UNL     1       2.763   4.508  19.446  0.00  0.00    +0.000 A 
ATOM      4  C   UNL     1       2.398   4.736  20.786  0.00  0.00    +0.000 A 
ATOM      5  C   UNL     1       1.783   3.737  21.543  0.00  0.00    +0.000 A 
ATOM      6  C   UNL     1       1.521   2.500  20.972  0.00  0.00    +0.000 A 
ATOM      7  C   UNL     1       1.875   2.258  19.646  0.00  0.00    +0.000 A 
ATOM      8  C   UNL     1       2.508   3.246  18.862  0.00  0.00    +0.000 A 
ATOM      9  C   UNL     1       2.900   2.814  17.455  0.00  0.00    +0.000 C 
ATOM     10  C   UNL     1       3.518   3.819  16.477  0.00  0.00    +0.000 C 
ATOM     11  C   UNL     1       4.824   4.381  16.986  0.00  0.00    +0.000 A 
ATOM     12  C   UNL     1       6.041   4.096  16.357  0.00  0.00    +0.000 A 
ATOM     13  C   UNL     1       7.228   4.653  16.842  0.00  0.00    +0.000 A 
ATOM     14  C   UNL     1       7.213   5.483  17.963  0.00  0.00    +0.000 A 
ATOM     15  C   UNL     1       6.008   5.756  18.610  0.00  0.00    +0.000 A 
ATOM     16  C   UNL     1       4.808   5.228  18.107  0.00  0.00    +0.000 A 
ENDROOT
BRANCH   1  17
ATOM     17  O   UNL     1       3.235   7.920  17.872  0.00  0.00    +0.000 OA
BRANCH  17  18
ATOM     18  C   UNL     1       2.199   8.888  17.728  0.00  0.00    +0.000 C 
BRANCH  18  19
ATOM     19  C   UNL     1       1.419   9.139  19.024  0.00  0.00    +0.000 C 
BRANCH  19  24
ATOM     20  C   UNL     1       0.074  12.297  20.621  0.00  0.00    +0.000 C 
ATOM     21  C   UNL     1       0.978  13.349  19.976  0.00  0.00    +0.000 C 
ATOM     22  C   UNL     1       1.384  12.943  18.565  0.00  0.00    +0.000 C 
ATOM     23  C   UNL     1       1.901  11.504  18.515  0.00  0.00    +0.000 C 
ATOM     24  N   UNL     1       0.943  10.547  19.119  0.00  0.00    +0.000 NA
ATOM     25  C   UNL     1       0.704  10.902  20.534  0.00  0.00    +0.000 C 
BRANCH  20  27
ATOM     26  O   UNL     1      -2.030  13.349  20.072  0.00  0.00    +0.000 OA
ATOM     27  C   UNL     1      -1.330  12.346  20.034  0.00  0.00    +0.000 C 
BRANCH  27  28
ATOM     28  O   UNL     1      -1.733  11.220  19.397  0.00  0.00    +0.000 OA
ATOM     29  H   UNL     1      -1.746  10.442  20.005  0.00  0.00    +0.000 HD
ENDBRANCH  27  28
ENDBRANCH  20  27
ENDBRANCH  19  24
ENDBRANCH  18  19
ENDBRANCH  17  18
ENDBRANCH   1  17
TORSDOF 6
ENDMDL
MODEL 9
REMARK VINA RESULT:      -8.1      2.107      4.456
REMARK  Name = 
REMARK  6 active torsions:
REMARK  status: ('A' for Active; 'I' for Inactive)
REMARK    1  A    between atoms: C_2  and  O_3
REMARK    2  A    between atoms: C_2  and  C_4
REMARK    3  A    between atoms: N_8  and  C_9
REMARK    4  A    between atoms: C_9  and  C_10
REMARK    5  A    between atoms: C_10  and  O_11
REMARK    6  A    between atoms: O_11  and  C_12
REMARK                            x       y       z     vdW  Elec       q    Type
REMARK                         _______ _______ _______ _____ _____    ______ ____
ROOT
ATOM      1  C   UNL     1       3.247   7.194  17.664  0.00  0.00    +0.000 C 
ATOM      2  C   UNL     1       3.613   5.887  17.595  0.00  0.00    +0.000 C 
ATOM      3  C   UNL     1       4.889   5.561  16.902  0.00  0.00    +0.000 A 
ATOM      4  C   UNL     1       5.030   5.916  15.547  0.00  0.00    +0.000 A 
ATOM      5  C   UNL     1       6.165   5.549  14.823  0.00  0.00    +0.000 A 
ATOM      6  C   UNL     1       7.176   4.829  15.442  0.00  0.00    +0.000 A 
ATOM      7  C   UNL     1       7.054   4.471  16.783  0.00  0.00    +0.000 A 
ATOM      8  C   UNL     1       5.912   4.818  17.535  0.00  0.00    +0.000 A 
ATOM      9  C   UNL     1       5.886   4.297  18.966  0.00  0.00    +0.000 C 
ATOM     10  C   UNL     1       4.740   4.675  19.910  0.00  0.00    +0.000 C 
ATOM     11  C   UNL     1       3.401   4.200  19.401  0.00  0.00    +0.000 A 
ATOM     12  C   UNL     1       2.674   3.204  20.063  0.00  0.00    +0.000 A 
ATOM     13  C   UNL     1       1.426   2.805  19.576  0.00  0.00    +0.000 A 
ATOM     14  C   UNL     1       0.901   3.383  18.420  0.00  0.00    +0.000 A 
ATOM     15  C   UNL     1       1.626   4.362  17.740  0.00  0.00    +0.000 A 
ATOM     16  C   UNL     1       2.864   4.791  18.245  0.00  0.00    +0.000 A 
ENDROOT
BRANCH   1  17
ATOM     17  O   UNL     1       2.237   7.854  18.336  0.00  0.00    +0.000 OA
BRANCH  17  18
ATOM     18  C   UNL     1       1.952   9.178  17.896  0.00  0.00    +0.000 C 
BRANCH  18  19
ATOM     19  C   UNL     1       0.451   9.484  17.825  0.00  0.00    +0.000 C 
BRANCH  19  24
ATOM     20  C   UNL     1       0.619  11.326  21.128  0.00  0.00    +0.000 C 
ATOM     21  C   UNL     1      -0.494  12.358  20.936  0.00  0.00    +0.000 C 
ATOM     22  C   UNL     1      -1.616  11.809  20.063  0.00  0.00    +0.000 C 
ATOM     23  C   UNL     1      -1.076  11.169  18.783  0.00  0.00    +0.000 C 
ATOM     24  N   UNL     1      -0.037  10.149  19.065  0.00  0.00    +0.000 NA
ATOM     25  C   UNL     1       1.096  10.773  19.781  0.00  0.00    +0.000 C 
BRANCH  20  27
ATOM     26  O   UNL     1      -0.208  10.465  23.229  0.00  0.00    +0.000 OA
ATOM     27  C   UNL     1       0.189  10.231  22.096  0.00  0.00    +0.000 C 
BRANCH  27  28
ATOM     28  O   UNL     1       0.207   8.973  21.593  0.00  0.00    +0.000 OA
ATOM     29  H   UNL     1      -0.548   8.816  20.975  0.00  0.00    +0.000 HD
ENDBRANCH  27  28
ENDBRANCH  20  27
ENDBRANCH  19  24
ENDBRANCH  18  19
ENDBRANCH  17  18
ENDBRANCH   1  17
TORSDOF 6
ENDMDL
