MODEL 1
REMARK VINA RESULT:      -7.0      0.000      0.000
REMARK  Name = 
REMARK  5 active torsions:
REMARK  status: ('A' for Active; 'I' for Inactive)
REMARK    1  A    between atoms: C_1  and  C_2
REMARK    2  A    between atoms: N_7  and  C_11
REMARK    3  A    between atoms: C_8  and  C_9
REMARK    4  A    between atoms: C_20  and  C_21
REMARK    5  A    between atoms: C_27  and  C_28
REMARK                            x       y       z     vdW  Elec       q    Type
REMARK                         _______ _______ _______ _____ _____    ______ ____
ROOT
ATOM      1  C   UNL     1      -2.626  10.518  18.384  0.00  0.00    +0.000 C 
ATOM      2  C   UNL     1      -1.535  11.321  19.046  0.00  0.00    +0.000 C 
ATOM      3  O   UNL     1      -0.345  11.097  18.828  0.00  0.00    +0.000 OA
ATOM      4  N   UNL     1      -1.967  12.323  19.902  0.00  0.00    +0.000 N 
ATOM      5  N   UNL     1      -3.299  12.408  20.255  0.00  0.00    +0.000 NA
ATOM      6  C   UNL     1      -3.460  13.175  21.281  0.00  0.00    +0.000 C 
ATOM      7  N   UNL     1      -4.677  13.408  21.881  0.00  0.00    +0.000 N 
ATOM      8  C   UNL     1      -4.944  13.020  23.201  0.00  0.00    +0.000 C 
ATOM      9  C   UNL     1      -3.859  12.351  24.021  0.00  0.00    +0.000 C 
ATOM     10  O   UNL     1      -6.057  13.168  23.718  0.00  0.00    +0.000 OA
ATOM     11  S   UNL     1      -2.052  13.998  21.903  0.00  0.00    +0.000 S 
ATOM     12  C   UNL     1      -1.010  13.099  20.684  0.00  0.00    +0.000 C 
ENDROOT
BRANCH  12  13
ATOM     13  C   UNL     1      -0.194  14.067  19.865  0.00  0.00    +0.000 A 
ATOM     14  C   UNL     1      -0.801  15.128  19.176  0.00  0.00    +0.000 A 
ATOM     15  C   UNL     1      -0.024  16.102  18.533  0.00  0.00    +0.000 A 
ATOM     16  C   UNL     1      -0.628  17.203  17.908  0.00  0.00    +0.000 A 
ATOM     17  C   UNL     1       0.157  18.201  17.333  0.00  0.00    +0.000 A 
ATOM     18  C   UNL     1       1.541  18.092  17.369  0.00  0.00    +0.000 A 
ATOM     19  C   UNL     1       2.152  16.978  17.973  0.00  0.00    +0.000 A 
ATOM     20  C   UNL     1       3.655  16.892  18.020  0.00  0.00    +0.000 C 
ATOM     21  C   UNL     1       1.379  15.971  18.565  0.00  0.00    +0.000 A 
ATOM     22  N   UNL     1       1.968  14.922  19.165  0.00  0.00    +0.000 NA
ATOM     23  C   UNL     1       1.186  14.010  19.793  0.00  0.00    +0.000 A 
ATOM     24 CL   UNL     1       2.130  12.775  20.538  0.00  0.00    +0.000 Cl
ENDBRANCH  12  13
BRANCH   7  25
ATOM     25  C   UNL     1      -5.853  13.845  21.063  0.00  0.00    +0.000 C 
ATOM     26  C   UNL     1      -5.490  14.928  20.026  0.00  0.00    +0.000 C 
ATOM     27  C   UNL     1      -6.666  15.725  19.451  0.00  0.00    +0.000 C 
ATOM     28  C   UNL     1      -7.700  15.004  18.584  0.00  0.00    +0.000 C 
ATOM     29  C   UNL     1      -7.138  14.018  17.562  0.00  0.00    +0.000 C 
ATOM     30  C   UNL     1      -7.238  12.553  17.988  0.00  0.00    +0.000 C 
ATOM     31  C   UNL     1      -6.315  12.122  19.130  0.00  0.00    +0.000 C 
ATOM     32  C   UNL     1      -6.689  12.664  20.513  0.00  0.00    +0.000 C 
ENDBRANCH   7  25
TORSDOF 2
ENDMDL
MODEL 2
REMARK VINA RESULT:      -6.6      1.310      1.623
REMARK  Name = 
REMARK  5 active torsions:
REMARK  status: ('A' for Active; 'I' for Inactive)
REMARK    1  A    between atoms: C_1  and  C_2
REMARK    2  A    between atoms: N_7  and  C_11
REMARK    3  A    between atoms: C_8  and  C_9
REMARK    4  A    between atoms: C_20  and  C_21
REMARK    5  A    between atoms: C_27  and  C_28
REMARK                            x       y       z     vdW  Elec       q    Type
REMARK                         _______ _______ _______ _____ _____    ______ ____
ROOT
ATOM      1  C   UNL     1      -4.051  11.391  18.039  0.00  0.00    +0.000 C 
ATOM      2  C   UNL     1      -2.729  11.571  18.741  0.00  0.00    +0.000 C 
ATOM      3  O   UNL     1      -1.738  10.911  18.432  0.00  0.00    +0.000 OA
ATOM      4  N   UNL     1      -2.711  12.530  19.743  0.00  0.00    +0.000 N 
ATOM      5  N   UNL     1      -3.890  13.104  20.176  0.00  0.00    +0.000 NA
ATOM      6  C   UNL     1      -3.724  13.716  21.300  0.00  0.00    +0.000 C 
ATOM      7  N   UNL     1      -4.738  14.342  21.990  0.00  0.00    +0.000 N 
ATOM      8  C   UNL     1      -5.148  13.915  23.261  0.00  0.00    +0.000 C 
ATOM      9  C   UNL     1      -4.444  12.750  23.926  0.00  0.00    +0.000 C 
ATOM     10  O   UNL     1      -6.103  14.433  23.852  0.00  0.00    +0.000 OA
ATOM     11  S   UNL     1      -2.105  13.790  21.948  0.00  0.00    +0.000 S 
ATOM     12  C   UNL     1      -1.523  12.725  20.568  0.00  0.00    +0.000 C 
ENDROOT
BRANCH  12  13
ATOM     13  C   UNL     1      -0.375  13.377  19.840  0.00  0.00    +0.000 A 
ATOM     14  C   UNL     1      -0.470  14.692  19.360  0.00  0.00    +0.000 A 
ATOM     15  C   UNL     1       0.646  15.336  18.810  0.00  0.00    +0.000 A 
ATOM     16  C   UNL     1       0.571  16.676  18.400  0.00  0.00    +0.000 A 
ATOM     17  C   UNL     1       1.705  17.328  17.920  0.00  0.00    +0.000 A 
ATOM     18  C   UNL     1       2.908  16.639  17.835  0.00  0.00    +0.000 A 
ATOM     19  C   UNL     1       2.985  15.289  18.223  0.00  0.00    +0.000 A 
ATOM     20  C   UNL     1       4.305  14.569  18.143  0.00  0.00    +0.000 C 
ATOM     21  C   UNL     1       1.857  14.621  18.717  0.00  0.00    +0.000 A 
ATOM     22  N   UNL     1       1.941  13.339  19.112  0.00  0.00    +0.000 NA
ATOM     23  C   UNL     1       0.847  12.754  19.656  0.00  0.00    +0.000 A 
ATOM     24 CL   UNL     1       1.172  11.131  20.140  0.00  0.00    +0.000 Cl
ENDBRANCH  12  13
BRANCH   7  25
ATOM     25  C   UNL     1      -5.623  15.334  21.301  0.00  0.00    +0.000 C 
ATOM     26  C   UNL     1      -4.833  16.341  20.440  0.00  0.00    +0.000 C 
ATOM     27  C   UNL     1      -5.582  17.619  20.048  0.00  0.00    +0.000 C 
ATOM     28  C   UNL     1      -6.791  17.517  19.117  0.00  0.00    +0.000 C 
ATOM     29  C   UNL     1      -6.636  16.572  17.927  0.00  0.00    +0.000 C 
ATOM     30  C   UNL     1      -7.318  15.217  18.114  0.00  0.00    +0.000 C 
ATOM     31  C   UNL     1      -6.673  14.276  19.134  0.00  0.00    +0.000 C 
ATOM     32  C   UNL     1      -6.841  14.686  20.601  0.00  0.00    +0.000 C 
ENDBRANCH   7  25
TORSDOF 2
ENDMDL
MODEL 3
REMARK VINA RESULT:      -6.5      8.097     12.422
REMARK  Name = 
REMARK  5 active torsions:
REMARK  status: ('A' for Active; 'I' for Inactive)
REMARK    1  A    between atoms: C_1  and  C_2
REMARK    2  A    between atoms: N_7  and  C_11
REMARK    3  A    between atoms: C_8  and  C_9
REMARK    4  A    between atoms: C_20  and  C_21
REMARK    5  A    between atoms: C_27  and  C_28
REMARK                            x       y       z     vdW  Elec       q    Type
REMARK                         _______ _______ _______ _____ _____    ______ ____
ROOT
ATOM      1  C   UNL     1       4.112  14.319  18.271  0.00  0.00    +0.000 C 
ATOM      2  C   UNL     1       4.325  14.987  19.606  0.00  0.00    +0.000 C 
ATOM      3  O   UNL     1       3.383  15.268  20.345  0.00  0.00    +0.000 OA
ATOM      4  N   UNL     1       5.645  15.250  19.938  0.00  0.00    +0.000 N 
ATOM      5  N   UNL     1       6.643  15.089  18.997  0.00  0.00    +0.000 NA
ATOM      6  C   UNL     1       7.733  15.672  19.370  0.00  0.00    +0.000 C 
ATOM      7  N   UNL     1       8.879  15.714  18.609  0.00  0.00    +0.000 N 
ATOM      8  C   UNL     1       9.409  16.919  18.126  0.00  0.00    +0.000 C 
ATOM      9  C   UNL     1       8.730  18.229  18.470  0.00  0.00    +0.000 C 
ATOM     10  O   UNL     1      10.399  16.952  17.387  0.00  0.00    +0.000 OA
ATOM     11  S   UNL     1       7.756  16.403  20.955  0.00  0.00    +0.000 S 
ATOM     12  C   UNL     1       5.977  15.988  21.153  0.00  0.00    +0.000 C 
ENDROOT
BRANCH  12  13
ATOM     13  C   UNL     1       5.750  15.207  22.423  0.00  0.00    +0.000 A 
ATOM     14  C   UNL     1       6.168  13.873  22.540  0.00  0.00    +0.000 A 
ATOM     15  C   UNL     1       6.080  13.199  23.766  0.00  0.00    +0.000 A 
ATOM     16  C   UNL     1       6.567  11.891  23.903  0.00  0.00    +0.000 A 
ATOM     17  C   UNL     1       6.537  11.257  25.143  0.00  0.00    +0.000 A 
ATOM     18  C   UNL     1       6.009  11.923  26.242  0.00  0.00    +0.000 A 
ATOM     19  C   UNL     1       5.498  13.226  26.107  0.00  0.00    +0.000 A 
ATOM     20  C   UNL     1       4.951  13.936  27.316  0.00  0.00    +0.000 C 
ATOM     21  C   UNL     1       5.529  13.882  24.869  0.00  0.00    +0.000 A 
ATOM     22  N   UNL     1       5.063  15.137  24.750  0.00  0.00    +0.000 NA
ATOM     23  C   UNL     1       5.182  15.763  23.555  0.00  0.00    +0.000 A 
ATOM     24 CL   UNL     1       4.574  17.375  23.622  0.00  0.00    +0.000 Cl
ENDBRANCH  12  13
BRANCH   7  25
ATOM     25  C   UNL     1       9.459  14.455  18.042  0.00  0.00    +0.000 C 
ATOM     26  C   UNL     1      10.997  14.407  18.144  0.00  0.00    +0.000 C 
ATOM     27  C   UNL     1      11.696  13.389  17.237  0.00  0.00    +0.000 C 
ATOM     28  C   UNL     1      11.467  11.896  17.479  0.00  0.00    +0.000 C 
ATOM     29  C   UNL     1      11.484  11.449  18.939  0.00  0.00    +0.000 C 
ATOM     30  C   UNL     1      10.096  11.231  19.540  0.00  0.00    +0.000 C 
ATOM     31  C   UNL     1       9.264  12.493  19.783  0.00  0.00    +0.000 C 
ATOM     32  C   UNL     1       8.730  13.177  18.520  0.00  0.00    +0.000 C 
ENDBRANCH   7  25
TORSDOF 2
ENDMDL
MODEL 4
REMARK VINA RESULT:      -6.5      3.703      6.241
REMARK  Name = 
REMARK  5 active torsions:
REMARK  status: ('A' for Active; 'I' for Inactive)
REMARK    1  A    between atoms: C_1  and  C_2
REMARK    2  A    between atoms: N_7  and  C_11
REMARK    3  A    between atoms: C_8  and  C_9
REMARK    4  A    between atoms: C_20  and  C_21
REMARK    5  A    between atoms: C_27  and  C_28
REMARK                            x       y       z     vdW  Elec       q    Type
REMARK                         _______ _______ _______ _____ _____    ______ ____
ROOT
ATOM      1  C   UNL     1      -0.832  10.416  23.547  0.00  0.00    +0.000 C 
ATOM      2  C   UNL     1      -0.412  10.297  22.104  0.00  0.00    +0.000 C 
ATOM      3  O   UNL     1      -0.316   9.204  21.547  0.00  0.00    +0.000 OA
ATOM      4  N   UNL     1      -0.155  11.496  21.456  0.00  0.00    +0.000 N 
ATOM      5  N   UNL     1      -0.094  12.673  22.174  0.00  0.00    +0.000 NA
ATOM      6  C   UNL     1       0.459  13.613  21.482  0.00  0.00    +0.000 C 
ATOM      7  N   UNL     1       0.693  14.882  21.961  0.00  0.00    +0.000 N 
ATOM      8  C   UNL     1       1.989  15.396  22.106  0.00  0.00    +0.000 C 
ATOM      9  C   UNL     1       3.182  14.554  21.698  0.00  0.00    +0.000 C 
ATOM     10  O   UNL     1       2.204  16.509  22.598  0.00  0.00    +0.000 OA
ATOM     11  S   UNL     1       0.886  13.252  19.828  0.00  0.00    +0.000 S 
ATOM     12  C   UNL     1       0.361  11.510  20.091  0.00  0.00    +0.000 C 
ENDROOT
BRANCH  12  13
ATOM     13  C   UNL     1      -0.651  11.097  19.052  0.00  0.00    +0.000 A 
ATOM     14  C   UNL     1      -1.948  11.631  19.046  0.00  0.00    +0.000 A 
ATOM     15  C   UNL     1      -2.835  11.349  17.999  0.00  0.00    +0.000 A 
ATOM     16  C   UNL     1      -4.105  11.943  17.954  0.00  0.00    +0.000 A 
ATOM     17  C   UNL     1      -4.951  11.709  16.872  0.00  0.00    +0.000 A 
ATOM     18  C   UNL     1      -4.536  10.873  15.844  0.00  0.00    +0.000 A 
ATOM     19  C   UNL     1      -3.274  10.255  15.894  0.00  0.00    +0.000 A 
ATOM     20  C   UNL     1      -2.836   9.370  14.757  0.00  0.00    +0.000 C 
ATOM     21  C   UNL     1      -2.406  10.487  16.970  0.00  0.00    +0.000 A 
ATOM     22  N   UNL     1      -1.189   9.916  17.000  0.00  0.00    +0.000 NA
ATOM     23  C   UNL     1      -0.352  10.227  18.018  0.00  0.00    +0.000 A 
ATOM     24 CL   UNL     1       1.170   9.434  17.850  0.00  0.00    +0.000 Cl
ENDBRANCH  12  13
BRANCH   7  25
ATOM     25  C   UNL     1      -0.412  15.667  22.596  0.00  0.00    +0.000 C 
ATOM     26  C   UNL     1      -1.651  15.798  21.687  0.00  0.00    +0.000 C 
ATOM     27  C   UNL     1      -2.640  16.908  22.058  0.00  0.00    +0.000 C 
ATOM     28  C   UNL     1      -3.411  16.807  23.376  0.00  0.00    +0.000 C 
ATOM     29  C   UNL     1      -3.965  15.426  23.717  0.00  0.00    +0.000 C 
ATOM     30  C   UNL     1      -3.134  14.657  24.744  0.00  0.00    +0.000 C 
ATOM     31  C   UNL     1      -1.771  14.153  24.262  0.00  0.00    +0.000 C 
ATOM     32  C   UNL     1      -0.709  15.237  24.052  0.00  0.00    +0.000 C 
ENDBRANCH   7  25
TORSDOF 2
ENDMDL
MODEL 5
REMARK VINA RESULT:      -6.4      4.905      9.837
REMARK  Name = 
REMARK  5 active torsions:
REMARK  status: ('A' for Active; 'I' for Inactive)
REMARK    1  A    between atoms: C_1  and  C_2
REMARK    2  A    between atoms: N_7  and  C_11
REMARK    3  A    between atoms: C_8  and  C_9
REMARK    4  A    between atoms: C_20  and  C_21
REMARK    5  A    between atoms: C_27  and  C_28
REMARK                            x       y       z     vdW  Elec       q    Type
REMARK                         _______ _______ _______ _____ _____    ______ ____
ROOT
ATOM      1  C   UNL     1       6.068  14.925  18.053  0.00  0.00    +0.000 C 
ATOM      2  C   UNL     1       4.598  15.144  18.305  0.00  0.00    +0.000 C 
ATOM      3  O   UNL     1       3.801  15.303  17.382  0.00  0.00    +0.000 OA
ATOM      4  N   UNL     1       4.215  15.143  19.638  0.00  0.00    +0.000 N 
ATOM      5  N   UNL     1       5.170  15.150  20.635  0.00  0.00    +0.000 NA
ATOM      6  C   UNL     1       4.652  15.468  21.774  0.00  0.00    +0.000 C 
ATOM      7  N   UNL     1       5.378  15.598  22.937  0.00  0.00    +0.000 N 
ATOM      8  C   UNL     1       5.490  16.821  23.612  0.00  0.00    +0.000 C 
ATOM      9  C   UNL     1       4.772  18.044  23.077  0.00  0.00    +0.000 C 
ATOM     10  O   UNL     1       6.196  16.954  24.618  0.00  0.00    +0.000 OA
ATOM     11  S   UNL     1       2.923  15.696  21.839  0.00  0.00    +0.000 S 
ATOM     12  C   UNL     1       2.840  15.451  20.020  0.00  0.00    +0.000 C 
ENDROOT
BRANCH  12  13
ATOM     13  C   UNL     1       1.853  14.364  19.674  0.00  0.00    +0.000 A 
ATOM     14  C   UNL     1       2.063  13.036  20.075  0.00  0.00    +0.000 A 
ATOM     15  C   UNL     1       1.077  12.062  19.871  0.00  0.00    +0.000 A 
ATOM     16  C   UNL     1       1.255  10.751  20.340  0.00  0.00    +0.000 A 
ATOM     17  C   UNL     1       0.240   9.809  20.193  0.00  0.00    +0.000 A 
ATOM     18  C   UNL     1      -0.946  10.170  19.567  0.00  0.00    +0.000 A 
ATOM     19  C   UNL     1      -1.122  11.475  19.074  0.00  0.00    +0.000 A 
ATOM     20  C   UNL     1      -2.425  11.850  18.417  0.00  0.00    +0.000 C 
ATOM     21  C   UNL     1      -0.115  12.438  19.221  0.00  0.00    +0.000 A 
ATOM     22  N   UNL     1      -0.298  13.692  18.772  0.00  0.00    +0.000 NA
ATOM     23  C   UNL     1       0.669  14.612  19.004  0.00  0.00    +0.000 A 
ATOM     24 CL   UNL     1       0.224  16.163  18.396  0.00  0.00    +0.000 Cl
ENDBRANCH  12  13
BRANCH   7  25
ATOM     25  C   UNL     1       6.294  14.501  23.385  0.00  0.00    +0.000 C 
ATOM     26  C   UNL     1       5.791  13.101  22.979  0.00  0.00    +0.000 C 
ATOM     27  C   UNL     1       6.413  11.922  23.735  0.00  0.00    +0.000 C 
ATOM     28  C   UNL     1       7.902  11.623  23.552  0.00  0.00    +0.000 C 
ATOM     29  C   UNL     1       8.426  11.709  22.120  0.00  0.00    +0.000 C 
ATOM     30  C   UNL     1       9.177  13.003  21.808  0.00  0.00    +0.000 C 
ATOM     31  C   UNL     1       8.324  14.272  21.729  0.00  0.00    +0.000 C 
ATOM     32  C   UNL     1       7.783  14.781  23.069  0.00  0.00    +0.000 C 
ENDBRANCH   7  25
TORSDOF 2
ENDMDL
MODEL 6
REMARK VINA RESULT:      -6.4      8.773     12.693
REMARK  Name = 
REMARK  5 active torsions:
REMARK  status: ('A' for Active; 'I' for Inactive)
REMARK    1  A    between atoms: C_1  and  C_2
REMARK    2  A    between atoms: N_7  and  C_11
REMARK    3  A    between atoms: C_8  and  C_9
REMARK    4  A    between atoms: C_20  and  C_21
REMARK    5  A    between atoms: C_27  and  C_28
REMARK                            x       y       z     vdW  Elec       q    Type
REMARK                         _______ _______ _______ _____ _____    ______ ____
ROOT
ATOM      1  C   UNL     1       5.005  15.021  19.492  0.00  0.00    +0.000 C 
ATOM      2  C   UNL     1       5.073  15.489  20.924  0.00  0.00    +0.000 C 
ATOM      3  O   UNL     1       4.061  15.795  21.552  0.00  0.00    +0.000 OA
ATOM      4  N   UNL     1       6.345  15.540  21.474  0.00  0.00    +0.000 N 
ATOM      5  N   UNL     1       7.456  15.369  20.673  0.00  0.00    +0.000 NA
ATOM      6  C   UNL     1       8.529  15.760  21.276  0.00  0.00    +0.000 C 
ATOM      7  N   UNL     1       9.780  15.749  20.700  0.00  0.00    +0.000 N 
ATOM      8  C   UNL     1      10.505  16.926  20.470  0.00  0.00    +0.000 C 
ATOM      9  C   UNL     1       9.924  18.261  20.892  0.00  0.00    +0.000 C 
ATOM     10  O   UNL     1      11.598  16.923  19.892  0.00  0.00    +0.000 OA
ATOM     11  S   UNL     1       8.378  16.285  22.934  0.00  0.00    +0.000 S 
ATOM     12  C   UNL     1       6.556  16.078  22.815  0.00  0.00    +0.000 C 
ENDROOT
BRANCH  12  13
ATOM     13  C   UNL     1       6.049  15.183  23.918  0.00  0.00    +0.000 A 
ATOM     14  C   UNL     1       6.424  13.833  23.990  0.00  0.00    +0.000 A 
ATOM     15  C   UNL     1       6.062  13.046  25.092  0.00  0.00    +0.000 A 
ATOM     16  C   UNL     1       6.500  11.718  25.200  0.00  0.00    +0.000 A 
ATOM     17  C   UNL     1       6.192  10.968  26.333  0.00  0.00    +0.000 A 
ATOM     18  C   UNL     1       5.436  11.538  27.349  0.00  0.00    +0.000 A 
ATOM     19  C   UNL     1       4.974  12.861  27.236  0.00  0.00    +0.000 A 
ATOM     20  C   UNL     1       4.175  13.465  28.361  0.00  0.00    +0.000 C 
ATOM     21  C   UNL     1       5.282  13.633  26.109  0.00  0.00    +0.000 A 
ATOM     22  N   UNL     1       4.861  14.906  26.017  0.00  0.00    +0.000 NA
ATOM     23  C   UNL     1       5.246  15.642  24.947  0.00  0.00    +0.000 A 
ATOM     24 CL   UNL     1       4.646  17.256  25.040  0.00  0.00    +0.000 Cl
ENDBRANCH  12  13
BRANCH   7  25
ATOM     25  C   UNL     1      10.304  14.504  20.052  0.00  0.00    +0.000 C 
ATOM     26  C   UNL     1      10.050  13.239  20.897  0.00  0.00    +0.000 C 
ATOM     27  C   UNL     1      10.898  12.014  20.539  0.00  0.00    +0.000 C 
ATOM     28  C   UNL     1      10.700  11.346  19.176  0.00  0.00    +0.000 C 
ATOM     29  C   UNL     1       9.253  11.178  18.722  0.00  0.00    +0.000 C 
ATOM     30  C   UNL     1       8.795  12.217  17.699  0.00  0.00    +0.000 C 
ATOM     31  C   UNL     1       8.619  13.644  18.225  0.00  0.00    +0.000 C 
ATOM     32  C   UNL     1       9.919  14.383  18.558  0.00  0.00    +0.000 C 
ENDBRANCH   7  25
TORSDOF 2
ENDMDL
MODEL 7
REMARK VINA RESULT:      -6.1      3.902      7.830
REMARK  Name = 
REMARK  5 active torsions:
REMARK  status: ('A' for Active; 'I' for Inactive)
REMARK    1  A    between atoms: C_1  and  C_2
REMARK    2  A    between atoms: N_7  and  C_11
REMARK    3  A    between atoms: C_8  and  C_9
REMARK    4  A    between atoms: C_20  and  C_21
REMARK    5  A    between atoms: C_27  and  C_28
REMARK                            x       y       z     vdW  Elec       q    Type
REMARK                         _______ _______ _______ _____ _____    ______ ____
ROOT
ATOM      1  C   UNL     1      -2.489  11.548  17.031  0.00  0.00    +0.000 C 
ATOM      2  C   UNL     1      -2.008  10.725  18.200  0.00  0.00    +0.000 C 
ATOM      3  O   UNL     1      -2.460   9.605  18.431  0.00  0.00    +0.000 OA
ATOM      4  N   UNL     1      -1.024  11.315  18.980  0.00  0.00    +0.000 N 
ATOM      5  N   UNL     1      -0.690  12.641  18.791  0.00  0.00    +0.000 NA
ATOM      6  C   UNL     1      -0.009  13.096  19.789  0.00  0.00    +0.000 C 
ATOM      7  N   UNL     1       0.420  14.400  19.893  0.00  0.00    +0.000 N 
ATOM      8  C   UNL     1      -0.028  15.253  20.911  0.00  0.00    +0.000 C 
ATOM      9  C   UNL     1      -0.991  14.732  21.958  0.00  0.00    +0.000 C 
ATOM     10  O   UNL     1       0.305  16.442  20.966  0.00  0.00    +0.000 OA
ATOM     11  S   UNL     1       0.426  11.970  21.050  0.00  0.00    +0.000 S 
ATOM     12  C   UNL     1      -0.552  10.667  20.200  0.00  0.00    +0.000 C 
ENDROOT
BRANCH  12  13
ATOM     13  C   UNL     1       0.293   9.443  19.953  0.00  0.00    +0.000 A 
ATOM     14  C   UNL     1       1.112   9.341  18.819  0.00  0.00    +0.000 A 
ATOM     15  C   UNL     1       1.997   8.264  18.668  0.00  0.00    +0.000 A 
ATOM     16  C   UNL     1       2.870   8.201  17.572  0.00  0.00    +0.000 A 
ATOM     17  C   UNL     1       3.793   7.163  17.469  0.00  0.00    +0.000 A 
ATOM     18  C   UNL     1       3.835   6.181  18.451  0.00  0.00    +0.000 A 
ATOM     19  C   UNL     1       2.947   6.226  19.541  0.00  0.00    +0.000 A 
ATOM     20  C   UNL     1       3.025   5.164  20.605  0.00  0.00    +0.000 C 
ATOM     21  C   UNL     1       2.018   7.268  19.665  0.00  0.00    +0.000 A 
ATOM     22  N   UNL     1       1.190   7.322  20.722  0.00  0.00    +0.000 NA
ATOM     23  C   UNL     1       0.361   8.387  20.845  0.00  0.00    +0.000 A 
ATOM     24 CL   UNL     1      -0.581   8.293  22.286  0.00  0.00    +0.000 Cl
ENDBRANCH  12  13
BRANCH   7  25
ATOM     25  C   UNL     1       1.177  15.040  18.770  0.00  0.00    +0.000 C 
ATOM     26  C   UNL     1       1.571  16.500  19.072  0.00  0.00    +0.000 C 
ATOM     27  C   UNL     1       1.960  17.352  17.859  0.00  0.00    +0.000 C 
ATOM     28  C   UNL     1       3.225  16.998  17.076  0.00  0.00    +0.000 C 
ATOM     29  C   UNL     1       4.446  16.630  17.916  0.00  0.00    +0.000 C 
ATOM     30  C   UNL     1       4.707  15.127  18.012  0.00  0.00    +0.000 C 
ATOM     31  C   UNL     1       3.707  14.323  18.846  0.00  0.00    +0.000 C 
ATOM     32  C   UNL     1       2.319  14.153  18.219  0.00  0.00    +0.000 C 
ENDBRANCH   7  25
TORSDOF 2
ENDMDL
MODEL 8
REMARK VINA RESULT:      -6.1      4.181      7.555
REMARK  Name = 
REMARK  5 active torsions:
REMARK  status: ('A' for Active; 'I' for Inactive)
REMARK    1  A    between atoms: C_1  and  C_2
REMARK    2  A    between atoms: N_7  and  C_11
REMARK    3  A    between atoms: C_8  and  C_9
REMARK    4  A    between atoms: C_20  and  C_21
REMARK    5  A    between atoms: C_27  and  C_28
REMARK                            x       y       z     vdW  Elec       q    Type
REMARK                         _______ _______ _______ _____ _____    ______ ____
ROOT
ATOM      1  C   UNL     1      -1.635  11.916  17.610  0.00  0.00    +0.000 C 
ATOM      2  C   UNL     1      -1.308  10.707  18.450  0.00  0.00    +0.000 C 
ATOM      3  O   UNL     1      -1.598   9.569  18.085  0.00  0.00    +0.000 OA
ATOM      4  N   UNL     1      -0.658  10.971  19.646  0.00  0.00    +0.000 N 
ATOM      5  N   UNL     1      -0.527  12.270  20.094  0.00  0.00    +0.000 NA
ATOM      6  C   UNL     1      -0.194  12.302  21.341  0.00  0.00    +0.000 C 
ATOM      7  N   UNL     1      -0.038  13.463  22.064  0.00  0.00    +0.000 N 
ATOM      8  C   UNL     1      -0.858  13.776  23.157  0.00  0.00    +0.000 C 
ATOM      9  C   UNL     1      -1.936  12.803  23.591  0.00  0.00    +0.000 C 
ATOM     10  O   UNL     1      -0.763  14.849  23.764  0.00  0.00    +0.000 OA
ATOM     11  S   UNL     1       0.121  10.777  22.132  0.00  0.00    +0.000 S 
ATOM     12  C   UNL     1      -0.382   9.899  20.598  0.00  0.00    +0.000 C 
ENDROOT
BRANCH  12  13
ATOM     13  C   UNL     1       0.699   8.948  20.150  0.00  0.00    +0.000 A 
ATOM     14  C   UNL     1       0.813   7.664  20.703  0.00  0.00    +0.000 A 
ATOM     15  C   UNL     1       1.730   6.739  20.185  0.00  0.00    +0.000 A 
ATOM     16  C   UNL     1       1.791   5.430  20.687  0.00  0.00    +0.000 A 
ATOM     17  C   UNL     1       2.657   4.500  20.118  0.00  0.00    +0.000 A 
ATOM     18  C   UNL     1       3.471   4.878  19.058  0.00  0.00    +0.000 A 
ATOM     19  C   UNL     1       3.431   6.195  18.564  0.00  0.00    +0.000 A 
ATOM     20  C   UNL     1       4.306   6.577  17.399  0.00  0.00    +0.000 C 
ATOM     21  C   UNL     1       2.559   7.141  19.119  0.00  0.00    +0.000 A 
ATOM     22  N   UNL     1       2.505   8.390  18.626  0.00  0.00    +0.000 NA
ATOM     23  C   UNL     1       1.593   9.252  19.139  0.00  0.00    +0.000 A 
ATOM     24 CL   UNL     1       1.649  10.780  18.344  0.00  0.00    +0.000 Cl
ENDBRANCH  12  13
BRANCH   7  25
ATOM     25  C   UNL     1       0.839  14.563  21.551  0.00  0.00    +0.000 C 
ATOM     26  C   UNL     1       2.081  14.036  20.803  0.00  0.00    +0.000 C 
ATOM     27  C   UNL     1       3.225  15.038  20.617  0.00  0.00    +0.000 C 
ATOM     28  C   UNL     1       3.004  16.263  19.728  0.00  0.00    +0.000 C 
ATOM     29  C   UNL     1       2.264  16.009  18.418  0.00  0.00    +0.000 C 
ATOM     30  C   UNL     1       0.789  16.408  18.446  0.00  0.00    +0.000 C 
ATOM     31  C   UNL     1      -0.126  15.531  19.304  0.00  0.00    +0.000 C 
ATOM     32  C   UNL     1       0.056  15.678  20.818  0.00  0.00    +0.000 C 
ENDBRANCH   7  25
TORSDOF 2
ENDMDL
MODEL 9
REMARK VINA RESULT:      -6.1      1.307      1.855
REMARK  Name = 
REMARK  5 active torsions:
REMARK  status: ('A' for Active; 'I' for Inactive)
REMARK    1  A    between atoms: C_1  and  C_2
REMARK    2  A    between atoms: N_7  and  C_11
REMARK    3  A    between atoms: C_8  and  C_9
REMARK    4  A    between atoms: C_20  and  C_21
REMARK    5  A    between atoms: C_27  and  C_28
REMARK                            x       y       z     vdW  Elec       q    Type
REMARK                         _______ _______ _______ _____ _____    ______ ____
ROOT
ATOM      1  C   UNL     1      -2.170  10.777  18.591  0.00  0.00    +0.000 C 
ATOM      2  C   UNL     1      -1.220  11.721  19.283  0.00  0.00    +0.000 C 
ATOM      3  O   UNL     1      -0.005  11.662  19.104  0.00  0.00    +0.000 OA
ATOM      4  N   UNL     1      -1.812  12.656  20.120  0.00  0.00    +0.000 N 
ATOM      5  N   UNL     1      -3.154  12.559  20.431  0.00  0.00    +0.000 NA
ATOM      6  C   UNL     1      -3.451  13.298  21.447  0.00  0.00    +0.000 C 
ATOM      7  N   UNL     1      -4.707  13.363  22.007  0.00  0.00    +0.000 N 
ATOM      8  C   UNL     1      -4.960  12.943  23.321  0.00  0.00    +0.000 C 
ATOM      9  C   UNL     1      -3.820  12.428  24.177  0.00  0.00    +0.000 C 
ATOM     10  O   UNL     1      -6.098  12.938  23.802  0.00  0.00    +0.000 OA
ATOM     11  S   UNL     1      -2.188  14.305  22.110  0.00  0.00    +0.000 S 
ATOM     12  C   UNL     1      -0.996  13.556  20.928  0.00  0.00    +0.000 C 
ENDROOT
BRANCH  12  13
ATOM     13  C   UNL     1      -0.293  14.626  20.131  0.00  0.00    +0.000 A 
ATOM     14  C   UNL     1       1.027  14.455  19.689  0.00  0.00    +0.000 A 
ATOM     15  C   UNL     1       1.623  15.391  18.833  0.00  0.00    +0.000 A 
ATOM     16  C   UNL     1       2.917  15.182  18.331  0.00  0.00    +0.000 A 
ATOM     17  C   UNL     1       3.472  16.083  17.426  0.00  0.00    +0.000 A 
ATOM     18  C   UNL     1       2.743  17.199  17.033  0.00  0.00    +0.000 A 
ATOM     19  C   UNL     1       1.456  17.426  17.550  0.00  0.00    +0.000 A 
ATOM     20  C   UNL     1       0.675  18.631  17.094  0.00  0.00    +0.000 C 
ATOM     21  C   UNL     1       0.878  16.525  18.454  0.00  0.00    +0.000 A 
ATOM     22  N   UNL     1      -0.364  16.732  18.925  0.00  0.00    +0.000 NA
ATOM     23  C   UNL     1      -0.915  15.797  19.736  0.00  0.00    +0.000 A 
ATOM     24 CL   UNL     1      -2.523  16.223  20.191  0.00  0.00    +0.000 Cl
ENDBRANCH  12  13
BRANCH   7  25
ATOM     25  C   UNL     1      -5.905  13.634  21.151  0.00  0.00    +0.000 C 
ATOM     26  C   UNL     1      -5.637  14.705  20.073  0.00  0.00    +0.000 C 
ATOM     27  C   UNL     1      -6.879  15.345  19.443  0.00  0.00    +0.000 C 
ATOM     28  C   UNL     1      -7.810  14.480  18.591  0.00  0.00    +0.000 C 
ATOM     29  C   UNL     1      -7.124  13.518  17.624  0.00  0.00    +0.000 C 
ATOM     30  C   UNL     1      -7.075  12.070  18.113  0.00  0.00    +0.000 C 
ATOM     31  C   UNL     1      -6.137  11.791  19.289  0.00  0.00    +0.000 C 
ATOM     32  C   UNL     1      -6.597  12.348  20.640  0.00  0.00    +0.000 C 
ENDBRANCH   7  25
TORSDOF 2
ENDMDL
