MODEL 1
REMARK VINA RESULT:      -8.7      0.000      0.000
REMARK  Name = 
REMARK  6 active torsions:
REMARK  status: ('A' for Active; 'I' for Inactive)
REMARK    1  A    between atoms: C_1  and  O_2
REMARK    2  A    between atoms: O_2  and  C_3
REMARK    3  A    between atoms: C_9  and  C_10
REMARK    4  A    between atoms: C_11  and  C_12
REMARK    5  A    between atoms: N_14  and  C_15
REMARK    6  A    between atoms: N_28  and  C_29
REMARK                            x       y       z     vdW  Elec       q    Type
REMARK                         _______ _______ _______ _____ _____    ______ ____
ROOT
ATOM      1  C   UNL     1       3.465   3.489  18.802  0.00  0.00    +0.000 C 
ATOM      2  C   UNL     1       2.368   4.028  19.357  0.00  0.00    +0.000 C 
ATOM      3  C   UNL     1       1.411   2.922  19.600  0.00  0.00    +0.000 C 
ATOM      4  O   UNL     1       0.312   3.000  20.120  0.00  0.00    +0.000 OA
ATOM      5  N   UNL     1       1.982   1.788  19.136  0.00  0.00    +0.000 N 
ATOM      6  C   UNL     1       3.209   2.040  18.639  0.00  0.00    +0.000 C 
ATOM      7  O   UNL     1       3.962   1.210  18.149  0.00  0.00    +0.000 OA
ATOM      8  H   UNL     1       1.549   0.881  19.160  0.00  0.00    +0.000 HD
ENDROOT
BRANCH   1  15
ATOM      9  C   UNL     1       5.723   4.287  14.747  0.00  0.00    +0.000 A 
ATOM     10  C   UNL     1       6.902   4.993  14.970  0.00  0.00    +0.000 A 
ATOM     11  C   UNL     1       7.302   5.334  16.260  0.00  0.00    +0.000 A 
ATOM     12  C   UNL     1       6.475   4.962  17.327  0.00  0.00    +0.000 A 
ATOM     13  C   UNL     1       5.261   4.288  17.141  0.00  0.00    +0.000 A 
ATOM     14  C   UNL     1       4.882   3.952  15.820  0.00  0.00    +0.000 A 
ATOM     15  C   UNL     1       4.690   4.109  18.439  0.00  0.00    +0.000 A 
ATOM     16  C   UNL     1       5.558   4.653  19.363  0.00  0.00    +0.000 A 
ATOM     17  N   UNL     1       6.636   5.149  18.684  0.00  0.00    +0.000 N 
ATOM     18  C   UNL     1       7.796   5.757  19.295  0.00  0.00    +0.000 C 
BRANCH   9  20
ATOM     19  C   UNL     1       6.347   3.549  12.603  0.00  0.00    +0.000 C 
ATOM     20  O   UNL     1       5.294   3.925  13.494  0.00  0.00    +0.000 OA
ENDBRANCH   9  20
ENDBRANCH   1  15
BRANCH   2  21
ATOM     21  C   UNL     1       2.101   5.385  19.678  0.00  0.00    +0.000 A 
ATOM     22  C   UNL     1       1.556   5.819  20.869  0.00  0.00    +0.000 A 
ATOM     23  N   UNL     1       1.464   7.187  20.810  0.00  0.00    +0.000 N 
ATOM     24  C   UNL     1       0.990   8.041  21.878  0.00  0.00    +0.000 C 
ATOM     25  C   UNL     1       1.909   7.646  19.586  0.00  0.00    +0.000 A 
ATOM     26  C   UNL     1       1.985   8.947  19.062  0.00  0.00    +0.000 A 
ATOM     27  C   UNL     1       2.504   9.107  17.774  0.00  0.00    +0.000 A 
ATOM     28  C   UNL     1       2.931   8.010  17.033  0.00  0.00    +0.000 A 
ATOM     29  C   UNL     1       2.844   6.721  17.562  0.00  0.00    +0.000 A 
ATOM     30  C   UNL     1       2.325   6.527  18.858  0.00  0.00    +0.000 A 
ENDBRANCH   2  21
TORSDOF 3
ENDMDL
MODEL 2
REMARK VINA RESULT:      -7.7      0.962      2.115
REMARK  Name = 
REMARK  6 active torsions:
REMARK  status: ('A' for Active; 'I' for Inactive)
REMARK    1  A    between atoms: C_1  and  O_2
REMARK    2  A    between atoms: O_2  and  C_3
REMARK    3  A    between atoms: C_9  and  C_10
REMARK    4  A    between atoms: C_11  and  C_12
REMARK    5  A    between atoms: N_14  and  C_15
REMARK    6  A    between atoms: N_28  and  C_29
REMARK                            x       y       z     vdW  Elec       q    Type
REMARK                         _______ _______ _______ _____ _____    ______ ____
ROOT
ATOM      1  C   UNL     1       3.600   4.314  19.002  0.00  0.00    +0.000 C 
ATOM      2  C   UNL     1       2.505   5.025  19.316  0.00  0.00    +0.000 C 
ATOM      3  C   UNL     1       1.508   4.074  19.865  0.00  0.00    +0.000 C 
ATOM      4  O   UNL     1       0.399   4.337  20.292  0.00  0.00    +0.000 OA
ATOM      5  N   UNL     1       2.057   2.840  19.807  0.00  0.00    +0.000 N 
ATOM      6  C   UNL     1       3.304   2.895  19.301  0.00  0.00    +0.000 C 
ATOM      7  O   UNL     1       4.045   1.937  19.129  0.00  0.00    +0.000 OA
ATOM      8  H   UNL     1       1.596   1.997  20.104  0.00  0.00    +0.000 HD
ENDROOT
BRANCH   1  15
ATOM      9  C   UNL     1       5.688   4.349  14.781  0.00  0.00    +0.000 A 
ATOM     10  C   UNL     1       6.936   4.963  14.854  0.00  0.00    +0.000 A 
ATOM     11  C   UNL     1       7.437   5.432  16.066  0.00  0.00    +0.000 A 
ATOM     12  C   UNL     1       6.641   5.285  17.209  0.00  0.00    +0.000 A 
ATOM     13  C   UNL     1       5.364   4.711  17.170  0.00  0.00    +0.000 A 
ATOM     14  C   UNL     1       4.883   4.241  15.925  0.00  0.00    +0.000 A 
ATOM     15  C   UNL     1       4.853   4.761  18.505  0.00  0.00    +0.000 A 
ATOM     16  C   UNL     1       5.817   5.337  19.307  0.00  0.00    +0.000 A 
ATOM     17  N   UNL     1       6.895   5.634  18.519  0.00  0.00    +0.000 N 
ATOM     18  C   UNL     1       8.136   6.204  18.990  0.00  0.00    +0.000 C 
BRANCH   9  20
ATOM     19  C   UNL     1       6.138   3.474  12.646  0.00  0.00    +0.000 C 
ATOM     20  O   UNL     1       5.159   3.867  13.609  0.00  0.00    +0.000 OA
ENDBRANCH   9  20
ENDBRANCH   1  15
BRANCH   2  21
ATOM     21  C   UNL     1       2.271   6.418  19.177  0.00  0.00    +0.000 A 
ATOM     22  C   UNL     1       2.618   7.168  18.072  0.00  0.00    +0.000 A 
ATOM     23  N   UNL     1       2.218   8.460  18.305  0.00  0.00    +0.000 N 
ATOM     24  C   UNL     1       2.350   9.558  17.370  0.00  0.00    +0.000 C 
ATOM     25  C   UNL     1       1.648   8.569  19.557  0.00  0.00    +0.000 A 
ATOM     26  C   UNL     1       1.118   9.679  20.236  0.00  0.00    +0.000 A 
ATOM     27  C   UNL     1       0.586   9.475  21.512  0.00  0.00    +0.000 A 
ATOM     28  C   UNL     1       0.581   8.212  22.093  0.00  0.00    +0.000 A 
ATOM     29  C   UNL     1       1.116   7.117  21.412  0.00  0.00    +0.000 A 
ATOM     30  C   UNL     1       1.661   7.290  20.123  0.00  0.00    +0.000 A 
ENDBRANCH   2  21
TORSDOF 3
ENDMDL
MODEL 3
REMARK VINA RESULT:      -7.4      6.898     10.562
REMARK  Name = 
REMARK  6 active torsions:
REMARK  status: ('A' for Active; 'I' for Inactive)
REMARK    1  A    between atoms: C_1  and  O_2
REMARK    2  A    between atoms: O_2  and  C_3
REMARK    3  A    between atoms: C_9  and  C_10
REMARK    4  A    between atoms: C_11  and  C_12
REMARK    5  A    between atoms: N_14  and  C_15
REMARK    6  A    between atoms: N_28  and  C_29
REMARK                            x       y       z     vdW  Elec       q    Type
REMARK                         _______ _______ _______ _____ _____    ______ ____
ROOT
ATOM      1  C   UNL     1      -0.452  12.770  21.155  0.00  0.00    +0.000 C 
ATOM      2  C   UNL     1       0.109  13.986  21.258  0.00  0.00    +0.000 C 
ATOM      3  C   UNL     1      -0.167  14.481  22.628  0.00  0.00    +0.000 C 
ATOM      4  O   UNL     1       0.203  15.532  23.119  0.00  0.00    +0.000 OA
ATOM      5  N   UNL     1      -0.914  13.543  23.250  0.00  0.00    +0.000 N 
ATOM      6  C   UNL     1      -1.133  12.490  22.438  0.00  0.00    +0.000 C 
ATOM      7  O   UNL     1      -1.777  11.491  22.726  0.00  0.00    +0.000 OA
ATOM      8  H   UNL     1      -1.259  13.621  24.192  0.00  0.00    +0.000 HD
ENDROOT
BRANCH   1  15
ATOM      9  C   UNL     1      -3.551  11.325  17.918  0.00  0.00    +0.000 A 
ATOM     10  C   UNL     1      -2.963  10.414  17.044  0.00  0.00    +0.000 A 
ATOM     11  C   UNL     1      -1.641  10.009  17.211  0.00  0.00    +0.000 A 
ATOM     12  C   UNL     1      -0.913  10.557  18.275  0.00  0.00    +0.000 A 
ATOM     13  C   UNL     1      -1.456  11.507  19.150  0.00  0.00    +0.000 A 
ATOM     14  C   UNL     1      -2.802  11.897  18.957  0.00  0.00    +0.000 A 
ATOM     15  C   UNL     1      -0.419  11.851  20.072  0.00  0.00    +0.000 A 
ATOM     16  C   UNL     1       0.698  11.108  19.752  0.00  0.00    +0.000 A 
ATOM     17  N   UNL     1       0.384  10.321  18.678  0.00  0.00    +0.000 N 
ATOM     18  C   UNL     1       1.271   9.357  18.068  0.00  0.00    +0.000 C 
BRANCH   9  20
ATOM     19  C   UNL     1      -5.810  10.866  18.385  0.00  0.00    +0.000 C 
ATOM     20  O   UNL     1      -4.852  11.746  17.793  0.00  0.00    +0.000 OA
ENDBRANCH   9  20
ENDBRANCH   1  15
BRANCH   2  21
ATOM     21  C   UNL     1       0.839  14.721  20.287  0.00  0.00    +0.000 A 
ATOM     22  C   UNL     1       2.173  14.524  19.990  0.00  0.00    +0.000 A 
ATOM     23  N   UNL     1       2.512  15.409  18.998  0.00  0.00    +0.000 N 
ATOM     24  C   UNL     1       3.810  15.496  18.363  0.00  0.00    +0.000 C 
ATOM     25  C   UNL     1       1.430  16.201  18.669  0.00  0.00    +0.000 A 
ATOM     26  C   UNL     1       1.301  17.246  17.739  0.00  0.00    +0.000 A 
ATOM     27  C   UNL     1       0.054  17.864  17.614  0.00  0.00    +0.000 A 
ATOM     28  C   UNL     1      -1.028  17.456  18.388  0.00  0.00    +0.000 A 
ATOM     29  C   UNL     1      -0.886  16.420  19.313  0.00  0.00    +0.000 A 
ATOM     30  C   UNL     1       0.360  15.778  19.463  0.00  0.00    +0.000 A 
ENDBRANCH   2  21
TORSDOF 3
ENDMDL
MODEL 4
REMARK VINA RESULT:      -7.3      6.780     10.357
REMARK  Name = 
REMARK  6 active torsions:
REMARK  status: ('A' for Active; 'I' for Inactive)
REMARK    1  A    between atoms: C_1  and  O_2
REMARK    2  A    between atoms: O_2  and  C_3
REMARK    3  A    between atoms: C_9  and  C_10
REMARK    4  A    between atoms: C_11  and  C_12
REMARK    5  A    between atoms: N_14  and  C_15
REMARK    6  A    between atoms: N_28  and  C_29
REMARK                            x       y       z     vdW  Elec       q    Type
REMARK                         _______ _______ _______ _____ _____    ______ ____
ROOT
ATOM      1  C   UNL     1      -0.699  12.706  21.358  0.00  0.00    +0.000 C 
ATOM      2  C   UNL     1      -0.444  14.024  21.383  0.00  0.00    +0.000 C 
ATOM      3  C   UNL     1      -0.720  14.497  22.761  0.00  0.00    +0.000 C 
ATOM      4  O   UNL     1      -0.578  15.628  23.192  0.00  0.00    +0.000 OA
ATOM      5  N   UNL     1      -1.164  13.436  23.468  0.00  0.00    +0.000 N 
ATOM      6  C   UNL     1      -1.185  12.327  22.704  0.00  0.00    +0.000 C 
ATOM      7  O   UNL     1      -1.541  11.216  23.072  0.00  0.00    +0.000 OA
ATOM      8  H   UNL     1      -1.439  13.470  24.435  0.00  0.00    +0.000 HD
ENDROOT
BRANCH   1  15
ATOM      9  C   UNL     1      -3.369  11.226  17.772  0.00  0.00    +0.000 A 
ATOM     10  C   UNL     1      -2.676  10.305  16.990  0.00  0.00    +0.000 A 
ATOM     11  C   UNL     1      -1.387   9.902  17.327  0.00  0.00    +0.000 A 
ATOM     12  C   UNL     1      -0.798  10.461  18.468  0.00  0.00    +0.000 A 
ATOM     13  C   UNL     1      -1.445  11.421  19.257  0.00  0.00    +0.000 A 
ATOM     14  C   UNL     1      -2.755  11.809  18.891  0.00  0.00    +0.000 A 
ATOM     15  C   UNL     1      -0.532  11.775  20.299  0.00  0.00    +0.000 A 
ATOM     16  C   UNL     1       0.615  11.027  20.130  0.00  0.00    +0.000 A 
ATOM     17  N   UNL     1       0.438  10.229  19.034  0.00  0.00    +0.000 N 
ATOM     18  C   UNL     1       1.392   9.257  18.551  0.00  0.00    +0.000 C 
BRANCH   9  20
ATOM     19  C   UNL     1      -5.652  11.075  18.316  0.00  0.00    +0.000 C 
ATOM     20  O   UNL     1      -4.643  11.647  17.481  0.00  0.00    +0.000 OA
ENDBRANCH   9  20
ENDBRANCH   1  15
BRANCH   2  21
ATOM     21  C   UNL     1       0.003  14.869  20.334  0.00  0.00    +0.000 A 
ATOM     22  C   UNL     1      -0.798  15.751  19.638  0.00  0.00    +0.000 A 
ATOM     23  N   UNL     1      -0.007  16.396  18.720  0.00  0.00    +0.000 N 
ATOM     24  C   UNL     1      -0.450  17.440  17.820  0.00  0.00    +0.000 C 
ATOM     25  C   UNL     1       1.288  15.922  18.785  0.00  0.00    +0.000 A 
ATOM     26  C   UNL     1       2.431  16.258  18.040  0.00  0.00    +0.000 A 
ATOM     27  C   UNL     1       3.630  15.608  18.348  0.00  0.00    +0.000 A 
ATOM     28  C   UNL     1       3.689  14.657  19.361  0.00  0.00    +0.000 A 
ATOM     29  C   UNL     1       2.545  14.327  20.091  0.00  0.00    +0.000 A 
ATOM     30  C   UNL     1       1.321  14.964  19.803  0.00  0.00    +0.000 A 
ENDBRANCH   2  21
TORSDOF 3
ENDMDL
MODEL 5
REMARK VINA RESULT:      -7.3      6.982     10.720
REMARK  Name = 
REMARK  6 active torsions:
REMARK  status: ('A' for Active; 'I' for Inactive)
REMARK    1  A    between atoms: C_1  and  O_2
REMARK    2  A    between atoms: O_2  and  C_3
REMARK    3  A    between atoms: C_9  and  C_10
REMARK    4  A    between atoms: C_11  and  C_12
REMARK    5  A    between atoms: N_14  and  C_15
REMARK    6  A    between atoms: N_28  and  C_29
REMARK                            x       y       z     vdW  Elec       q    Type
REMARK                         _______ _______ _______ _____ _____    ______ ____
ROOT
ATOM      1  C   UNL     1      -2.192  13.170  21.508  0.00  0.00    +0.000 C 
ATOM      2  C   UNL     1      -1.256  14.130  21.587  0.00  0.00    +0.000 C 
ATOM      3  C   UNL     1      -0.966  14.341  23.026  0.00  0.00    +0.000 C 
ATOM      4  O   UNL     1      -0.150  15.107  23.507  0.00  0.00    +0.000 OA
ATOM      5  N   UNL     1      -1.779  13.518  23.724  0.00  0.00    +0.000 N 
ATOM      6  C   UNL     1      -2.547  12.787  22.892  0.00  0.00    +0.000 C 
ATOM      7  O   UNL     1      -3.379  11.959  23.236  0.00  0.00    +0.000 OA
ATOM      8  H   UNL     1      -1.806  13.460  24.727  0.00  0.00    +0.000 HD
ENDROOT
BRANCH   1  15
ATOM      9  C   UNL     1      -0.617  10.270  18.148  0.00  0.00    +0.000 A 
ATOM     10  C   UNL     1      -1.640   9.943  17.261  0.00  0.00    +0.000 A 
ATOM     11  C   UNL     1      -2.914  10.486  17.401  0.00  0.00    +0.000 A 
ATOM     12  C   UNL     1      -3.145  11.359  18.472  0.00  0.00    +0.000 A 
ATOM     13  C   UNL     1      -2.155  11.680  19.410  0.00  0.00    +0.000 A 
ATOM     14  C   UNL     1      -0.869  11.115  19.240  0.00  0.00    +0.000 A 
ATOM     15  C   UNL     1      -2.762  12.560  20.359  0.00  0.00    +0.000 A 
ATOM     16  C   UNL     1      -4.072  12.760  19.975  0.00  0.00    +0.000 A 
ATOM     17  N   UNL     1      -4.286  12.044  18.829  0.00  0.00    +0.000 N 
ATOM     18  C   UNL     1      -5.522  12.028  18.079  0.00  0.00    +0.000 C 
BRANCH   9  20
ATOM     19  C   UNL     1       1.199   9.295  19.278  0.00  0.00    +0.000 C 
ATOM     20  O   UNL     1       0.655   9.763  18.043  0.00  0.00    +0.000 OA
ENDBRANCH   9  20
ENDBRANCH   1  15
BRANCH   2  21
ATOM     21  C   UNL     1      -0.621  14.850  20.542  0.00  0.00    +0.000 A 
ATOM     22  C   UNL     1      -1.200  15.884  19.834  0.00  0.00    +0.000 A 
ATOM     23  N   UNL     1      -0.276  16.333  18.924  0.00  0.00    +0.000 N 
ATOM     24  C   UNL     1      -0.467  17.444  18.016  0.00  0.00    +0.000 C 
ATOM     25  C   UNL     1       0.882  15.585  19.006  0.00  0.00    +0.000 A 
ATOM     26  C   UNL     1       2.080  15.657  18.275  0.00  0.00    +0.000 A 
ATOM     27  C   UNL     1       3.102  14.761  18.599  0.00  0.00    +0.000 A 
ATOM     28  C   UNL     1       2.938  13.826  19.616  0.00  0.00    +0.000 A 
ATOM     29  C   UNL     1       1.742  13.760  20.332  0.00  0.00    +0.000 A 
ATOM     30  C   UNL     1       0.692  14.650  20.028  0.00  0.00    +0.000 A 
ENDBRANCH   2  21
TORSDOF 3
ENDMDL
MODEL 6
REMARK VINA RESULT:      -7.3      7.841     12.139
REMARK  Name = 
REMARK  6 active torsions:
REMARK  status: ('A' for Active; 'I' for Inactive)
REMARK    1  A    between atoms: C_1  and  O_2
REMARK    2  A    between atoms: O_2  and  C_3
REMARK    3  A    between atoms: C_9  and  C_10
REMARK    4  A    between atoms: C_11  and  C_12
REMARK    5  A    between atoms: N_14  and  C_15
REMARK    6  A    between atoms: N_28  and  C_29
REMARK                            x       y       z     vdW  Elec       q    Type
REMARK                         _______ _______ _______ _____ _____    ______ ____
ROOT
ATOM      1  C   UNL     1      -2.869  14.450  21.031  0.00  0.00    +0.000 C 
ATOM      2  C   UNL     1      -1.663  14.012  20.635  0.00  0.00    +0.000 C 
ATOM      3  C   UNL     1      -0.773  15.195  20.551  0.00  0.00    +0.000 C 
ATOM      4  O   UNL     1       0.409  15.206  20.256  0.00  0.00    +0.000 OA
ATOM      5  N   UNL     1      -1.516  16.279  20.865  0.00  0.00    +0.000 N 
ATOM      6  C   UNL     1      -2.780  15.922  21.162  0.00  0.00    +0.000 C 
ATOM      7  O   UNL     1      -3.679  16.687  21.482  0.00  0.00    +0.000 OA
ATOM      8  H   UNL     1      -1.169  17.223  20.877  0.00  0.00    +0.000 HD
ENDROOT
BRANCH   1  15
ATOM      9  C   UNL     1      -5.715  11.612  18.578  0.00  0.00    +0.000 A 
ATOM     10  C   UNL     1      -6.726  11.106  19.391  0.00  0.00    +0.000 A 
ATOM     11  C   UNL     1      -6.829  11.482  20.727  0.00  0.00    +0.000 A 
ATOM     12  C   UNL     1      -5.876  12.372  21.238  0.00  0.00    +0.000 A 
ATOM     13  C   UNL     1      -4.819  12.870  20.465  0.00  0.00    +0.000 A 
ATOM     14  C   UNL     1      -4.741  12.472  19.109  0.00  0.00    +0.000 A 
ATOM     15  C   UNL     1      -4.045  13.711  21.324  0.00  0.00    +0.000 A 
ATOM     16  C   UNL     1      -4.645  13.715  22.566  0.00  0.00    +0.000 A 
ATOM     17  N   UNL     1      -5.755  12.918  22.498  0.00  0.00    +0.000 N 
ATOM     18  C   UNL     1      -6.688  12.699  23.580  0.00  0.00    +0.000 C 
BRANCH   9  20
ATOM     19  C   UNL     1      -4.241  11.365  16.763  0.00  0.00    +0.000 C 
ATOM     20  O   UNL     1      -5.579  11.273  17.254  0.00  0.00    +0.000 OA
ENDBRANCH   9  20
ENDBRANCH   1  15
BRANCH   2  21
ATOM     21  C   UNL     1      -1.245  12.689  20.333  0.00  0.00    +0.000 A 
ATOM     22  C   UNL     1      -1.009  12.210  19.061  0.00  0.00    +0.000 A 
ATOM     23  N   UNL     1      -0.611  10.901  19.178  0.00  0.00    +0.000 N 
ATOM     24  C   UNL     1      -0.217  10.045  18.079  0.00  0.00    +0.000 C 
ATOM     25  C   UNL     1      -0.618  10.513  20.502  0.00  0.00    +0.000 A 
ATOM     26  C   UNL     1      -0.311   9.281  21.104  0.00  0.00    +0.000 A 
ATOM     27  C   UNL     1      -0.395   9.191  22.496  0.00  0.00    +0.000 A 
ATOM     28  C   UNL     1      -0.772  10.288  23.263  0.00  0.00    +0.000 A 
ATOM     29  C   UNL     1      -1.080  11.506  22.654  0.00  0.00    +0.000 A 
ATOM     30  C   UNL     1      -1.006  11.628  21.252  0.00  0.00    +0.000 A 
ENDBRANCH   2  21
TORSDOF 3
ENDMDL
MODEL 7
REMARK VINA RESULT:      -7.3      5.745      9.415
REMARK  Name = 
REMARK  6 active torsions:
REMARK  status: ('A' for Active; 'I' for Inactive)
REMARK    1  A    between atoms: C_1  and  O_2
REMARK    2  A    between atoms: O_2  and  C_3
REMARK    3  A    between atoms: C_9  and  C_10
REMARK    4  A    between atoms: C_11  and  C_12
REMARK    5  A    between atoms: N_14  and  C_15
REMARK    6  A    between atoms: N_28  and  C_29
REMARK                            x       y       z     vdW  Elec       q    Type
REMARK                         _______ _______ _______ _____ _____    ______ ____
ROOT
ATOM      1  C   UNL     1       1.087  12.781  18.853  0.00  0.00    +0.000 C 
ATOM      2  C   UNL     1      -0.059  13.479  18.891  0.00  0.00    +0.000 C 
ATOM      3  C   UNL     1       0.279  14.893  18.600  0.00  0.00    +0.000 C 
ATOM      4  O   UNL     1      -0.493  15.831  18.513  0.00  0.00    +0.000 OA
ATOM      5  N   UNL     1       1.620  14.960  18.444  0.00  0.00    +0.000 N 
ATOM      6  C   UNL     1       2.179  13.743  18.583  0.00  0.00    +0.000 C 
ATOM      7  O   UNL     1       3.374  13.494  18.496  0.00  0.00    +0.000 OA
ATOM      8  H   UNL     1       2.129  15.806  18.249  0.00  0.00    +0.000 HD
ENDROOT
BRANCH   1  15
ATOM      9  C   UNL     1       0.174   9.609  22.212  0.00  0.00    +0.000 A 
ATOM     10  C   UNL     1       0.564   8.336  21.806  0.00  0.00    +0.000 A 
ATOM     11  C   UNL     1       1.176   8.131  20.573  0.00  0.00    +0.000 A 
ATOM     12  C   UNL     1       1.374   9.241  19.742  0.00  0.00    +0.000 A 
ATOM     13  C   UNL     1       0.959  10.531  20.096  0.00  0.00    +0.000 A 
ATOM     14  C   UNL     1       0.342  10.709  21.356  0.00  0.00    +0.000 A 
ATOM     15  C   UNL     1       1.297  11.384  18.999  0.00  0.00    +0.000 A 
ATOM     16  C   UNL     1       1.911  10.612  18.035  0.00  0.00    +0.000 A 
ATOM     17  N   UNL     1       1.965   9.326  18.499  0.00  0.00    +0.000 N 
ATOM     18  C   UNL     1       2.580   8.217  17.805  0.00  0.00    +0.000 C 
BRANCH   9  20
ATOM     19  C   UNL     1      -1.399  10.905  23.386  0.00  0.00    +0.000 C 
ATOM     20  O   UNL     1      -0.427   9.858  23.421  0.00  0.00    +0.000 OA
ENDBRANCH   9  20
ENDBRANCH   1  15
BRANCH   2  21
ATOM     21  C   UNL     1      -1.377  13.023  19.154  0.00  0.00    +0.000 A 
ATOM     22  C   UNL     1      -2.117  13.357  20.270  0.00  0.00    +0.000 A 
ATOM     23  N   UNL     1      -3.337  12.738  20.160  0.00  0.00    +0.000 N 
ATOM     24  C   UNL     1      -4.430  12.869  21.101  0.00  0.00    +0.000 C 
ATOM     25  C   UNL     1      -3.389  11.979  19.008  0.00  0.00    +0.000 A 
ATOM     26  C   UNL     1      -4.407  11.164  18.486  0.00  0.00    +0.000 A 
ATOM     27  C   UNL     1      -4.173  10.519  17.268  0.00  0.00    +0.000 A 
ATOM     28  C   UNL     1      -2.968  10.681  16.593  0.00  0.00    +0.000 A 
ATOM     29  C   UNL     1      -1.961  11.489  17.124  0.00  0.00    +0.000 A 
ATOM     30  C   UNL     1      -2.166  12.151  18.351  0.00  0.00    +0.000 A 
ENDBRANCH   2  21
TORSDOF 3
ENDMDL
MODEL 8
REMARK VINA RESULT:      -7.3      7.287     11.126
REMARK  Name = 
REMARK  6 active torsions:
REMARK  status: ('A' for Active; 'I' for Inactive)
REMARK    1  A    between atoms: C_1  and  O_2
REMARK    2  A    between atoms: O_2  and  C_3
REMARK    3  A    between atoms: C_9  and  C_10
REMARK    4  A    between atoms: C_11  and  C_12
REMARK    5  A    between atoms: N_14  and  C_15
REMARK    6  A    between atoms: N_28  and  C_29
REMARK                            x       y       z     vdW  Elec       q    Type
REMARK                         _______ _______ _______ _____ _____    ______ ____
ROOT
ATOM      1  C   UNL     1      -2.419  13.181  21.501  0.00  0.00    +0.000 C 
ATOM      2  C   UNL     1      -1.400  14.047  21.621  0.00  0.00    +0.000 C 
ATOM      3  C   UNL     1      -1.158  14.241  23.071  0.00  0.00    +0.000 C 
ATOM      4  O   UNL     1      -0.296  14.928  23.587  0.00  0.00    +0.000 OA
ATOM      5  N   UNL     1      -2.080  13.507  23.732  0.00  0.00    +0.000 N 
ATOM      6  C   UNL     1      -2.874  12.846  22.868  0.00  0.00    +0.000 C 
ATOM      7  O   UNL     1      -3.798  12.105  23.175  0.00  0.00    +0.000 OA
ATOM      8  H   UNL     1      -2.159  13.460  24.734  0.00  0.00    +0.000 HD
ENDROOT
BRANCH   1  15
ATOM      9  C   UNL     1      -0.898  10.296  18.104  0.00  0.00    +0.000 A 
ATOM     10  C   UNL     1      -1.916  10.029  17.192  0.00  0.00    +0.000 A 
ATOM     11  C   UNL     1      -3.170  10.619  17.322  0.00  0.00    +0.000 A 
ATOM     12  C   UNL     1      -3.386  11.476  18.408  0.00  0.00    +0.000 A 
ATOM     13  C   UNL     1      -2.402  11.737  19.370  0.00  0.00    +0.000 A 
ATOM     14  C   UNL     1      -1.136  11.126  19.210  0.00  0.00    +0.000 A 
ATOM     15  C   UNL     1      -2.992  12.620  20.329  0.00  0.00    +0.000 A 
ATOM     16  C   UNL     1      -4.285  12.880  19.926  0.00  0.00    +0.000 A 
ATOM     17  N   UNL     1      -4.507  12.198  18.761  0.00  0.00    +0.000 N 
ATOM     18  C   UNL     1      -5.728  12.248  17.989  0.00  0.00    +0.000 C 
BRANCH   9  20
ATOM     19  C   UNL     1       1.067   9.697  19.248  0.00  0.00    +0.000 C 
ATOM     20  O   UNL     1       0.355   9.742  18.010  0.00  0.00    +0.000 OA
ENDBRANCH   9  20
ENDBRANCH   1  15
BRANCH   2  21
ATOM     21  C   UNL     1      -0.650  14.694  20.604  0.00  0.00    +0.000 A 
ATOM     22  C   UNL     1       0.588  14.280  20.155  0.00  0.00    +0.000 A 
ATOM     23  N   UNL     1       0.982  15.145  19.165  0.00  0.00    +0.000 N 
ATOM     24  C   UNL     1       2.203  15.036  18.395  0.00  0.00    +0.000 C 
ATOM     25  C   UNL     1       0.035  16.134  18.987  0.00  0.00    +0.000 A 
ATOM     26  C   UNL     1       0.006  17.236  18.115  0.00  0.00    +0.000 A 
ATOM     27  C   UNL     1      -1.114  18.072  18.151  0.00  0.00    +0.000 A 
ATOM     28  C   UNL     1      -2.167  17.820  19.023  0.00  0.00    +0.000 A 
ATOM     29  C   UNL     1      -2.125  16.725  19.889  0.00  0.00    +0.000 A 
ATOM     30  C   UNL     1      -1.009  15.864  19.877  0.00  0.00    +0.000 A 
ENDBRANCH   2  21
TORSDOF 3
ENDMDL
MODEL 9
REMARK VINA RESULT:      -7.2      6.163     10.466
REMARK  Name = 
REMARK  6 active torsions:
REMARK  status: ('A' for Active; 'I' for Inactive)
REMARK    1  A    between atoms: C_1  and  O_2
REMARK    2  A    between atoms: O_2  and  C_3
REMARK    3  A    between atoms: C_9  and  C_10
REMARK    4  A    between atoms: C_11  and  C_12
REMARK    5  A    between atoms: N_14  and  C_15
REMARK    6  A    between atoms: N_28  and  C_29
REMARK                            x       y       z     vdW  Elec       q    Type
REMARK                         _______ _______ _______ _____ _____    ______ ____
ROOT
ATOM      1  C   UNL     1      -0.426  13.683  19.297  0.00  0.00    +0.000 C 
ATOM      2  C   UNL     1       0.676  12.917  19.310  0.00  0.00    +0.000 C 
ATOM      3  C   UNL     1       1.824  13.796  18.978  0.00  0.00    +0.000 C 
ATOM      4  O   UNL     1       2.999  13.480  18.921  0.00  0.00    +0.000 OA
ATOM      5  N   UNL     1       1.329  15.031  18.746  0.00  0.00    +0.000 N 
ATOM      6  C   UNL     1      -0.007  15.050  18.912  0.00  0.00    +0.000 C 
ATOM      7  O   UNL     1      -0.729  16.027  18.768  0.00  0.00    +0.000 OA
ATOM      8  H   UNL     1       1.885  15.828  18.486  0.00  0.00    +0.000 HD
ENDROOT
BRANCH   1  15
ATOM      9  C   UNL     1      -3.648  10.803  17.426  0.00  0.00    +0.000 A 
ATOM     10  C   UNL     1      -4.819  10.818  18.180  0.00  0.00    +0.000 A 
ATOM     11  C   UNL     1      -4.945  11.641  19.296  0.00  0.00    +0.000 A 
ATOM     12  C   UNL     1      -3.852  12.443  19.650  0.00  0.00    +0.000 A 
ATOM     13  C   UNL     1      -2.643  12.426  18.943  0.00  0.00    +0.000 A 
ATOM     14  C   UNL     1      -2.546  11.582  17.812  0.00  0.00    +0.000 A 
ATOM     15  C   UNL     1      -1.767  13.338  19.610  0.00  0.00    +0.000 A 
ATOM     16  C   UNL     1      -2.455  13.887  20.673  0.00  0.00    +0.000 A 
ATOM     17  N   UNL     1      -3.714  13.352  20.678  0.00  0.00    +0.000 N 
ATOM     18  C   UNL     1      -4.763  13.707  21.607  0.00  0.00    +0.000 C 
BRANCH   9  20
ATOM     19  C   UNL     1      -2.799  10.655  15.239  0.00  0.00    +0.000 C 
ATOM     20  O   UNL     1      -3.484  10.012  16.316  0.00  0.00    +0.000 OA
ENDBRANCH   9  20
ENDBRANCH   1  15
BRANCH   2  21
ATOM     21  C   UNL     1       0.799  11.529  19.579  0.00  0.00    +0.000 A 
ATOM     22  C   UNL     1       1.364  10.608  18.720  0.00  0.00    +0.000 A 
ATOM     23  N   UNL     1       1.314   9.382  19.334  0.00  0.00    +0.000 N 
ATOM     24  C   UNL     1       1.848   8.151  18.790  0.00  0.00    +0.000 C 
ATOM     25  C   UNL     1       0.695   9.485  20.564  0.00  0.00    +0.000 A 
ATOM     26  C   UNL     1       0.400   8.511  21.532  0.00  0.00    +0.000 A 
ATOM     27  C   UNL     1      -0.232   8.925  22.709  0.00  0.00    +0.000 A 
ATOM     28  C   UNL     1      -0.558  10.261  22.914  0.00  0.00    +0.000 A 
ATOM     29  C   UNL     1      -0.265  11.219  21.942  0.00  0.00    +0.000 A 
ATOM     30  C   UNL     1       0.370  10.833  20.745  0.00  0.00    +0.000 A 
ENDBRANCH   2  21
TORSDOF 3
ENDMDL
