MODEL 1
REMARK VINA RESULT:      -7.6      0.000      0.000
REMARK  Name = 
REMARK  5 active torsions:
REMARK  status: ('A' for Active; 'I' for Inactive)
REMARK    1  A    between atoms: C_1  and  C_2
REMARK    2  A    between atoms: C_6  and  C_7
REMARK    3  A    between atoms: C_9  and  C_10
REMARK    4  A    between atoms: C_13  and  C_14
REMARK    5  A    between atoms: N_19  and  C_20
REMARK                            x       y       z     vdW  Elec       q    Type
REMARK                         _______ _______ _______ _____ _____    ______ ____
ROOT
ATOM      1  C   UNL     1       3.851   6.672  17.796  0.00  0.00    +0.000 A 
ATOM      2  N   UNL     1       3.383   7.900  18.002  0.00  0.00    +0.000 NA
ATOM      3  C   UNL     1       2.176   7.765  18.640  0.00  0.00    +0.000 A 
ATOM      4  C   UNL     1       1.913   6.435  18.859  0.00  0.00    +0.000 A 
ATOM      5  N   UNL     1       3.002   5.726  18.386  0.00  0.00    +0.000 N 
ENDROOT
BRANCH   1  11
ATOM      6  C   UNL     1       5.822   4.211  14.151  0.00  0.00    +0.000 C 
ATOM      7  C   UNL     1       6.029   5.194  15.264  0.00  0.00    +0.000 A 
ATOM      8  C   UNL     1       7.304   5.595  15.641  0.00  0.00    +0.000 A 
ATOM      9  C   UNL     1       7.440   6.451  16.730  0.00  0.00    +0.000 A 
ATOM     10  C   UNL     1       6.309   6.849  17.436  0.00  0.00    +0.000 A 
ATOM     11  C   UNL     1       5.069   6.382  17.022  0.00  0.00    +0.000 A 
ATOM     12  N   UNL     1       4.919   5.604  15.921  0.00  0.00    +0.000 NA
ENDBRANCH   1  11
BRANCH   5  13
ATOM     13  C   UNL     1       3.159   4.312  18.544  0.00  0.00    +0.000 A 
ATOM     14  C   UNL     1       2.506   3.437  17.661  0.00  0.00    +0.000 A 
ATOM     15  C   UNL     1       2.730   2.060  17.745  0.00  0.00    +0.000 A 
ATOM     16  C   UNL     1       3.594   1.560  18.712  0.00  0.00    +0.000 A 
ATOM     17  F   UNL     1       3.842   0.245  18.761  0.00  0.00    +0.000 F 
ATOM     18  C   UNL     1       4.204   2.405  19.626  0.00  0.00    +0.000 A 
ATOM     19  C   UNL     1       3.964   3.780  19.560  0.00  0.00    +0.000 A 
ENDBRANCH   5  13
BRANCH   3  20
ATOM     20  C   UNL     1       1.343   8.890  19.055  0.00  0.00    +0.000 A 
ATOM     21  C   UNL     1       1.014   9.054  20.409  0.00  0.00    +0.000 A 
ATOM     22  C   UNL     1       0.169  10.093  20.826  0.00  0.00    +0.000 A 
ATOM     23  C   UNL     1      -0.357  10.990  19.890  0.00  0.00    +0.000 A 
ATOM     24  C   UNL     1      -0.013  10.856  18.544  0.00  0.00    +0.000 A 
ATOM     25  C   UNL     1       0.832   9.815  18.132  0.00  0.00    +0.000 A 
BRANCH  23  26
ATOM     26  C   UNL     1      -1.254  12.034  20.303  0.00  0.00    +0.000 C 
ATOM     27  N   UNL     1      -1.980  12.867  20.649  0.00  0.00    +0.000 NA
ENDBRANCH  23  26
ENDBRANCH   3  20
TORSDOF 4
ENDMDL
MODEL 2
REMARK VINA RESULT:      -7.6      1.515      1.936
REMARK  Name = 
REMARK  5 active torsions:
REMARK  status: ('A' for Active; 'I' for Inactive)
REMARK    1  A    between atoms: C_1  and  C_2
REMARK    2  A    between atoms: C_6  and  C_7
REMARK    3  A    between atoms: C_9  and  C_10
REMARK    4  A    between atoms: C_13  and  C_14
REMARK    5  A    between atoms: N_19  and  C_20
REMARK                            x       y       z     vdW  Elec       q    Type
REMARK                         _______ _______ _______ _____ _____    ______ ____
ROOT
ATOM      1  C   UNL     1       3.740   6.910  17.712  0.00  0.00    +0.000 A 
ATOM      2  N   UNL     1       3.582   8.231  17.692  0.00  0.00    +0.000 NA
ATOM      3  C   UNL     1       2.285   8.484  18.060  0.00  0.00    +0.000 A 
ATOM      4  C   UNL     1       1.645   7.302  18.343  0.00  0.00    +0.000 A 
ATOM      5  N   UNL     1       2.577   6.292  18.189  0.00  0.00    +0.000 N 
ENDROOT
BRANCH   1  11
ATOM      6  C   UNL     1       5.880   4.395  14.201  0.00  0.00    +0.000 C 
ATOM      7  C   UNL     1       6.001   5.010  15.563  0.00  0.00    +0.000 A 
ATOM      8  C   UNL     1       7.095   4.744  16.377  0.00  0.00    +0.000 A 
ATOM      9  C   UNL     1       7.118   5.280  17.662  0.00  0.00    +0.000 A 
ATOM     10  C   UNL     1       6.035   6.030  18.112  0.00  0.00    +0.000 A 
ATOM     11  C   UNL     1       4.962   6.227  17.255  0.00  0.00    +0.000 A 
ATOM     12  N   UNL     1       4.959   5.768  15.979  0.00  0.00    +0.000 NA
ENDBRANCH   1  11
BRANCH   5  13
ATOM     13  C   UNL     1       2.323   4.921  18.513  0.00  0.00    +0.000 A 
ATOM     14  C   UNL     1       1.845   4.585  19.790  0.00  0.00    +0.000 A 
ATOM     15  C   UNL     1       1.500   3.263  20.085  0.00  0.00    +0.000 A 
ATOM     16  C   UNL     1       1.641   2.281  19.112  0.00  0.00    +0.000 A 
ATOM     17  F   UNL     1       1.267   1.024  19.382  0.00  0.00    +0.000 F 
ATOM     18  C   UNL     1       2.163   2.586  17.864  0.00  0.00    +0.000 A 
ATOM     19  C   UNL     1       2.531   3.901  17.574  0.00  0.00    +0.000 A 
ENDBRANCH   5  13
BRANCH   3  20
ATOM     20  C   UNL     1       1.716   9.823  18.174  0.00  0.00    +0.000 A 
ATOM     21  C   UNL     1       2.532  10.948  17.987  0.00  0.00    +0.000 A 
ATOM     22  C   UNL     1       2.022  12.246  18.147  0.00  0.00    +0.000 A 
ATOM     23  C   UNL     1       0.680  12.435  18.493  0.00  0.00    +0.000 A 
ATOM     24  C   UNL     1      -0.150  11.324  18.652  0.00  0.00    +0.000 A 
ATOM     25  C   UNL     1       0.365  10.029  18.492  0.00  0.00    +0.000 A 
BRANCH  23  26
ATOM     26  C   UNL     1       0.158  13.758  18.697  0.00  0.00    +0.000 C 
ATOM     27  N   UNL     1      -0.269  14.820  18.874  0.00  0.00    +0.000 NA
ENDBRANCH  23  26
ENDBRANCH   3  20
TORSDOF 4
ENDMDL
MODEL 3
REMARK VINA RESULT:      -7.5      1.730      2.438
REMARK  Name = 
REMARK  5 active torsions:
REMARK  status: ('A' for Active; 'I' for Inactive)
REMARK    1  A    between atoms: C_1  and  C_2
REMARK    2  A    between atoms: C_6  and  C_7
REMARK    3  A    between atoms: C_9  and  C_10
REMARK    4  A    between atoms: C_13  and  C_14
REMARK    5  A    between atoms: N_19  and  C_20
REMARK                            x       y       z     vdW  Elec       q    Type
REMARK                         _______ _______ _______ _____ _____    ______ ____
ROOT
ATOM      1  C   UNL     1       3.566   7.176  17.768  0.00  0.00    +0.000 A 
ATOM      2  N   UNL     1       3.408   8.497  17.735  0.00  0.00    +0.000 NA
ATOM      3  C   UNL     1       2.120   8.754  18.131  0.00  0.00    +0.000 A 
ATOM      4  C   UNL     1       1.486   7.576  18.443  0.00  0.00    +0.000 A 
ATOM      5  N   UNL     1       2.415   6.564  18.280  0.00  0.00    +0.000 N 
ENDROOT
BRANCH   1  11
ATOM      6  C   UNL     1       7.960   5.522  18.859  0.00  0.00    +0.000 C 
ATOM      7  C   UNL     1       6.901   5.687  17.810  0.00  0.00    +0.000 A 
ATOM      8  C   UNL     1       7.163   5.411  16.474  0.00  0.00    +0.000 A 
ATOM      9  C   UNL     1       6.167   5.656  15.533  0.00  0.00    +0.000 A 
ATOM     10  C   UNL     1       4.956   6.206  15.944  0.00  0.00    +0.000 A 
ATOM     11  C   UNL     1       4.777   6.487  17.291  0.00  0.00    +0.000 A 
ATOM     12  N   UNL     1       5.714   6.189  18.224  0.00  0.00    +0.000 NA
ENDBRANCH   1  11
BRANCH   5  13
ATOM     13  C   UNL     1       2.169   5.197  18.626  0.00  0.00    +0.000 A 
ATOM     14  C   UNL     1       1.852   4.862  19.953  0.00  0.00    +0.000 A 
ATOM     15  C   UNL     1       1.514   3.546  20.283  0.00  0.00    +0.000 A 
ATOM     16  C   UNL     1       1.499   2.571  19.294  0.00  0.00    +0.000 A 
ATOM     17  F   UNL     1       1.130   1.321  19.604  0.00  0.00    +0.000 F 
ATOM     18  C   UNL     1       1.862   2.873  17.991  0.00  0.00    +0.000 A 
ATOM     19  C   UNL     1       2.224   4.181  17.662  0.00  0.00    +0.000 A 
ENDBRANCH   5  13
BRANCH   3  20
ATOM     20  C   UNL     1       1.553  10.094  18.242  0.00  0.00    +0.000 A 
ATOM     21  C   UNL     1       2.382  11.218  18.106  0.00  0.00    +0.000 A 
ATOM     22  C   UNL     1       1.872  12.516  18.264  0.00  0.00    +0.000 A 
ATOM     23  C   UNL     1       0.518  12.707  18.558  0.00  0.00    +0.000 A 
ATOM     24  C   UNL     1      -0.323  11.599  18.667  0.00  0.00    +0.000 A 
ATOM     25  C   UNL     1       0.191  10.304  18.508  0.00  0.00    +0.000 A 
BRANCH  23  26
ATOM     26  C   UNL     1      -0.004  14.031  18.761  0.00  0.00    +0.000 C 
ATOM     27  N   UNL     1      -0.411  15.103  18.920  0.00  0.00    +0.000 NA
ENDBRANCH  23  26
ENDBRANCH   3  20
TORSDOF 4
ENDMDL
MODEL 4
REMARK VINA RESULT:      -7.4      2.016      4.344
REMARK  Name = 
REMARK  5 active torsions:
REMARK  status: ('A' for Active; 'I' for Inactive)
REMARK    1  A    between atoms: C_1  and  C_2
REMARK    2  A    between atoms: C_6  and  C_7
REMARK    3  A    between atoms: C_9  and  C_10
REMARK    4  A    between atoms: C_13  and  C_14
REMARK    5  A    between atoms: N_19  and  C_20
REMARK                            x       y       z     vdW  Elec       q    Type
REMARK                         _______ _______ _______ _____ _____    ______ ____
ROOT
ATOM      1  C   UNL     1       2.388   6.376  18.307  0.00  0.00    +0.000 A 
ATOM      2  N   UNL     1       1.520   7.348  18.578  0.00  0.00    +0.000 NA
ATOM      3  C   UNL     1       2.145   8.534  18.288  0.00  0.00    +0.000 A 
ATOM      4  C   UNL     1       3.406   8.287  17.802  0.00  0.00    +0.000 A 
ATOM      5  N   UNL     1       3.554   6.913  17.745  0.00  0.00    +0.000 N 
ENDROOT
BRANCH   1  11
ATOM      6  C   UNL     1       1.776   3.015  21.706  0.00  0.00    +0.000 C 
ATOM      7  C   UNL     1       1.847   3.325  20.241  0.00  0.00    +0.000 A 
ATOM      8  C   UNL     1       1.900   2.312  19.293  0.00  0.00    +0.000 A 
ATOM      9  C   UNL     1       2.042   2.658  17.952  0.00  0.00    +0.000 A 
ATOM     10  C   UNL     1       2.169   3.999  17.599  0.00  0.00    +0.000 A 
ATOM     11  C   UNL     1       2.141   4.956  18.604  0.00  0.00    +0.000 A 
ATOM     12  N   UNL     1       1.934   4.634  19.905  0.00  0.00    +0.000 NA
ENDBRANCH   1  11
BRANCH   5  13
ATOM     13  C   UNL     1       4.692   6.260  17.175  0.00  0.00    +0.000 A 
ATOM     14  C   UNL     1       5.589   5.571  18.008  0.00  0.00    +0.000 A 
ATOM     15  C   UNL     1       6.648   4.848  17.453  0.00  0.00    +0.000 A 
ATOM     16  C   UNL     1       6.816   4.820  16.074  0.00  0.00    +0.000 A 
ATOM     17  F   UNL     1       7.804   4.089  15.543  0.00  0.00    +0.000 F 
ATOM     18  C   UNL     1       5.973   5.539  15.241  0.00  0.00    +0.000 A 
ATOM     19  C   UNL     1       4.927   6.282  15.793  0.00  0.00    +0.000 A 
ENDBRANCH   5  13
BRANCH   3  20
ATOM     20  C   UNL     1       1.520   9.844  18.439  0.00  0.00    +0.000 A 
ATOM     21  C   UNL     1       2.267  11.007  18.204  0.00  0.00    +0.000 A 
ATOM     22  C   UNL     1       1.704  12.278  18.397  0.00  0.00    +0.000 A 
ATOM     23  C   UNL     1       0.379  12.402  18.826  0.00  0.00    +0.000 A 
ATOM     24  C   UNL     1      -0.385  11.253  19.035  0.00  0.00    +0.000 A 
ATOM     25  C   UNL     1       0.182   9.985  18.841  0.00  0.00    +0.000 A 
BRANCH  23  26
ATOM     26  C   UNL     1      -0.193  13.699  19.063  0.00  0.00    +0.000 C 
ATOM     27  N   UNL     1      -0.645  14.751  19.244  0.00  0.00    +0.000 NA
ENDBRANCH  23  26
ENDBRANCH   3  20
TORSDOF 4
ENDMDL
MODEL 5
REMARK VINA RESULT:      -7.3      1.671      4.105
REMARK  Name = 
REMARK  5 active torsions:
REMARK  status: ('A' for Active; 'I' for Inactive)
REMARK    1  A    between atoms: C_1  and  C_2
REMARK    2  A    between atoms: C_6  and  C_7
REMARK    3  A    between atoms: C_9  and  C_10
REMARK    4  A    between atoms: C_13  and  C_14
REMARK    5  A    between atoms: N_19  and  C_20
REMARK                            x       y       z     vdW  Elec       q    Type
REMARK                         _______ _______ _______ _____ _____    ______ ____
ROOT
ATOM      1  C   UNL     1       2.908   5.609  18.377  0.00  0.00    +0.000 A 
ATOM      2  N   UNL     1       1.950   6.347  18.932  0.00  0.00    +0.000 NA
ATOM      3  C   UNL     1       2.283   7.660  18.715  0.00  0.00    +0.000 A 
ATOM      4  C   UNL     1       3.447   7.731  17.989  0.00  0.00    +0.000 A 
ATOM      5  N   UNL     1       3.825   6.430  17.707  0.00  0.00    +0.000 N 
ENDROOT
BRANCH   1  11
ATOM      6  C   UNL     1       4.870   1.854  20.675  0.00  0.00    +0.000 C 
ATOM      7  C   UNL     1       3.930   2.325  19.606  0.00  0.00    +0.000 A 
ATOM      8  C   UNL     1       3.380   1.437  18.691  0.00  0.00    +0.000 A 
ATOM      9  C   UNL     1       2.575   1.940  17.673  0.00  0.00    +0.000 A 
ATOM     10  C   UNL     1       2.375   3.314  17.571  0.00  0.00    +0.000 A 
ATOM     11  C   UNL     1       2.985   4.144  18.501  0.00  0.00    +0.000 A 
ATOM     12  N   UNL     1       3.714   3.660  19.537  0.00  0.00    +0.000 NA
ENDBRANCH   1  11
BRANCH   5  13
ATOM     13  C   UNL     1       4.927   6.090  16.861  0.00  0.00    +0.000 A 
ATOM     14  C   UNL     1       6.241   6.240  17.335  0.00  0.00    +0.000 A 
ATOM     15  C   UNL     1       7.321   5.819  16.555  0.00  0.00    +0.000 A 
ATOM     16  C   UNL     1       7.091   5.259  15.304  0.00  0.00    +0.000 A 
ATOM     17  F   UNL     1       8.124   4.814  14.578  0.00  0.00    +0.000 F 
ATOM     18  C   UNL     1       5.805   5.154  14.798  0.00  0.00    +0.000 A 
ATOM     19  C   UNL     1       4.724   5.595  15.565  0.00  0.00    +0.000 A 
ENDBRANCH   5  13
BRANCH   3  20
ATOM     20  C   UNL     1       1.474   8.790  19.161  0.00  0.00    +0.000 A 
ATOM     21  C   UNL     1       1.137   8.918  20.516  0.00  0.00    +0.000 A 
ATOM     22  C   UNL     1       0.313   9.964  20.961  0.00  0.00    +0.000 A 
ATOM     23  C   UNL     1      -0.183  10.903  20.051  0.00  0.00    +0.000 A 
ATOM     24  C   UNL     1       0.169  10.804  18.704  0.00  0.00    +0.000 A 
ATOM     25  C   UNL     1       0.992   9.757  18.264  0.00  0.00    +0.000 A 
BRANCH  23  26
ATOM     26  C   UNL     1      -1.059  11.953  20.491  0.00  0.00    +0.000 C 
ATOM     27  N   UNL     1      -1.758  12.810  20.835  0.00  0.00    +0.000 NA
ENDBRANCH  23  26
ENDBRANCH   3  20
TORSDOF 4
ENDMDL
MODEL 6
REMARK VINA RESULT:      -7.3      2.148      4.234
REMARK  Name = 
REMARK  5 active torsions:
REMARK  status: ('A' for Active; 'I' for Inactive)
REMARK    1  A    between atoms: C_1  and  C_2
REMARK    2  A    between atoms: C_6  and  C_7
REMARK    3  A    between atoms: C_9  and  C_10
REMARK    4  A    between atoms: C_13  and  C_14
REMARK    5  A    between atoms: N_19  and  C_20
REMARK                            x       y       z     vdW  Elec       q    Type
REMARK                         _______ _______ _______ _____ _____    ______ ____
ROOT
ATOM      1  C   UNL     1       2.288   6.586  18.910  0.00  0.00    +0.000 A 
ATOM      2  N   UNL     1       1.559   7.660  19.204  0.00  0.00    +0.000 NA
ATOM      3  C   UNL     1       2.063   8.699  18.465  0.00  0.00    +0.000 A 
ATOM      4  C   UNL     1       3.098   8.252  17.680  0.00  0.00    +0.000 A 
ATOM      5  N   UNL     1       3.212   6.891  17.902  0.00  0.00    +0.000 N 
ENDROOT
BRANCH   1  11
ATOM      6  C   UNL     1       0.547   2.096  18.711  0.00  0.00    +0.000 C 
ATOM      7  C   UNL     1       1.303   3.120  19.504  0.00  0.00    +0.000 A 
ATOM      8  C   UNL     1       1.621   2.903  20.838  0.00  0.00    +0.000 A 
ATOM      9  C   UNL     1       2.256   3.919  21.547  0.00  0.00    +0.000 A 
ATOM     10  C   UNL     1       2.519   5.134  20.919  0.00  0.00    +0.000 A 
ATOM     11  C   UNL     1       2.143   5.290  19.592  0.00  0.00    +0.000 A 
ATOM     12  N   UNL     1       1.587   4.284  18.873  0.00  0.00    +0.000 NA
ENDBRANCH   1  11
BRANCH   5  13
ATOM     13  C   UNL     1       4.102   6.040  17.173  0.00  0.00    +0.000 A 
ATOM     14  C   UNL     1       4.123   4.662  17.443  0.00  0.00    +0.000 A 
ATOM     15  C   UNL     1       4.916   3.808  16.670  0.00  0.00    +0.000 A 
ATOM     16  C   UNL     1       5.689   4.329  15.640  0.00  0.00    +0.000 A 
ATOM     17  F   UNL     1       6.412   3.504  14.873  0.00  0.00    +0.000 F 
ATOM     18  C   UNL     1       5.722   5.694  15.396  0.00  0.00    +0.000 A 
ATOM     19  C   UNL     1       4.950   6.553  16.181  0.00  0.00    +0.000 A 
ENDBRANCH   5  13
BRANCH   3  20
ATOM     20  C   UNL     1       1.526  10.056  18.494  0.00  0.00    +0.000 A 
ATOM     21  C   UNL     1       2.353  11.143  18.174  0.00  0.00    +0.000 A 
ATOM     22  C   UNL     1       1.877  12.461  18.250  0.00  0.00    +0.000 A 
ATOM     23  C   UNL     1       0.558  12.709  18.644  0.00  0.00    +0.000 A 
ATOM     24  C   UNL     1      -0.285  11.635  18.935  0.00  0.00    +0.000 A 
ATOM     25  C   UNL     1       0.197  10.320  18.859  0.00  0.00    +0.000 A 
BRANCH  23  26
ATOM     26  C   UNL     1       0.073  14.057  18.761  0.00  0.00    +0.000 C 
ATOM     27  N   UNL     1      -0.309  15.147  18.844  0.00  0.00    +0.000 NA
ENDBRANCH  23  26
ENDBRANCH   3  20
TORSDOF 4
ENDMDL
MODEL 7
REMARK VINA RESULT:      -7.3      1.724      2.223
REMARK  Name = 
REMARK  5 active torsions:
REMARK  status: ('A' for Active; 'I' for Inactive)
REMARK    1  A    between atoms: C_1  and  C_2
REMARK    2  A    between atoms: C_6  and  C_7
REMARK    3  A    between atoms: C_9  and  C_10
REMARK    4  A    between atoms: C_13  and  C_14
REMARK    5  A    between atoms: N_19  and  C_20
REMARK                            x       y       z     vdW  Elec       q    Type
REMARK                         _______ _______ _______ _____ _____    ______ ____
ROOT
ATOM      1  C   UNL     1       3.525   7.207  17.766  0.00  0.00    +0.000 A 
ATOM      2  N   UNL     1       3.412   8.533  17.745  0.00  0.00    +0.000 NA
ATOM      3  C   UNL     1       2.161   8.833  18.222  0.00  0.00    +0.000 A 
ATOM      4  C   UNL     1       1.507   7.676  18.571  0.00  0.00    +0.000 A 
ATOM      5  N   UNL     1       2.388   6.633  18.348  0.00  0.00    +0.000 N 
ENDROOT
BRANCH   1  11
ATOM      6  C   UNL     1       7.852   5.261  18.616  0.00  0.00    +0.000 C 
ATOM      7  C   UNL     1       6.771   5.538  17.615  0.00  0.00    +0.000 A 
ATOM      8  C   UNL     1       6.973   5.316  16.259  0.00  0.00    +0.000 A 
ATOM      9  C   UNL     1       5.962   5.663  15.367  0.00  0.00    +0.000 A 
ATOM     10  C   UNL     1       4.797   6.257  15.847  0.00  0.00    +0.000 A 
ATOM     11  C   UNL     1       4.679   6.478  17.212  0.00  0.00    +0.000 A 
ATOM     12  N   UNL     1       5.627   6.081  18.096  0.00  0.00    +0.000 NA
ENDBRANCH   1  11
BRANCH   5  13
ATOM     13  C   UNL     1       2.116   5.275  18.707  0.00  0.00    +0.000 A 
ATOM     14  C   UNL     1       1.822   4.336  17.705  0.00  0.00    +0.000 A 
ATOM     15  C   UNL     1       1.652   2.988  18.034  0.00  0.00    +0.000 A 
ATOM     16  C   UNL     1       1.767   2.583  19.358  0.00  0.00    +0.000 A 
ATOM     17  F   UNL     1       1.649   1.284  19.664  0.00  0.00    +0.000 F 
ATOM     18  C   UNL     1       2.002   3.504  20.366  0.00  0.00    +0.000 A 
ATOM     19  C   UNL     1       2.149   4.855  20.044  0.00  0.00    +0.000 A 
ENDBRANCH   5  13
BRANCH   3  20
ATOM     20  C   UNL     1       1.650  10.192  18.370  0.00  0.00    +0.000 A 
ATOM     21  C   UNL     1       0.315  10.400  18.747  0.00  0.00    +0.000 A 
ATOM     22  C   UNL     1      -0.216  11.696  18.841  0.00  0.00    +0.000 A 
ATOM     23  C   UNL     1       0.588  12.806  18.562  0.00  0.00    +0.000 A 
ATOM     24  C   UNL     1       1.926  12.614  18.214  0.00  0.00    +0.000 A 
ATOM     25  C   UNL     1       2.451  11.317  18.121  0.00  0.00    +0.000 A 
BRANCH  23  26
ATOM     26  C   UNL     1       0.042  14.134  18.617  0.00  0.00    +0.000 C 
ATOM     27  N   UNL     1      -0.397  15.206  18.647  0.00  0.00    +0.000 NA
ENDBRANCH  23  26
ENDBRANCH   3  20
TORSDOF 4
ENDMDL
MODEL 8
REMARK VINA RESULT:      -7.3      1.885      4.146
REMARK  Name = 
REMARK  5 active torsions:
REMARK  status: ('A' for Active; 'I' for Inactive)
REMARK    1  A    between atoms: C_1  and  C_2
REMARK    2  A    between atoms: C_6  and  C_7
REMARK    3  A    between atoms: C_9  and  C_10
REMARK    4  A    between atoms: C_13  and  C_14
REMARK    5  A    between atoms: N_19  and  C_20
REMARK                            x       y       z     vdW  Elec       q    Type
REMARK                         _______ _______ _______ _____ _____    ______ ____
ROOT
ATOM      1  C   UNL     1       2.543   6.085  18.385  0.00  0.00    +0.000 A 
ATOM      2  N   UNL     1       1.673   7.027  18.740  0.00  0.00    +0.000 NA
ATOM      3  C   UNL     1       2.218   8.232  18.375  0.00  0.00    +0.000 A 
ATOM      4  C   UNL     1       3.428   8.025  17.757  0.00  0.00    +0.000 A 
ATOM      5  N   UNL     1       3.621   6.657  17.696  0.00  0.00    +0.000 N 
ENDROOT
BRANCH   1  11
ATOM      6  C   UNL     1       4.496   2.179  20.424  0.00  0.00    +0.000 C 
ATOM      7  C   UNL     1       3.322   2.768  19.701  0.00  0.00    +0.000 A 
ATOM      8  C   UNL     1       2.303   1.963  19.209  0.00  0.00    +0.000 A 
ATOM      9  C   UNL     1       1.277   2.556  18.479  0.00  0.00    +0.000 A 
ATOM     10  C   UNL     1       1.317   3.924  18.224  0.00  0.00    +0.000 A 
ATOM     11  C   UNL     1       2.384   4.660  18.719  0.00  0.00    +0.000 A 
ATOM     12  N   UNL     1       3.352   4.106  19.490  0.00  0.00    +0.000 NA
ENDBRANCH   1  11
BRANCH   5  13
ATOM     13  C   UNL     1       4.715   6.039  17.012  0.00  0.00    +0.000 A 
ATOM     14  C   UNL     1       4.476   4.950  16.158  0.00  0.00    +0.000 A 
ATOM     15  C   UNL     1       5.522   4.403  15.410  0.00  0.00    +0.000 A 
ATOM     16  C   UNL     1       6.801   4.935  15.521  0.00  0.00    +0.000 A 
ATOM     17  F   UNL     1       7.792   4.438  14.769  0.00  0.00    +0.000 F 
ATOM     18  C   UNL     1       7.065   5.974  16.400  0.00  0.00    +0.000 A 
ATOM     19  C   UNL     1       6.027   6.509  17.167  0.00  0.00    +0.000 A 
ENDBRANCH   5  13
BRANCH   3  20
ATOM     20  C   UNL     1       1.563   9.519  18.581  0.00  0.00    +0.000 A 
ATOM     21  C   UNL     1       2.183  10.698  18.141  0.00  0.00    +0.000 A 
ATOM     22  C   UNL     1       1.600  11.953  18.378  0.00  0.00    +0.000 A 
ATOM     23  C   UNL     1       0.381  12.044  19.058  0.00  0.00    +0.000 A 
ATOM     24  C   UNL     1      -0.261  10.877  19.474  0.00  0.00    +0.000 A 
ATOM     25  C   UNL     1       0.326   9.626  19.235  0.00  0.00    +0.000 A 
BRANCH  23  26
ATOM     26  C   UNL     1      -0.203  13.327  19.339  0.00  0.00    +0.000 C 
ATOM     27  N   UNL     1      -0.686  14.357  19.557  0.00  0.00    +0.000 NA
ENDBRANCH  23  26
ENDBRANCH   3  20
TORSDOF 4
ENDMDL
MODEL 9
REMARK VINA RESULT:      -7.2      1.744      4.033
REMARK  Name = 
REMARK  5 active torsions:
REMARK  status: ('A' for Active; 'I' for Inactive)
REMARK    1  A    between atoms: C_1  and  C_2
REMARK    2  A    between atoms: C_6  and  C_7
REMARK    3  A    between atoms: C_9  and  C_10
REMARK    4  A    between atoms: C_13  and  C_14
REMARK    5  A    between atoms: N_19  and  C_20
REMARK                            x       y       z     vdW  Elec       q    Type
REMARK                         _______ _______ _______ _____ _____    ______ ____
ROOT
ATOM      1  C   UNL     1       2.581   5.868  18.615  0.00  0.00    +0.000 A 
ATOM      2  N   UNL     1       1.702   6.757  19.070  0.00  0.00    +0.000 NA
ATOM      3  C   UNL     1       2.195   7.999  18.761  0.00  0.00    +0.000 A 
ATOM      4  C   UNL     1       3.380   7.871  18.078  0.00  0.00    +0.000 A 
ATOM      5  N   UNL     1       3.609   6.517  17.918  0.00  0.00    +0.000 N 
ENDROOT
BRANCH   1  11
ATOM      6  C   UNL     1       4.677   1.929  20.439  0.00  0.00    +0.000 C 
ATOM      7  C   UNL     1       3.486   2.512  19.739  0.00  0.00    +0.000 A 
ATOM      8  C   UNL     1       2.506   1.697  19.188  0.00  0.00    +0.000 A 
ATOM      9  C   UNL     1       1.463   2.290  18.482  0.00  0.00    +0.000 A 
ATOM     10  C   UNL     1       1.448   3.671  18.311  0.00  0.00    +0.000 A 
ATOM     11  C   UNL     1       2.479   4.420  18.861  0.00  0.00    +0.000 A 
ATOM     12  N   UNL     1       3.462   3.860  19.609  0.00  0.00    +0.000 NA
ENDBRANCH   1  11
BRANCH   5  13
ATOM     13  C   UNL     1       4.688   5.979  17.147  0.00  0.00    +0.000 A 
ATOM     14  C   UNL     1       4.450   4.908  16.271  0.00  0.00    +0.000 A 
ATOM     15  C   UNL     1       5.474   4.440  15.441  0.00  0.00    +0.000 A 
ATOM     16  C   UNL     1       6.729   5.034  15.493  0.00  0.00    +0.000 A 
ATOM     17  F   UNL     1       7.694   4.614  14.665  0.00  0.00    +0.000 F 
ATOM     18  C   UNL     1       6.995   6.056  16.391  0.00  0.00    +0.000 A 
ATOM     19  C   UNL     1       5.982   6.510  17.239  0.00  0.00    +0.000 A 
ENDBRANCH   5  13
BRANCH   3  20
ATOM     20  C   UNL     1       1.513   9.249  19.080  0.00  0.00    +0.000 A 
ATOM     21  C   UNL     1       0.720   9.339  20.233  0.00  0.00    +0.000 A 
ATOM     22  C   UNL     1       0.009  10.512  20.533  0.00  0.00    +0.000 A 
ATOM     23  C   UNL     1       0.087  11.617  19.679  0.00  0.00    +0.000 A 
ATOM     24  C   UNL     1       0.896  11.551  18.544  0.00  0.00    +0.000 A 
ATOM     25  C   UNL     1       1.604  10.377  18.249  0.00  0.00    +0.000 A 
BRANCH  23  26
ATOM     26  C   UNL     1      -0.669  12.807  19.957  0.00  0.00    +0.000 C 
ATOM     27  N   UNL     1      -1.276  13.765  20.196  0.00  0.00    +0.000 NA
ENDBRANCH  23  26
ENDBRANCH   3  20
TORSDOF 4
ENDMDL
