MODEL 1
REMARK VINA RESULT:      -6.6      0.000      0.000
REMARK  Name = 
REMARK  11 active torsions:
REMARK  status: ('A' for Active; 'I' for Inactive)
REMARK    1  A    between atoms: C_1  and  C_2
REMARK    2  A    between atoms: C_2  and  C_4
REMARK    3  A    between atoms: C_7  and  O_8
REMARK    4  A    between atoms: O_8  and  C_9
REMARK    5  A    between atoms: C_9  and  C_10
REMARK    6  A    between atoms: C_10  and  C_11
REMARK    7  A    between atoms: C_11  and  C_12
REMARK    8  A    between atoms: C_12  and  C_13
REMARK    9  A    between atoms: C_13  and  C_14
REMARK   10  A    between atoms: C_14  and  N_15
REMARK   11  A    between atoms: C_22  and  O_23
REMARK                            x       y       z     vdW  Elec       q    Type
REMARK                         _______ _______ _______ _____ _____    ______ ____
ROOT
ATOM      1  O   UNL     1       2.696   6.075  19.846  0.00  0.00    +0.000 OA
ENDROOT
BRANCH   1   5
ATOM      2  C   UNL     1       0.956   9.859  19.579  0.00  0.00    +0.000 A 
ATOM      3  C   UNL     1       0.805   9.134  20.766  0.00  0.00    +0.000 A 
ATOM      4  C   UNL     1       1.366   7.862  20.894  0.00  0.00    +0.000 A 
ATOM      5  C   UNL     1       2.093   7.305  19.840  0.00  0.00    +0.000 A 
ATOM      6  C   UNL     1       2.248   8.025  18.655  0.00  0.00    +0.000 A 
ATOM      7  C   UNL     1       1.683   9.293  18.520  0.00  0.00    +0.000 A 
BRANCH   2   9
ATOM      8  C   UNL     1       0.506  12.154  20.668  0.00  0.00    +0.000 C 
ATOM      9  C   UNL     1       0.318  11.203  19.515  0.00  0.00    +0.000 C 
ATOM     10  O   UNL     1      -0.294  11.533  18.499  0.00  0.00    +0.000 OA
ENDBRANCH   2   9
BRANCH   7  11
ATOM     11  O   UNL     1       1.871   9.976  17.357  0.00  0.00    +0.000 OA
ATOM     12  H   UNL     1       2.307  10.825  17.547  0.00  0.00    +0.000 HD
ENDBRANCH   7  11
ENDBRANCH   1   5
BRANCH   1  13
ATOM     13  C   UNL     1       2.162   5.147  20.783  0.00  0.00    +0.000 C 
BRANCH  13  14
ATOM     14  C   UNL     1       1.266   4.159  20.055  0.00  0.00    +0.000 C 
BRANCH  14  15
ATOM     15  C   UNL     1       2.107   3.324  19.099  0.00  0.00    +0.000 C 
BRANCH  15  16
ATOM     16  C   UNL     1       2.030   3.860  17.677  0.00  0.00    +0.000 C 
BRANCH  16  17
ATOM     17  C   UNL     1       3.387   3.725  16.995  0.00  0.00    +0.000 C 
BRANCH  17  18
ATOM     18  C   UNL     1       4.513   3.640  18.027  0.00  0.00    +0.000 C 
BRANCH  18  19
ATOM     19  N   UNL     1       5.251   4.905  18.187  0.00  0.00    +0.000 NA
ATOM     20  C   UNL     1       6.675   4.680  18.478  0.00  0.00    +0.000 C 
ATOM     21  C   UNL     1       7.431   5.998  18.647  0.00  0.00    +0.000 C 
ATOM     22  C   UNL     1       7.276   6.881  17.420  0.00  0.00    +0.000 C 
ATOM     23  C   UNL     1       5.801   7.064  17.086  0.00  0.00    +0.000 C 
ATOM     24  C   UNL     1       5.088   5.718  16.968  0.00  0.00    +0.000 C 
ENDBRANCH  18  19
ENDBRANCH  17  18
ENDBRANCH  16  17
ENDBRANCH  15  16
ENDBRANCH  14  15
ENDBRANCH  13  14
ENDBRANCH   1  13
TORSDOF 10
ENDMDL
MODEL 2
REMARK VINA RESULT:      -6.5      1.779      3.881
REMARK  Name = 
REMARK  11 active torsions:
REMARK  status: ('A' for Active; 'I' for Inactive)
REMARK    1  A    between atoms: C_1  and  C_2
REMARK    2  A    between atoms: C_2  and  C_4
REMARK    3  A    between atoms: C_7  and  O_8
REMARK    4  A    between atoms: O_8  and  C_9
REMARK    5  A    between atoms: C_9  and  C_10
REMARK    6  A    between atoms: C_10  and  C_11
REMARK    7  A    between atoms: C_11  and  C_12
REMARK    8  A    between atoms: C_12  and  C_13
REMARK    9  A    between atoms: C_13  and  C_14
REMARK   10  A    between atoms: C_14  and  N_15
REMARK   11  A    between atoms: C_22  and  O_23
REMARK                            x       y       z     vdW  Elec       q    Type
REMARK                         _______ _______ _______ _____ _____    ______ ____
ROOT
ATOM      1  O   UNL     1       3.233   6.807  17.217  0.00  0.00    +0.000 OA
ENDROOT
BRANCH   1   5
ATOM      2  C   UNL     1       1.244   9.006  20.154  0.00  0.00    +0.000 A 
ATOM      3  C   UNL     1       1.747   7.743  20.487  0.00  0.00    +0.000 A 
ATOM      4  C   UNL     1       2.413   6.973  19.532  0.00  0.00    +0.000 A 
ATOM      5  C   UNL     1       2.593   7.460  18.236  0.00  0.00    +0.000 A 
ATOM      6  C   UNL     1       2.094   8.719  17.900  0.00  0.00    +0.000 A 
ATOM      7  C   UNL     1       1.422   9.489  18.849  0.00  0.00    +0.000 A 
BRANCH   2   9
ATOM      8  C   UNL     1      -0.480   9.041  22.073  0.00  0.00    +0.000 C 
ATOM      9  C   UNL     1       0.535   9.760  21.224  0.00  0.00    +0.000 C 
ATOM     10  O   UNL     1       0.837  10.935  21.434  0.00  0.00    +0.000 OA
ENDBRANCH   2   9
BRANCH   7  11
ATOM     11  O   UNL     1       0.966  10.722  18.491  0.00  0.00    +0.000 OA
ATOM     12  H   UNL     1       0.579  10.679  17.600  0.00  0.00    +0.000 HD
ENDBRANCH   7  11
ENDBRANCH   1   5
BRANCH   1  13
ATOM     13  C   UNL     1       4.629   6.611  17.410  0.00  0.00    +0.000 C 
BRANCH  13  14
ATOM     14  C   UNL     1       5.288   6.348  16.066  0.00  0.00    +0.000 C 
BRANCH  14  15
ATOM     15  C   UNL     1       5.156   4.872  15.718  0.00  0.00    +0.000 C 
BRANCH  15  16
ATOM     16  C   UNL     1       5.039   4.015  16.970  0.00  0.00    +0.000 C 
BRANCH  16  17
ATOM     17  C   UNL     1       3.708   3.271  16.970  0.00  0.00    +0.000 C 
BRANCH  17  18
ATOM     18  C   UNL     1       3.757   2.063  17.908  0.00  0.00    +0.000 C 
BRANCH  18  19
ATOM     19  N   UNL     1       2.823   2.169  19.042  0.00  0.00    +0.000 NA
ATOM     20  C   UNL     1       3.482   2.679  20.253  0.00  0.00    +0.000 C 
ATOM     21  C   UNL     1       2.506   2.782  21.426  0.00  0.00    +0.000 C 
ATOM     22  C   UNL     1       1.310   3.648  21.070  0.00  0.00    +0.000 C 
ATOM     23  C   UNL     1       0.664   3.153  19.783  0.00  0.00    +0.000 C 
ATOM     24  C   UNL     1       1.692   3.033  18.658  0.00  0.00    +0.000 C 
ENDBRANCH  18  19
ENDBRANCH  17  18
ENDBRANCH  16  17
ENDBRANCH  15  16
ENDBRANCH  14  15
ENDBRANCH  13  14
ENDBRANCH   1  13
TORSDOF 10
ENDMDL
MODEL 3
REMARK VINA RESULT:      -6.5      4.386      8.072
REMARK  Name = 
REMARK  11 active torsions:
REMARK  status: ('A' for Active; 'I' for Inactive)
REMARK    1  A    between atoms: C_1  and  C_2
REMARK    2  A    between atoms: C_2  and  C_4
REMARK    3  A    between atoms: C_7  and  O_8
REMARK    4  A    between atoms: O_8  and  C_9
REMARK    5  A    between atoms: C_9  and  C_10
REMARK    6  A    between atoms: C_10  and  C_11
REMARK    7  A    between atoms: C_11  and  C_12
REMARK    8  A    between atoms: C_12  and  C_13
REMARK    9  A    between atoms: C_13  and  C_14
REMARK   10  A    between atoms: C_14  and  N_15
REMARK   11  A    between atoms: C_22  and  O_23
REMARK                            x       y       z     vdW  Elec       q    Type
REMARK                         _______ _______ _______ _____ _____    ______ ____
ROOT
ATOM      1  O   UNL     1       7.657   5.735  15.695  0.00  0.00    +0.000 OA
ENDROOT
BRANCH   1   5
ATOM      2  C   UNL     1       5.817   3.493  12.693  0.00  0.00    +0.000 A 
ATOM      3  C   UNL     1       5.278   3.456  13.984  0.00  0.00    +0.000 A 
ATOM      4  C   UNL     1       5.868   4.186  15.018  0.00  0.00    +0.000 A 
ATOM      5  C   UNL     1       6.996   4.970  14.771  0.00  0.00    +0.000 A 
ATOM      6  C   UNL     1       7.536   5.013  13.485  0.00  0.00    +0.000 A 
ATOM      7  C   UNL     1       6.955   4.279  12.451  0.00  0.00    +0.000 A 
BRANCH   2   9
ATOM      8  C   UNL     1       3.864   3.192  11.036  0.00  0.00    +0.000 C 
ATOM      9  C   UNL     1       5.140   2.678  11.648  0.00  0.00    +0.000 C 
ATOM     10  O   UNL     1       5.668   1.635  11.261  0.00  0.00    +0.000 OA
ENDBRANCH   2   9
BRANCH   7  11
ATOM     11  O   UNL     1       7.496   4.360  11.204  0.00  0.00    +0.000 OA
ATOM     12  H   UNL     1       6.919   3.900  10.570  0.00  0.00    +0.000 HD
ENDBRANCH   7  11
ENDBRANCH   1   5
BRANCH   1  13
ATOM     13  C   UNL     1       7.236   5.550  17.042  0.00  0.00    +0.000 C 
BRANCH  13  14
ATOM     14  C   UNL     1       6.876   6.898  17.643  0.00  0.00    +0.000 C 
BRANCH  14  15
ATOM     15  C   UNL     1       5.404   7.189  17.386  0.00  0.00    +0.000 C 
BRANCH  15  16
ATOM     16  C   UNL     1       4.542   5.962  17.642  0.00  0.00    +0.000 C 
BRANCH  16  17
ATOM     17  C   UNL     1       4.513   5.648  19.134  0.00  0.00    +0.000 C 
BRANCH  17  18
ATOM     18  C   UNL     1       4.732   4.154  19.383  0.00  0.00    +0.000 C 
BRANCH  18  19
ATOM     19  N   UNL     1       3.502   3.445  19.774  0.00  0.00    +0.000 NA
ATOM     20  C   UNL     1       2.500   4.354  20.352  0.00  0.00    +0.000 C 
ATOM     21  C   UNL     1       1.229   3.608  20.759  0.00  0.00    +0.000 C 
ATOM     22  C   UNL     1       0.638   2.848  19.583  0.00  0.00    +0.000 C 
ATOM     23  C   UNL     1       1.694   1.951  18.951  0.00  0.00    +0.000 C 
ATOM     24  C   UNL     1       2.954   2.741  18.600  0.00  0.00    +0.000 C 
ENDBRANCH  18  19
ENDBRANCH  17  18
ENDBRANCH  16  17
ENDBRANCH  15  16
ENDBRANCH  14  15
ENDBRANCH  13  14
ENDBRANCH   1  13
TORSDOF 10
ENDMDL
MODEL 4
REMARK VINA RESULT:      -6.5      2.248      4.289
REMARK  Name = 
REMARK  11 active torsions:
REMARK  status: ('A' for Active; 'I' for Inactive)
REMARK    1  A    between atoms: C_1  and  C_2
REMARK    2  A    between atoms: C_2  and  C_4
REMARK    3  A    between atoms: C_7  and  O_8
REMARK    4  A    between atoms: O_8  and  C_9
REMARK    5  A    between atoms: C_9  and  C_10
REMARK    6  A    between atoms: C_10  and  C_11
REMARK    7  A    between atoms: C_11  and  C_12
REMARK    8  A    between atoms: C_12  and  C_13
REMARK    9  A    between atoms: C_13  and  C_14
REMARK   10  A    between atoms: C_14  and  N_15
REMARK   11  A    between atoms: C_22  and  O_23
REMARK                            x       y       z     vdW  Elec       q    Type
REMARK                         _______ _______ _______ _____ _____    ______ ____
ROOT
ATOM      1  O   UNL     1       1.806   8.079  19.888  0.00  0.00    +0.000 OA
ENDROOT
BRANCH   1   5
ATOM      2  C   UNL     1      -0.486  10.803  22.067  0.00  0.00    +0.000 A 
ATOM      3  C   UNL     1      -0.425  10.939  20.676  0.00  0.00    +0.000 A 
ATOM      4  C   UNL     1       0.336  10.053  19.911  0.00  0.00    +0.000 A 
ATOM      5  C   UNL     1       1.035   9.014  20.527  0.00  0.00    +0.000 A 
ATOM      6  C   UNL     1       0.976   8.872  21.914  0.00  0.00    +0.000 A 
ATOM      7  C   UNL     1       0.224   9.760  22.683  0.00  0.00    +0.000 A 
BRANCH   2   9
ATOM      8  C   UNL     1      -0.932  13.251  22.745  0.00  0.00    +0.000 C 
ATOM      9  C   UNL     1      -1.308  11.794  22.814  0.00  0.00    +0.000 C 
ATOM     10  O   UNL     1      -2.310  11.413  23.419  0.00  0.00    +0.000 OA
ENDBRANCH   2   9
BRANCH   7  11
ATOM     11  O   UNL     1       0.172   9.579  24.032  0.00  0.00    +0.000 OA
ATOM     12  H   UNL     1       0.938  10.013  24.446  0.00  0.00    +0.000 HD
ENDBRANCH   7  11
ENDBRANCH   1   5
BRANCH   1  13
ATOM     13  C   UNL     1       2.128   8.386  18.537  0.00  0.00    +0.000 C 
BRANCH  13  14
ATOM     14  C   UNL     1       2.449   7.098  17.795  0.00  0.00    +0.000 C 
BRANCH  14  15
ATOM     15  C   UNL     1       3.955   6.992  17.595  0.00  0.00    +0.000 C 
BRANCH  15  16
ATOM     16  C   UNL     1       4.363   5.583  17.191  0.00  0.00    +0.000 C 
BRANCH  16  17
ATOM     17  C   UNL     1       5.356   5.018  18.201  0.00  0.00    +0.000 C 
BRANCH  17  18
ATOM     18  C   UNL     1       4.770   3.804  18.924  0.00  0.00    +0.000 C 
BRANCH  18  19
ATOM     19  N   UNL     1       3.301   3.837  19.018  0.00  0.00    +0.000 NA
ATOM     20  C   UNL     1       2.708   2.500  18.864  0.00  0.00    +0.000 C 
ATOM     21  C   UNL     1       1.182   2.545  18.959  0.00  0.00    +0.000 C 
ATOM     22  C   UNL     1       0.732   3.176  20.266  0.00  0.00    +0.000 C 
ATOM     23  C   UNL     1       1.394   4.535  20.451  0.00  0.00    +0.000 C 
ATOM     24  C   UNL     1       2.912   4.436  20.308  0.00  0.00    +0.000 C 
ENDBRANCH  18  19
ENDBRANCH  17  18
ENDBRANCH  16  17
ENDBRANCH  15  16
ENDBRANCH  14  15
ENDBRANCH  13  14
ENDBRANCH   1  13
TORSDOF 10
ENDMDL
MODEL 5
REMARK VINA RESULT:      -6.5      3.003      6.684
REMARK  Name = 
REMARK  11 active torsions:
REMARK  status: ('A' for Active; 'I' for Inactive)
REMARK    1  A    between atoms: C_1  and  C_2
REMARK    2  A    between atoms: C_2  and  C_4
REMARK    3  A    between atoms: C_7  and  O_8
REMARK    4  A    between atoms: O_8  and  C_9
REMARK    5  A    between atoms: C_9  and  C_10
REMARK    6  A    between atoms: C_10  and  C_11
REMARK    7  A    between atoms: C_11  and  C_12
REMARK    8  A    between atoms: C_12  and  C_13
REMARK    9  A    between atoms: C_13  and  C_14
REMARK   10  A    between atoms: C_14  and  N_15
REMARK   11  A    between atoms: C_22  and  O_23
REMARK                            x       y       z     vdW  Elec       q    Type
REMARK                         _______ _______ _______ _____ _____    ______ ____
ROOT
ATOM      1  O   UNL     1       4.282   3.495  19.725  0.00  0.00    +0.000 OA
ENDROOT
BRANCH   1   5
ATOM      2  C   UNL     1       6.084   4.446  16.083  0.00  0.00    +0.000 A 
ATOM      3  C   UNL     1       4.881   3.733  16.070  0.00  0.00    +0.000 A 
ATOM      4  C   UNL     1       4.249   3.388  17.267  0.00  0.00    +0.000 A 
ATOM      5  C   UNL     1       4.807   3.763  18.490  0.00  0.00    +0.000 A 
ATOM      6  C   UNL     1       6.006   4.478  18.508  0.00  0.00    +0.000 A 
ATOM      7  C   UNL     1       6.645   4.817  17.316  0.00  0.00    +0.000 A 
BRANCH   2   9
ATOM      8  C   UNL     1       6.248   4.008  13.547  0.00  0.00    +0.000 C 
ATOM      9  C   UNL     1       6.702   4.764  14.767  0.00  0.00    +0.000 C 
ATOM     10  O   UNL     1       7.523   5.679  14.691  0.00  0.00    +0.000 OA
ENDBRANCH   2   9
BRANCH   7  11
ATOM     11  O   UNL     1       7.803   5.532  17.370  0.00  0.00    +0.000 OA
ATOM     12  H   UNL     1       7.808   6.194  16.658  0.00  0.00    +0.000 HD
ENDBRANCH   7  11
ENDBRANCH   1   5
BRANCH   1  13
ATOM     13  C   UNL     1       3.090   2.718  19.717  0.00  0.00    +0.000 C 
BRANCH  13  14
ATOM     14  C   UNL     1       2.507   2.681  21.121  0.00  0.00    +0.000 C 
BRANCH  14  15
ATOM     15  C   UNL     1       1.279   3.579  21.181  0.00  0.00    +0.000 C 
BRANCH  15  16
ATOM     16  C   UNL     1       1.268   4.583  20.038  0.00  0.00    +0.000 C 
BRANCH  16  17
ATOM     17  C   UNL     1       1.947   5.877  20.475  0.00  0.00    +0.000 C 
BRANCH  17  18
ATOM     18  C   UNL     1       2.322   6.734  19.264  0.00  0.00    +0.000 C 
BRANCH  18  19
ATOM     19  N   UNL     1       2.082   8.172  19.473  0.00  0.00    +0.000 NA
ATOM     20  C   UNL     1       1.647   8.844  18.240  0.00  0.00    +0.000 C 
ATOM     21  C   UNL     1       1.406  10.337  18.465  0.00  0.00    +0.000 C 
ATOM     22  C   UNL     1       0.396  10.567  19.577  0.00  0.00    +0.000 C 
ATOM     23  C   UNL     1       0.819   9.822  20.836  0.00  0.00    +0.000 C 
ATOM     24  C   UNL     1       1.084   8.346  20.544  0.00  0.00    +0.000 C 
ENDBRANCH  18  19
ENDBRANCH  17  18
ENDBRANCH  16  17
ENDBRANCH  15  16
ENDBRANCH  14  15
ENDBRANCH  13  14
ENDBRANCH   1  13
TORSDOF 10
ENDMDL
MODEL 6
REMARK VINA RESULT:      -6.4      4.403      6.807
REMARK  Name = 
REMARK  11 active torsions:
REMARK  status: ('A' for Active; 'I' for Inactive)
REMARK    1  A    between atoms: C_1  and  C_2
REMARK    2  A    between atoms: C_2  and  C_4
REMARK    3  A    between atoms: C_7  and  O_8
REMARK    4  A    between atoms: O_8  and  C_9
REMARK    5  A    between atoms: C_9  and  C_10
REMARK    6  A    between atoms: C_10  and  C_11
REMARK    7  A    between atoms: C_11  and  C_12
REMARK    8  A    between atoms: C_12  and  C_13
REMARK    9  A    between atoms: C_13  and  C_14
REMARK   10  A    between atoms: C_14  and  N_15
REMARK   11  A    between atoms: C_22  and  O_23
REMARK                            x       y       z     vdW  Elec       q    Type
REMARK                         _______ _______ _______ _____ _____    ______ ____
ROOT
ATOM      1  O   UNL     1       5.687   3.895  16.520  0.00  0.00    +0.000 OA
ENDROOT
BRANCH   1   5
ATOM      2  C   UNL     1       2.655   3.684  19.381  0.00  0.00    +0.000 A 
ATOM      3  C   UNL     1       3.982   3.783  19.815  0.00  0.00    +0.000 A 
ATOM      4  C   UNL     1       5.026   3.849  18.890  0.00  0.00    +0.000 A 
ATOM      5  C   UNL     1       4.755   3.828  17.522  0.00  0.00    +0.000 A 
ATOM      6  C   UNL     1       3.433   3.732  17.083  0.00  0.00    +0.000 A 
ATOM      7  C   UNL     1       2.388   3.657  18.003  0.00  0.00    +0.000 A 
BRANCH   2   9
ATOM      8  C   UNL     1       1.810   2.691  21.606  0.00  0.00    +0.000 C 
ATOM      9  C   UNL     1       1.600   3.604  20.427  0.00  0.00    +0.000 C 
ATOM     10  O   UNL     1       0.610   4.331  20.342  0.00  0.00    +0.000 OA
ENDBRANCH   2   9
BRANCH   7  11
ATOM     11  O   UNL     1       1.109   3.585  17.540  0.00  0.00    +0.000 OA
ATOM     12  H   UNL     1       0.988   4.228  16.821  0.00  0.00    +0.000 HD
ENDBRANCH   7  11
ENDBRANCH   1   5
BRANCH   1  13
ATOM     13  C   UNL     1       6.695   4.883  16.700  0.00  0.00    +0.000 C 
BRANCH  13  14
ATOM     14  C   UNL     1       6.154   6.235  16.264  0.00  0.00    +0.000 C 
BRANCH  14  15
ATOM     15  C   UNL     1       6.338   7.241  17.393  0.00  0.00    +0.000 C 
BRANCH  15  16
ATOM     16  C   UNL     1       7.807   7.569  17.609  0.00  0.00    +0.000 C 
BRANCH  16  17
ATOM     17  C   UNL     1       7.985   9.074  17.781  0.00  0.00    +0.000 C 
BRANCH  17  18
ATOM     18  C   UNL     1       8.939   9.384  18.936  0.00  0.00    +0.000 C 
BRANCH  18  19
ATOM     19  N   UNL     1       9.161  10.826  19.135  0.00  0.00    +0.000 NA
ATOM     20  C   UNL     1       9.597  11.133  20.506  0.00  0.00    +0.000 C 
ATOM     21  C   UNL     1       9.821  12.633  20.704  0.00  0.00    +0.000 C 
ATOM     22  C   UNL     1      10.820  13.177  19.697  0.00  0.00    +0.000 C 
ATOM     23  C   UNL     1      10.397  12.806  18.282  0.00  0.00    +0.000 C 
ATOM     24  C   UNL     1      10.150  11.304  18.152  0.00  0.00    +0.000 C 
ENDBRANCH  18  19
ENDBRANCH  17  18
ENDBRANCH  16  17
ENDBRANCH  15  16
ENDBRANCH  14  15
ENDBRANCH  13  14
ENDBRANCH   1  13
TORSDOF 10
ENDMDL
MODEL 7
REMARK VINA RESULT:      -6.3      4.350      8.044
REMARK  Name = 
REMARK  11 active torsions:
REMARK  status: ('A' for Active; 'I' for Inactive)
REMARK    1  A    between atoms: C_1  and  C_2
REMARK    2  A    between atoms: C_2  and  C_4
REMARK    3  A    between atoms: C_7  and  O_8
REMARK    4  A    between atoms: O_8  and  C_9
REMARK    5  A    between atoms: C_9  and  C_10
REMARK    6  A    between atoms: C_10  and  C_11
REMARK    7  A    between atoms: C_11  and  C_12
REMARK    8  A    between atoms: C_12  and  C_13
REMARK    9  A    between atoms: C_13  and  C_14
REMARK   10  A    between atoms: C_14  and  N_15
REMARK   11  A    between atoms: C_22  and  O_23
REMARK                            x       y       z     vdW  Elec       q    Type
REMARK                         _______ _______ _______ _____ _____    ______ ____
ROOT
ATOM      1  O   UNL     1       7.678   5.832  15.735  0.00  0.00    +0.000 OA
ENDROOT
BRANCH   1   5
ATOM      2  C   UNL     1       5.767   3.607  12.766  0.00  0.00    +0.000 A 
ATOM      3  C   UNL     1       5.157   3.715  14.021  0.00  0.00    +0.000 A 
ATOM      4  C   UNL     1       5.767   4.445  15.043  0.00  0.00    +0.000 A 
ATOM      5  C   UNL     1       6.987   5.083  14.820  0.00  0.00    +0.000 A 
ATOM      6  C   UNL     1       7.599   4.980  13.570  0.00  0.00    +0.000 A 
ATOM      7  C   UNL     1       6.998   4.246  12.548  0.00  0.00    +0.000 A 
BRANCH   2   9
ATOM      8  C   UNL     1       3.797   3.346  11.122  0.00  0.00    +0.000 C 
ATOM      9  C   UNL     1       5.062   2.801  11.732  0.00  0.00    +0.000 C 
ATOM     10  O   UNL     1       5.558   1.740  11.352  0.00  0.00    +0.000 OA
ENDBRANCH   2   9
BRANCH   7  11
ATOM     11  O   UNL     1       7.612   4.183  11.334  0.00  0.00    +0.000 OA
ATOM     12  H   UNL     1       7.164   4.783  10.713  0.00  0.00    +0.000 HD
ENDBRANCH   7  11
ENDBRANCH   1   5
BRANCH   1  13
ATOM     13  C   UNL     1       6.892   6.364  16.795  0.00  0.00    +0.000 C 
BRANCH  13  14
ATOM     14  C   UNL     1       6.818   5.348  17.922  0.00  0.00    +0.000 C 
BRANCH  14  15
ATOM     15  C   UNL     1       5.524   5.547  18.699  0.00  0.00    +0.000 C 
BRANCH  15  16
ATOM     16  C   UNL     1       4.628   6.578  18.029  0.00  0.00    +0.000 C 
BRANCH  16  17
ATOM     17  C   UNL     1       3.216   6.021  17.878  0.00  0.00    +0.000 C 
BRANCH  17  18
ATOM     18  C   UNL     1       2.401   6.241  19.154  0.00  0.00    +0.000 C 
BRANCH  18  19
ATOM     19  N   UNL     1       1.726   5.021  19.629  0.00  0.00    +0.000 NA
ATOM     20  C   UNL     1       1.692   3.972  18.598  0.00  0.00    +0.000 C 
ATOM     21  C   UNL     1       0.984   2.712  19.099  0.00  0.00    +0.000 C 
ATOM     22  C   UNL     1       1.633   2.186  20.368  0.00  0.00    +0.000 C 
ATOM     23  C   UNL     1       1.720   3.291  21.413  0.00  0.00    +0.000 C 
ATOM     24  C   UNL     1       2.400   4.536  20.847  0.00  0.00    +0.000 C 
ENDBRANCH  18  19
ENDBRANCH  17  18
ENDBRANCH  16  17
ENDBRANCH  15  16
ENDBRANCH  14  15
ENDBRANCH  13  14
ENDBRANCH   1  13
TORSDOF 10
ENDMDL
MODEL 8
REMARK VINA RESULT:      -6.2      5.303      8.372
REMARK  Name = 
REMARK  11 active torsions:
REMARK  status: ('A' for Active; 'I' for Inactive)
REMARK    1  A    between atoms: C_1  and  C_2
REMARK    2  A    between atoms: C_2  and  C_4
REMARK    3  A    between atoms: C_7  and  O_8
REMARK    4  A    between atoms: O_8  and  C_9
REMARK    5  A    between atoms: C_9  and  C_10
REMARK    6  A    between atoms: C_10  and  C_11
REMARK    7  A    between atoms: C_11  and  C_12
REMARK    8  A    between atoms: C_12  and  C_13
REMARK    9  A    between atoms: C_13  and  C_14
REMARK   10  A    between atoms: C_14  and  N_15
REMARK   11  A    between atoms: C_22  and  O_23
REMARK                            x       y       z     vdW  Elec       q    Type
REMARK                         _______ _______ _______ _____ _____    ______ ____
ROOT
ATOM      1  O   UNL     1       7.234   7.426  16.984  0.00  0.00    +0.000 OA
ENDROOT
BRANCH   1   5
ATOM      2  C   UNL     1       4.009   5.095  18.243  0.00  0.00    +0.000 A 
ATOM      3  C   UNL     1       3.748   6.299  17.581  0.00  0.00    +0.000 A 
ATOM      4  C   UNL     1       4.798   7.112  17.150  0.00  0.00    +0.000 A 
ATOM      5  C   UNL     1       6.122   6.724  17.366  0.00  0.00    +0.000 A 
ATOM      6  C   UNL     1       6.388   5.522  18.024  0.00  0.00    +0.000 A 
ATOM      7  C   UNL     1       5.341   4.711  18.463  0.00  0.00    +0.000 A 
BRANCH   2   9
ATOM      8  C   UNL     1       1.646   4.177  17.768  0.00  0.00    +0.000 C 
ATOM      9  C   UNL     1       2.836   4.291  18.684  0.00  0.00    +0.000 C 
ATOM     10  O   UNL     1       2.888   3.686  19.755  0.00  0.00    +0.000 OA
ENDBRANCH   2   9
BRANCH   7  11
ATOM     11  O   UNL     1       5.637   3.535  19.084  0.00  0.00    +0.000 OA
ATOM     12  H   UNL     1       5.768   2.841  18.416  0.00  0.00    +0.000 HD
ENDBRANCH   7  11
ENDBRANCH   1   5
BRANCH   1  13
ATOM     13  C   UNL     1       8.079   7.841  18.051  0.00  0.00    +0.000 C 
BRANCH  13  14
ATOM     14  C   UNL     1       8.333   9.335  17.936  0.00  0.00    +0.000 C 
BRANCH  14  15
ATOM     15  C   UNL     1       9.002   9.833  19.210  0.00  0.00    +0.000 C 
BRANCH  15  16
ATOM     16  C   UNL     1      10.093  10.848  18.903  0.00  0.00    +0.000 C 
BRANCH  16  17
ATOM     17  C   UNL     1       9.599  11.846  17.863  0.00  0.00    +0.000 C 
BRANCH  17  18
ATOM     18  C   UNL     1      10.170  13.241  18.128  0.00  0.00    +0.000 C 
BRANCH  18  19
ATOM     19  N   UNL     1       9.219  14.325  17.828  0.00  0.00    +0.000 NA
ATOM     20  C   UNL     1       7.832  13.940  18.127  0.00  0.00    +0.000 C 
ATOM     21  C   UNL     1       6.852  15.070  17.807  0.00  0.00    +0.000 C 
ATOM     22  C   UNL     1       7.220  16.343  18.551  0.00  0.00    +0.000 C 
ATOM     23  C   UNL     1       8.675  16.706  18.285  0.00  0.00    +0.000 C 
ATOM     24  C   UNL     1       9.603  15.530  18.584  0.00  0.00    +0.000 C 
ENDBRANCH  18  19
ENDBRANCH  17  18
ENDBRANCH  16  17
ENDBRANCH  15  16
ENDBRANCH  14  15
ENDBRANCH  13  14
ENDBRANCH   1  13
TORSDOF 10
ENDMDL
MODEL 9
REMARK VINA RESULT:      -6.2      4.856      7.139
REMARK  Name = 
REMARK  11 active torsions:
REMARK  status: ('A' for Active; 'I' for Inactive)
REMARK    1  A    between atoms: C_1  and  C_2
REMARK    2  A    between atoms: C_2  and  C_4
REMARK    3  A    between atoms: C_7  and  O_8
REMARK    4  A    between atoms: O_8  and  C_9
REMARK    5  A    between atoms: C_9  and  C_10
REMARK    6  A    between atoms: C_10  and  C_11
REMARK    7  A    between atoms: C_11  and  C_12
REMARK    8  A    between atoms: C_12  and  C_13
REMARK    9  A    between atoms: C_13  and  C_14
REMARK   10  A    between atoms: C_14  and  N_15
REMARK   11  A    between atoms: C_22  and  O_23
REMARK                            x       y       z     vdW  Elec       q    Type
REMARK                         _______ _______ _______ _____ _____    ______ ____
ROOT
ATOM      1  O   UNL     1       8.866   8.825  18.683  0.00  0.00    +0.000 OA
ENDROOT
BRANCH   1   5
ATOM      2  C   UNL     1       9.458  12.879  19.478  0.00  0.00    +0.000 A 
ATOM      3  C   UNL     1       9.509  11.972  20.543  0.00  0.00    +0.000 A 
ATOM      4  C   UNL     1       9.309  10.608  20.320  0.00  0.00    +0.000 A 
ATOM      5  C   UNL     1       9.068  10.134  19.030  0.00  0.00    +0.000 A 
ATOM      6  C   UNL     1       9.019  11.034  17.964  0.00  0.00    +0.000 A 
ATOM      7  C   UNL     1       9.210  12.398  18.183  0.00  0.00    +0.000 A 
BRANCH   2   9
ATOM      8  C   UNL     1      10.964  14.740  20.440  0.00  0.00    +0.000 C 
ATOM      9  C   UNL     1       9.668  14.318  19.798  0.00  0.00    +0.000 C 
ATOM     10  O   UNL     1       8.810  15.139  19.474  0.00  0.00    +0.000 OA
ENDBRANCH   2   9
BRANCH   7  11
ATOM     11  O   UNL     1       9.176  13.246  17.117  0.00  0.00    +0.000 OA
ATOM     12  H   UNL     1       8.556  12.902  16.450  0.00  0.00    +0.000 HD
ENDBRANCH   7  11
ENDBRANCH   1   5
BRANCH   1  13
ATOM     13  C   UNL     1       7.763   8.595  17.815  0.00  0.00    +0.000 C 
BRANCH  13  14
ATOM     14  C   UNL     1       7.751   7.134  17.396  0.00  0.00    +0.000 C 
BRANCH  14  15
ATOM     15  C   UNL     1       6.442   6.493  17.836  0.00  0.00    +0.000 C 
BRANCH  15  16
ATOM     16  C   UNL     1       5.292   6.897  16.926  0.00  0.00    +0.000 C 
BRANCH  16  17
ATOM     17  C   UNL     1       3.988   6.291  17.433  0.00  0.00    +0.000 C 
BRANCH  17  18
ATOM     18  C   UNL     1       4.076   4.764  17.479  0.00  0.00    +0.000 C 
BRANCH  18  19
ATOM     19  N   UNL     1       3.285   4.170  18.570  0.00  0.00    +0.000 NA
ATOM     20  C   UNL     1       3.119   5.097  19.700  0.00  0.00    +0.000 C 
ATOM     21  C   UNL     1       2.301   4.469  20.829  0.00  0.00    +0.000 C 
ATOM     22  C   UNL     1       0.946   3.997  20.329  0.00  0.00    +0.000 C 
ATOM     23  C   UNL     1       1.119   3.084  19.122  0.00  0.00    +0.000 C 
ATOM     24  C   UNL     1       1.975   3.746  18.044  0.00  0.00    +0.000 C 
ENDBRANCH  18  19
ENDBRANCH  17  18
ENDBRANCH  16  17
ENDBRANCH  15  16
ENDBRANCH  14  15
ENDBRANCH  13  14
ENDBRANCH   1  13
TORSDOF 10
ENDMDL
