MODEL 1
REMARK VINA RESULT:      -8.0      0.000      0.000
REMARK  Name = 
REMARK  6 active torsions:
REMARK  status: ('A' for Active; 'I' for Inactive)
REMARK    1  A    between atoms: C_1  and  O_2
REMARK    2  A    between atoms: O_2  and  C_3
REMARK    3  A    between atoms: C_6  and  C_7
REMARK    4  A    between atoms: C_7  and  N_8
REMARK    5  A    between atoms: C_22  and  C_23
REMARK    6  A    between atoms: C_22  and  C_24
REMARK                            x       y       z     vdW  Elec       q    Type
REMARK                         _______ _______ _______ _____ _____    ______ ____
ROOT
ATOM      1  N   UNL     1       1.034   8.934  20.233  0.00  0.00    +0.000 N 
ATOM      2  C   UNL     1       0.703   9.754  21.317  0.00  0.00    +0.000 C 
ATOM      3  O   UNL     1       1.118   9.671  22.454  0.00  0.00    +0.000 OA
ATOM      4  C   UNL     1       0.009  10.982  20.676  0.00  0.00    +0.000 C 
ATOM      5  C   UNL     1      -0.711  12.309  21.062  0.00  0.00    +0.000 C 
ATOM      6  C   UNL     1      -0.586  13.156  19.729  0.00  0.00    +0.000 A 
ATOM      7  C   UNL     1      -0.589  12.398  18.539  0.00  0.00    +0.000 A 
ATOM      8  N   UNL     1       0.641  12.700  17.971  0.00  0.00    +0.000 N 
ATOM      9  C   UNL     1       1.150  13.845  18.572  0.00  0.00    +0.000 A 
ATOM     10  C   UNL     1       2.383  14.499  18.456  0.00  0.00    +0.000 A 
ATOM     11  C   UNL     1       2.453  15.809  18.948  0.00  0.00    +0.000 A 
ATOM     12  C   UNL     1       1.346  16.416  19.540  0.00  0.00    +0.000 A 
ATOM     13  C   UNL     1       0.216  15.656  19.865  0.00  0.00    +0.000 A 
ATOM     14  C   UNL     1       0.155  14.321  19.427  0.00  0.00    +0.000 A 
ATOM     15  C   UNL     1      -1.322  11.082  18.509  0.00  0.00    +0.000 C 
ATOM     16  C   UNL     1      -2.812  11.460  18.937  0.00  0.00    +0.000 C 
ATOM     17  C   UNL     1      -1.593  10.246  17.250  0.00  0.00    +0.000 C 
ATOM     18  N   UNL     1      -0.572  10.306  19.507  0.00  0.00    +0.000 N 
ATOM     19  C   UNL     1       0.501   9.497  19.098  0.00  0.00    +0.000 C 
ATOM     20  O   UNL     1       1.028   9.505  17.999  0.00  0.00    +0.000 OA
ATOM     21  H   UNL     1       1.156  12.099  17.343  0.00  0.00    +0.000 HD
ENDROOT
BRANCH   1  22
ATOM     22  C   UNL     1       2.253   8.136  20.098  0.00  0.00    +0.000 C 
BRANCH  22  26
ATOM     23  C   UNL     1       1.657   3.965  18.936  0.00  0.00    +0.000 A 
ATOM     24  C   UNL     1       2.072   4.896  17.986  0.00  0.00    +0.000 A 
ATOM     25  C   UNL     1       2.274   6.243  18.343  0.00  0.00    +0.000 A 
ATOM     26  C   UNL     1       2.033   6.689  19.656  0.00  0.00    +0.000 A 
ATOM     27  C   UNL     1       1.596   5.744  20.590  0.00  0.00    +0.000 A 
ATOM     28  C   UNL     1       1.416   4.393  20.238  0.00  0.00    +0.000 A 
BRANCH  23  30
ATOM     29  C   UNL     1       2.623   2.037  17.925  0.00  0.00    +0.000 C 
ATOM     30  O   UNL     1       1.479   2.699  18.467  0.00  0.00    +0.000 OA
ENDBRANCH  23  30
ENDBRANCH  22  26
ENDBRANCH   1  22
TORSDOF 3
ENDMDL
MODEL 2
REMARK VINA RESULT:      -7.7      4.085      7.631
REMARK  Name = 
REMARK  6 active torsions:
REMARK  status: ('A' for Active; 'I' for Inactive)
REMARK    1  A    between atoms: C_1  and  O_2
REMARK    2  A    between atoms: O_2  and  C_3
REMARK    3  A    between atoms: C_6  and  C_7
REMARK    4  A    between atoms: C_7  and  N_8
REMARK    5  A    between atoms: C_22  and  C_23
REMARK    6  A    between atoms: C_22  and  C_24
REMARK                            x       y       z     vdW  Elec       q    Type
REMARK                         _______ _______ _______ _____ _____    ______ ____
ROOT
ATOM      1  N   UNL     1      -0.846  13.197  22.695  0.00  0.00    +0.000 N 
ATOM      2  C   UNL     1      -0.732  11.808  22.580  0.00  0.00    +0.000 C 
ATOM      3  O   UNL     1      -1.058  10.973  23.397  0.00  0.00    +0.000 OA
ATOM      4  C   UNL     1      -0.457  11.565  21.073  0.00  0.00    +0.000 C 
ATOM      5  C   UNL     1      -0.148  10.419  20.065  0.00  0.00    +0.000 C 
ATOM      6  C   UNL     1      -0.570  11.069  18.683  0.00  0.00    +0.000 A 
ATOM      7  C   UNL     1      -0.389  12.465  18.600  0.00  0.00    +0.000 A 
ATOM      8  N   UNL     1      -1.674  12.936  18.370  0.00  0.00    +0.000 N 
ATOM      9  C   UNL     1      -2.476  11.881  17.951  0.00  0.00    +0.000 A 
ATOM     10  C   UNL     1      -3.851  11.786  17.702  0.00  0.00    +0.000 A 
ATOM     11  C   UNL     1      -4.287  10.669  16.975  0.00  0.00    +0.000 A 
ATOM     12  C   UNL     1      -3.387   9.697  16.543  0.00  0.00    +0.000 A 
ATOM     13  C   UNL     1      -2.071   9.692  17.019  0.00  0.00    +0.000 A 
ATOM     14  C   UNL     1      -1.634  10.779  17.798  0.00  0.00    +0.000 A 
ATOM     15  C   UNL     1       0.699  13.113  19.417  0.00  0.00    +0.000 C 
ATOM     16  C   UNL     1       2.025  12.349  18.969  0.00  0.00    +0.000 C 
ATOM     17  C   UNL     1       1.156  14.573  19.286  0.00  0.00    +0.000 C 
ATOM     18  N   UNL     1       0.252  12.820  20.786  0.00  0.00    +0.000 N 
ATOM     19  C   UNL     1      -0.549  13.750  21.471  0.00  0.00    +0.000 C 
ATOM     20  O   UNL     1      -1.097  14.723  20.984  0.00  0.00    +0.000 OA
ATOM     21  H   UNL     1      -2.013  13.855  18.621  0.00  0.00    +0.000 HD
ENDROOT
BRANCH   1  22
ATOM     22  C   UNL     1      -1.779  13.914  23.565  0.00  0.00    +0.000 C 
BRANCH  22  26
ATOM     23  C   UNL     1      -5.919  12.522  23.415  0.00  0.00    +0.000 A 
ATOM     24  C   UNL     1      -5.161  12.318  24.568  0.00  0.00    +0.000 A 
ATOM     25  C   UNL     1      -3.828  12.764  24.635  0.00  0.00    +0.000 A 
ATOM     26  C   UNL     1      -3.217  13.396  23.536  0.00  0.00    +0.000 A 
ATOM     27  C   UNL     1      -3.988  13.573  22.381  0.00  0.00    +0.000 A 
ATOM     28  C   UNL     1      -5.328  13.147  22.322  0.00  0.00    +0.000 A 
BRANCH  23  30
ATOM     29  C   UNL     1      -7.911  11.970  22.233  0.00  0.00    +0.000 C 
ATOM     30  O   UNL     1      -7.188  12.031  23.463  0.00  0.00    +0.000 OA
ENDBRANCH  23  30
ENDBRANCH  22  26
ENDBRANCH   1  22
TORSDOF 3
ENDMDL
MODEL 3
REMARK VINA RESULT:      -7.3      3.056      8.389
REMARK  Name = 
REMARK  6 active torsions:
REMARK  status: ('A' for Active; 'I' for Inactive)
REMARK    1  A    between atoms: C_1  and  O_2
REMARK    2  A    between atoms: O_2  and  C_3
REMARK    3  A    between atoms: C_6  and  C_7
REMARK    4  A    between atoms: C_7  and  N_8
REMARK    5  A    between atoms: C_22  and  C_23
REMARK    6  A    between atoms: C_22  and  C_24
REMARK                            x       y       z     vdW  Elec       q    Type
REMARK                         _______ _______ _______ _____ _____    ______ ____
ROOT
ATOM      1  N   UNL     1       1.601   7.777  20.471  0.00  0.00    +0.000 N 
ATOM      2  C   UNL     1       1.947   8.155  19.170  0.00  0.00    +0.000 C 
ATOM      3  O   UNL     1       2.064   9.283  18.739  0.00  0.00    +0.000 OA
ATOM      4  C   UNL     1       2.503   6.860  18.524  0.00  0.00    +0.000 C 
ATOM      5  C   UNL     1       3.045   6.314  17.170  0.00  0.00    +0.000 C 
ATOM      6  C   UNL     1       3.874   5.044  17.630  0.00  0.00    +0.000 A 
ATOM      7  C   UNL     1       3.372   4.387  18.773  0.00  0.00    +0.000 A 
ATOM      8  N   UNL     1       4.422   4.481  19.676  0.00  0.00    +0.000 N 
ATOM      9  C   UNL     1       5.585   4.807  18.987  0.00  0.00    +0.000 A 
ATOM     10  C   UNL     1       6.877   5.129  19.422  0.00  0.00    +0.000 A 
ATOM     11  C   UNL     1       7.898   5.082  18.464  0.00  0.00    +0.000 A 
ATOM     12  C   UNL     1       7.624   4.750  17.138  0.00  0.00    +0.000 A 
ATOM     13  C   UNL     1       6.301   4.681  16.687  0.00  0.00    +0.000 A 
ATOM     14  C   UNL     1       5.263   4.783  17.630  0.00  0.00    +0.000 A 
ATOM     15  C   UNL     1       1.896   4.448  19.066  0.00  0.00    +0.000 C 
ATOM     16  C   UNL     1       1.215   3.869  17.745  0.00  0.00    +0.000 C 
ATOM     17  C   UNL     1       1.169   3.626  20.141  0.00  0.00    +0.000 C 
ATOM     18  N   UNL     1       1.698   5.889  19.280  0.00  0.00    +0.000 N 
ATOM     19  C   UNL     1       1.781   6.418  20.580  0.00  0.00    +0.000 C 
ATOM     20  O   UNL     1       2.199   5.837  21.566  0.00  0.00    +0.000 OA
ATOM     21  H   UNL     1       4.329   4.476  20.682  0.00  0.00    +0.000 HD
ENDROOT
BRANCH   1  22
ATOM     22  C   UNL     1       1.764   8.591  21.676  0.00  0.00    +0.000 C 
BRANCH  22  26
ATOM     23  C   UNL     1      -1.287  11.660  22.285  0.00  0.00    +0.000 A 
ATOM     24  C   UNL     1      -1.222  10.567  23.147  0.00  0.00    +0.000 A 
ATOM     25  C   UNL     1      -0.243   9.572  22.969  0.00  0.00    +0.000 A 
ATOM     26  C   UNL     1       0.672   9.636  21.902  0.00  0.00    +0.000 A 
ATOM     27  C   UNL     1       0.577  10.730  21.034  0.00  0.00    +0.000 A 
ATOM     28  C   UNL     1      -0.388  11.737  21.226  0.00  0.00    +0.000 A 
BRANCH  23  30
ATOM     29  C   UNL     1      -3.177  12.227  23.618  0.00  0.00    +0.000 C 
ATOM     30  O   UNL     1      -2.288  12.546  22.547  0.00  0.00    +0.000 OA
ENDBRANCH  23  30
ENDBRANCH  22  26
ENDBRANCH   1  22
TORSDOF 3
ENDMDL
MODEL 4
REMARK VINA RESULT:      -7.3      3.839      6.030
REMARK  Name = 
REMARK  6 active torsions:
REMARK  status: ('A' for Active; 'I' for Inactive)
REMARK    1  A    between atoms: C_1  and  O_2
REMARK    2  A    between atoms: O_2  and  C_3
REMARK    3  A    between atoms: C_6  and  C_7
REMARK    4  A    between atoms: C_7  and  N_8
REMARK    5  A    between atoms: C_22  and  C_23
REMARK    6  A    between atoms: C_22  and  C_24
REMARK                            x       y       z     vdW  Elec       q    Type
REMARK                         _______ _______ _______ _____ _____    ______ ____
ROOT
ATOM      1  N   UNL     1       1.826  12.072  19.942  0.00  0.00    +0.000 N 
ATOM      2  C   UNL     1       2.322  12.328  18.660  0.00  0.00    +0.000 C 
ATOM      3  O   UNL     1       2.240  11.613  17.684  0.00  0.00    +0.000 OA
ATOM      4  C   UNL     1       2.653  13.843  18.668  0.00  0.00    +0.000 C 
ATOM      5  C   UNL     1       3.269  14.956  17.769  0.00  0.00    +0.000 C 
ATOM      6  C   UNL     1       2.683  16.274  18.423  0.00  0.00    +0.000 A 
ATOM      7  C   UNL     1       2.469  16.205  19.815  0.00  0.00    +0.000 A 
ATOM      8  N   UNL     1       1.104  16.423  19.935  0.00  0.00    +0.000 N 
ATOM      9  C   UNL     1       0.627  16.975  18.751  0.00  0.00    +0.000 A 
ATOM     10  C   UNL     1      -0.667  17.275  18.308  0.00  0.00    +0.000 A 
ATOM     11  C   UNL     1      -0.776  18.127  17.201  0.00  0.00    +0.000 A 
ATOM     12  C   UNL     1       0.359  18.631  16.567  0.00  0.00    +0.000 A 
ATOM     13  C   UNL     1       1.625  18.117  16.875  0.00  0.00    +0.000 A 
ATOM     14  C   UNL     1       1.742  17.216  17.948  0.00  0.00    +0.000 A 
ATOM     15  C   UNL     1       3.334  15.292  20.646  0.00  0.00    +0.000 C 
ATOM     16  C   UNL     1       4.821  15.777  20.332  0.00  0.00    +0.000 C 
ATOM     17  C   UNL     1       3.367  15.256  22.181  0.00  0.00    +0.000 C 
ATOM     18  N   UNL     1       2.986  13.975  20.094  0.00  0.00    +0.000 N 
ATOM     19  C   UNL     1       1.958  13.221  20.685  0.00  0.00    +0.000 C 
ATOM     20  O   UNL     1       1.161  13.621  21.516  0.00  0.00    +0.000 OA
ATOM     21  H   UNL     1       0.523  16.088  20.691  0.00  0.00    +0.000 HD
ENDROOT
BRANCH   1  22
ATOM     22  C   UNL     1       0.730  11.160  20.274  0.00  0.00    +0.000 C 
BRANCH  22  26
ATOM     23  C   UNL     1      -2.478  11.025  17.309  0.00  0.00    +0.000 A 
ATOM     24  C   UNL     1      -2.372  12.119  18.167  0.00  0.00    +0.000 A 
ATOM     25  C   UNL     1      -1.343  12.182  19.124  0.00  0.00    +0.000 A 
ATOM     26  C   UNL     1      -0.415  11.132  19.263  0.00  0.00    +0.000 A 
ATOM     27  C   UNL     1      -0.551  10.033  18.407  0.00  0.00    +0.000 A 
ATOM     28  C   UNL     1      -1.567   9.981  17.435  0.00  0.00    +0.000 A 
BRANCH  23  30
ATOM     29  C   UNL     1      -3.281  10.630  15.103  0.00  0.00    +0.000 C 
ATOM     30  O   UNL     1      -3.525  11.070  16.440  0.00  0.00    +0.000 OA
ENDBRANCH  23  30
ENDBRANCH  22  26
ENDBRANCH   1  22
TORSDOF 3
ENDMDL
MODEL 5
REMARK VINA RESULT:      -7.1      4.030      7.774
REMARK  Name = 
REMARK  6 active torsions:
REMARK  status: ('A' for Active; 'I' for Inactive)
REMARK    1  A    between atoms: C_1  and  O_2
REMARK    2  A    between atoms: O_2  and  C_3
REMARK    3  A    between atoms: C_6  and  C_7
REMARK    4  A    between atoms: C_7  and  N_8
REMARK    5  A    between atoms: C_22  and  C_23
REMARK    6  A    between atoms: C_22  and  C_24
REMARK                            x       y       z     vdW  Elec       q    Type
REMARK                         _______ _______ _______ _____ _____    ______ ____
ROOT
ATOM      1  N   UNL     1      -0.796  13.082  22.703  0.00  0.00    +0.000 N 
ATOM      2  C   UNL     1      -0.624  11.703  22.541  0.00  0.00    +0.000 C 
ATOM      3  O   UNL     1      -0.913  10.829  23.331  0.00  0.00    +0.000 OA
ATOM      4  C   UNL     1      -0.347  11.521  21.027  0.00  0.00    +0.000 C 
ATOM      5  C   UNL     1       0.005  10.423  19.980  0.00  0.00    +0.000 C 
ATOM      6  C   UNL     1      -0.450  11.099  18.622  0.00  0.00    +0.000 A 
ATOM      7  C   UNL     1      -0.327  12.504  18.585  0.00  0.00    +0.000 A 
ATOM      8  N   UNL     1      -1.632  12.929  18.375  0.00  0.00    +0.000 N 
ATOM      9  C   UNL     1      -2.391  11.856  17.923  0.00  0.00    +0.000 A 
ATOM     10  C   UNL     1      -3.762  11.712  17.675  0.00  0.00    +0.000 A 
ATOM     11  C   UNL     1      -4.155  10.604  16.914  0.00  0.00    +0.000 A 
ATOM     12  C   UNL     1      -3.218   9.684  16.446  0.00  0.00    +0.000 A 
ATOM     13  C   UNL     1      -1.901   9.718  16.918  0.00  0.00    +0.000 A 
ATOM     14  C   UNL     1      -1.506  10.795  17.731  0.00  0.00    +0.000 A 
ATOM     15  C   UNL     1       0.737  13.169  19.419  0.00  0.00    +0.000 C 
ATOM     16  C   UNL     1       2.092  12.476  18.941  0.00  0.00    +0.000 C 
ATOM     17  C   UNL     1       1.133  14.651  19.335  0.00  0.00    +0.000 C 
ATOM     18  N   UNL     1       0.308  12.814  20.779  0.00  0.00    +0.000 N 
ATOM     19  C   UNL     1      -0.527  13.686  21.497  0.00  0.00    +0.000 C 
ATOM     20  O   UNL     1      -1.117  14.651  21.044  0.00  0.00    +0.000 OA
ATOM     21  H   UNL     1      -2.007  13.824  18.657  0.00  0.00    +0.000 HD
ENDROOT
BRANCH   1  22
ATOM     22  C   UNL     1      -1.753  13.730  23.599  0.00  0.00    +0.000 C 
BRANCH  22  26
ATOM     23  C   UNL     1      -5.891  13.940  22.208  0.00  0.00    +0.000 A 
ATOM     24  C   UNL     1      -5.151  12.775  22.008  0.00  0.00    +0.000 A 
ATOM     25  C   UNL     1      -3.818  12.689  22.454  0.00  0.00    +0.000 A 
ATOM     26  C   UNL     1      -3.190  13.780  23.082  0.00  0.00    +0.000 A 
ATOM     27  C   UNL     1      -3.943  14.947  23.255  0.00  0.00    +0.000 A 
ATOM     28  C   UNL     1      -5.282  15.026  22.829  0.00  0.00    +0.000 A 
BRANCH  23  30
ATOM     29  C   UNL     1      -7.837  12.652  21.734  0.00  0.00    +0.000 C 
ATOM     30  O   UNL     1      -7.160  13.910  21.717  0.00  0.00    +0.000 OA
ENDBRANCH  23  30
ENDBRANCH  22  26
ENDBRANCH   1  22
TORSDOF 3
ENDMDL
MODEL 6
REMARK VINA RESULT:      -7.0      2.634      4.409
REMARK  Name = 
REMARK  6 active torsions:
REMARK  status: ('A' for Active; 'I' for Inactive)
REMARK    1  A    between atoms: C_1  and  O_2
REMARK    2  A    between atoms: O_2  and  C_3
REMARK    3  A    between atoms: C_6  and  C_7
REMARK    4  A    between atoms: C_7  and  N_8
REMARK    5  A    between atoms: C_22  and  C_23
REMARK    6  A    between atoms: C_22  and  C_24
REMARK                            x       y       z     vdW  Elec       q    Type
REMARK                         _______ _______ _______ _____ _____    ______ ____
ROOT
ATOM      1  N   UNL     1       0.433  10.039  19.935  0.00  0.00    +0.000 N 
ATOM      2  C   UNL     1      -0.751  10.270  19.227  0.00  0.00    +0.000 C 
ATOM      3  O   UNL     1      -1.404   9.461  18.604  0.00  0.00    +0.000 OA
ATOM      4  C   UNL     1      -1.230  11.661  19.717  0.00  0.00    +0.000 C 
ATOM      5  C   UNL     1      -2.349  12.716  19.469  0.00  0.00    +0.000 C 
ATOM      6  C   UNL     1      -2.322  13.551  20.815  0.00  0.00    +0.000 A 
ATOM      7  C   UNL     1      -1.056  13.653  21.428  0.00  0.00    +0.000 A 
ATOM      8  N   UNL     1      -1.258  13.061  22.667  0.00  0.00    +0.000 N 
ATOM      9  C   UNL     1      -2.623  12.983  22.916  0.00  0.00    +0.000 A 
ATOM     10  C   UNL     1      -3.359  12.382  23.945  0.00  0.00    +0.000 A 
ATOM     11  C   UNL     1      -4.699  12.770  24.076  0.00  0.00    +0.000 A 
ATOM     12  C   UNL     1      -5.267  13.697  23.203  0.00  0.00    +0.000 A 
ATOM     13  C   UNL     1      -4.585  14.085  22.044  0.00  0.00    +0.000 A 
ATOM     14  C   UNL     1      -3.256  13.656  21.871  0.00  0.00    +0.000 A 
ATOM     15  C   UNL     1       0.181  13.599  20.570  0.00  0.00    +0.000 C 
ATOM     16  C   UNL     1      -0.027  14.779  19.517  0.00  0.00    +0.000 C 
ATOM     17  C   UNL     1       1.609  13.899  21.051  0.00  0.00    +0.000 C 
ATOM     18  N   UNL     1       0.088  12.245  20.005  0.00  0.00    +0.000 N 
ATOM     19  C   UNL     1       0.725  11.174  20.654  0.00  0.00    +0.000 C 
ATOM     20  O   UNL     1       1.208  11.197  21.773  0.00  0.00    +0.000 OA
ATOM     21  H   UNL     1      -0.543  12.613  23.223  0.00  0.00    +0.000 HD
ENDROOT
BRANCH   1  22
ATOM     22  C   UNL     1       0.878   8.752  20.470  0.00  0.00    +0.000 C 
BRANCH  22  26
ATOM     23  C   UNL     1       3.589   6.440  17.938  0.00  0.00    +0.000 A 
ATOM     24  C   UNL     1       3.109   7.672  17.496  0.00  0.00    +0.000 A 
ATOM     25  C   UNL     1       2.239   8.432  18.300  0.00  0.00    +0.000 A 
ATOM     26  C   UNL     1       1.807   7.957  19.553  0.00  0.00    +0.000 A 
ATOM     27  C   UNL     1       2.283   6.709  19.970  0.00  0.00    +0.000 A 
ATOM     28  C   UNL     1       3.170   5.959  19.176  0.00  0.00    +0.000 A 
BRANCH  23  30
ATOM     29  C   UNL     1       5.213   6.596  16.205  0.00  0.00    +0.000 C 
ATOM     30  O   UNL     1       4.407   5.790  17.066  0.00  0.00    +0.000 OA
ENDBRANCH  23  30
ENDBRANCH  22  26
ENDBRANCH   1  22
TORSDOF 3
ENDMDL
MODEL 7
REMARK VINA RESULT:      -6.9      2.584      4.399
REMARK  Name = 
REMARK  6 active torsions:
REMARK  status: ('A' for Active; 'I' for Inactive)
REMARK    1  A    between atoms: C_1  and  O_2
REMARK    2  A    between atoms: O_2  and  C_3
REMARK    3  A    between atoms: C_6  and  C_7
REMARK    4  A    between atoms: C_7  and  N_8
REMARK    5  A    between atoms: C_22  and  C_23
REMARK    6  A    between atoms: C_22  and  C_24
REMARK                            x       y       z     vdW  Elec       q    Type
REMARK                         _______ _______ _______ _____ _____    ______ ____
ROOT
ATOM      1  N   UNL     1       0.422   9.998  19.905  0.00  0.00    +0.000 N 
ATOM      2  C   UNL     1      -0.762  10.240  19.201  0.00  0.00    +0.000 C 
ATOM      3  O   UNL     1      -1.424   9.438  18.577  0.00  0.00    +0.000 OA
ATOM      4  C   UNL     1      -1.229  11.634  19.695  0.00  0.00    +0.000 C 
ATOM      5  C   UNL     1      -2.340  12.698  19.453  0.00  0.00    +0.000 C 
ATOM      6  C   UNL     1      -2.303  13.530  20.801  0.00  0.00    +0.000 A 
ATOM      7  C   UNL     1      -1.034  13.620  21.411  0.00  0.00    +0.000 A 
ATOM      8  N   UNL     1      -1.238  13.026  22.649  0.00  0.00    +0.000 N 
ATOM      9  C   UNL     1      -2.603  12.959  22.901  0.00  0.00    +0.000 A 
ATOM     10  C   UNL     1      -3.341  12.362  23.931  0.00  0.00    +0.000 A 
ATOM     11  C   UNL     1      -4.678  12.760  24.065  0.00  0.00    +0.000 A 
ATOM     12  C   UNL     1      -5.241  13.694  23.196  0.00  0.00    +0.000 A 
ATOM     13  C   UNL     1      -4.558  14.079  22.037  0.00  0.00    +0.000 A 
ATOM     14  C   UNL     1      -3.234  13.640  21.859  0.00  0.00    +0.000 A 
ATOM     15  C   UNL     1       0.200  13.558  20.550  0.00  0.00    +0.000 C 
ATOM     16  C   UNL     1      -0.001  14.742  19.500  0.00  0.00    +0.000 C 
ATOM     17  C   UNL     1       1.631  13.845  21.028  0.00  0.00    +0.000 C 
ATOM     18  N   UNL     1       0.094  12.206  19.982  0.00  0.00    +0.000 N 
ATOM     19  C   UNL     1       0.725  11.129  20.626  0.00  0.00    +0.000 C 
ATOM     20  O   UNL     1       1.210  11.145  21.744  0.00  0.00    +0.000 OA
ATOM     21  H   UNL     1      -0.525  12.571  23.202  0.00  0.00    +0.000 HD
ENDROOT
BRANCH   1  22
ATOM     22  C   UNL     1       0.857   8.706  20.436  0.00  0.00    +0.000 C 
BRANCH  22  26
ATOM     23  C   UNL     1       3.643   6.577  17.827  0.00  0.00    +0.000 A 
ATOM     24  C   UNL     1       3.286   6.025  19.056  0.00  0.00    +0.000 A 
ATOM     25  C   UNL     1       2.387   6.695  19.907  0.00  0.00    +0.000 A 
ATOM     26  C   UNL     1       1.850   7.947  19.556  0.00  0.00    +0.000 A 
ATOM     27  C   UNL     1       2.237   8.494  18.327  0.00  0.00    +0.000 A 
ATOM     28  C   UNL     1       3.119   7.815  17.466  0.00  0.00    +0.000 A 
BRANCH  23  30
ATOM     29  C   UNL     1       4.282   4.445  16.979  0.00  0.00    +0.000 C 
ATOM     30  O   UNL     1       4.533   5.846  17.101  0.00  0.00    +0.000 OA
ENDBRANCH  23  30
ENDBRANCH  22  26
ENDBRANCH   1  22
TORSDOF 3
ENDMDL
MODEL 8
REMARK VINA RESULT:      -6.8      4.930      8.030
REMARK  Name = 
REMARK  6 active torsions:
REMARK  status: ('A' for Active; 'I' for Inactive)
REMARK    1  A    between atoms: C_1  and  O_2
REMARK    2  A    between atoms: O_2  and  C_3
REMARK    3  A    between atoms: C_6  and  C_7
REMARK    4  A    between atoms: C_7  and  N_8
REMARK    5  A    between atoms: C_22  and  C_23
REMARK    6  A    between atoms: C_22  and  C_24
REMARK                            x       y       z     vdW  Elec       q    Type
REMARK                         _______ _______ _______ _____ _____    ______ ____
ROOT
ATOM      1  N   UNL     1      -6.039  14.051  21.574  0.00  0.00    +0.000 N 
ATOM      2  C   UNL     1      -6.056  12.971  22.463  0.00  0.00    +0.000 C 
ATOM      3  O   UNL     1      -6.910  12.116  22.565  0.00  0.00    +0.000 OA
ATOM      4  C   UNL     1      -4.607  12.896  23.010  0.00  0.00    +0.000 C 
ATOM      5  C   UNL     1      -3.734  12.109  24.031  0.00  0.00    +0.000 C 
ATOM      6  C   UNL     1      -2.268  12.374  23.491  0.00  0.00    +0.000 A 
ATOM      7  C   UNL     1      -2.081  13.623  22.864  0.00  0.00    +0.000 A 
ATOM      8  N   UNL     1      -1.697  13.275  21.576  0.00  0.00    +0.000 N 
ATOM      9  C   UNL     1      -1.301  11.943  21.566  0.00  0.00    +0.000 A 
ATOM     10  C   UNL     1      -0.939  11.077  20.526  0.00  0.00    +0.000 A 
ATOM     11  C   UNL     1      -0.276   9.896  20.887  0.00  0.00    +0.000 A 
ATOM     12  C   UNL     1      -0.012   9.599  22.223  0.00  0.00    +0.000 A 
ATOM     13  C   UNL     1      -0.604  10.354  23.243  0.00  0.00    +0.000 A 
ATOM     14  C   UNL     1      -1.321  11.512  22.893  0.00  0.00    +0.000 A 
ATOM     15  C   UNL     1      -2.932  14.792  23.289  0.00  0.00    +0.000 C 
ATOM     16  C   UNL     1      -2.673  14.909  24.858  0.00  0.00    +0.000 C 
ATOM     17  C   UNL     1      -2.716  16.250  22.857  0.00  0.00    +0.000 C 
ATOM     18  N   UNL     1      -4.276  14.326  22.919  0.00  0.00    +0.000 N 
ATOM     19  C   UNL     1      -4.803  14.649  21.657  0.00  0.00    +0.000 C 
ATOM     20  O   UNL     1      -4.186  15.127  20.722  0.00  0.00    +0.000 OA
ATOM     21  H   UNL     1      -1.836  13.843  20.752  0.00  0.00    +0.000 HD
ENDROOT
BRANCH   1  22
ATOM     22  C   UNL     1      -6.756  14.128  20.301  0.00  0.00    +0.000 C 
BRANCH  22  26
ATOM     23  C   UNL     1      -5.161  11.721  17.020  0.00  0.00    +0.000 A 
ATOM     24  C   UNL     1      -4.799  11.428  18.334  0.00  0.00    +0.000 A 
ATOM     25  C   UNL     1      -5.307  12.190  19.403  0.00  0.00    +0.000 A 
ATOM     26  C   UNL     1      -6.165  13.282  19.174  0.00  0.00    +0.000 A 
ATOM     27  C   UNL     1      -6.500  13.573  17.847  0.00  0.00    +0.000 A 
ATOM     28  C   UNL     1      -6.010  12.797  16.780  0.00  0.00    +0.000 A 
BRANCH  23  30
ATOM     29  C   UNL     1      -3.181  11.045  15.884  0.00  0.00    +0.000 C 
ATOM     30  O   UNL     1      -4.592  10.927  16.072  0.00  0.00    +0.000 OA
ENDBRANCH  23  30
ENDBRANCH  22  26
ENDBRANCH   1  22
TORSDOF 3
ENDMDL
MODEL 9
REMARK VINA RESULT:      -6.8      1.367      1.590
REMARK  Name = 
REMARK  6 active torsions:
REMARK  status: ('A' for Active; 'I' for Inactive)
REMARK    1  A    between atoms: C_1  and  O_2
REMARK    2  A    between atoms: O_2  and  C_3
REMARK    3  A    between atoms: C_6  and  C_7
REMARK    4  A    between atoms: C_7  and  N_8
REMARK    5  A    between atoms: C_22  and  C_23
REMARK    6  A    between atoms: C_22  and  C_24
REMARK                            x       y       z     vdW  Elec       q    Type
REMARK                         _______ _______ _______ _____ _____    ______ ____
ROOT
ATOM      1  N   UNL     1       1.487   8.430  19.299  0.00  0.00    +0.000 N 
ATOM      2  C   UNL     1       1.259   8.705  20.651  0.00  0.00    +0.000 C 
ATOM      3  O   UNL     1       1.730   8.128  21.608  0.00  0.00    +0.000 OA
ATOM      4  C   UNL     1       0.595  10.106  20.656  0.00  0.00    +0.000 C 
ATOM      5  C   UNL     1      -0.034  11.149  21.627  0.00  0.00    +0.000 C 
ATOM      6  C   UNL     1       0.063  12.488  20.785  0.00  0.00    +0.000 A 
ATOM      7  C   UNL     1      -0.044  12.323  19.389  0.00  0.00    +0.000 A 
ATOM      8  N   UNL     1       1.167  12.813  18.920  0.00  0.00    +0.000 N 
ATOM      9  C   UNL     1       1.766  13.571  19.919  0.00  0.00    +0.000 A 
ATOM     10  C   UNL     1       3.023  14.182  20.009  0.00  0.00    +0.000 A 
ATOM     11  C   UNL     1       3.188  15.147  21.013  0.00  0.00    +0.000 A 
ATOM     12  C   UNL     1       2.148  15.461  21.886  0.00  0.00    +0.000 A 
ATOM     13  C   UNL     1       0.999  14.662  21.930  0.00  0.00    +0.000 A 
ATOM     14  C   UNL     1       0.846  13.652  20.964  0.00  0.00    +0.000 A 
ATOM     15  C   UNL     1      -0.845  11.168  18.846  0.00  0.00    +0.000 C 
ATOM     16  C   UNL     1      -2.287  11.356  19.499  0.00  0.00    +0.000 C 
ATOM     17  C   UNL     1      -1.227  10.969  17.371  0.00  0.00    +0.000 C 
ATOM     18  N   UNL     1      -0.083  10.018  19.354  0.00  0.00    +0.000 N 
ATOM     19  C   UNL     1       0.923   9.443  18.560  0.00  0.00    +0.000 C 
ATOM     20  O   UNL     1       1.390   9.916  17.538  0.00  0.00    +0.000 OA
ATOM     21  H   UNL     1       1.616  12.533  18.059  0.00  0.00    +0.000 HD
ENDROOT
BRANCH   1  22
ATOM     22  C   UNL     1       2.655   7.742  18.746  0.00  0.00    +0.000 C 
BRANCH  22  26
ATOM     23  C   UNL     1       2.358   3.383  18.855  0.00  0.00    +0.000 A 
ATOM     24  C   UNL     1       3.144   4.048  19.795  0.00  0.00    +0.000 A 
ATOM     25  C   UNL     1       3.247   5.451  19.778  0.00  0.00    +0.000 A 
ATOM     26  C   UNL     1       2.588   6.216  18.797  0.00  0.00    +0.000 A 
ATOM     27  C   UNL     1       1.822   5.529  17.849  0.00  0.00    +0.000 A 
ATOM     28  C   UNL     1       1.701   4.127  17.880  0.00  0.00    +0.000 A 
BRANCH  23  30
ATOM     29  C   UNL     1       3.548   1.337  18.593  0.00  0.00    +0.000 C 
ATOM     30  O   UNL     1       2.352   2.026  18.961  0.00  0.00    +0.000 OA
ENDBRANCH  23  30
ENDBRANCH  22  26
ENDBRANCH   1  22
TORSDOF 3
ENDMDL
