MODEL 1
REMARK VINA RESULT:      -8.0      0.000      0.000
REMARK  Name = 
REMARK  11 active torsions:
REMARK  status: ('A' for Active; 'I' for Inactive)
REMARK    1  A    between atoms: C_1  and  C_2
REMARK    2  A    between atoms: C_2  and  C_3
REMARK    3  A    between atoms: C_6  and  N_7
REMARK    4  A    between atoms: N_7  and  C_8
REMARK    5  A    between atoms: C_8  and  C_9
REMARK    6  A    between atoms: N_11  and  C_12
REMARK    7  A    between atoms: C_12  and  C_13
REMARK    8  A    between atoms: C_12  and  C_14
REMARK    9  A    between atoms: C_15  and  C_17
REMARK   10  A    between atoms: C_17  and  C_18
REMARK   11  A    between atoms: C_18  and  C_19
REMARK                            x       y       z     vdW  Elec       q    Type
REMARK                         _______ _______ _______ _____ _____    ______ ____
ROOT
ATOM      1  N   UNL     1       5.918   4.747  17.059  0.00  0.00    +0.000 N 
ATOM      2  C   UNL     1       6.285   5.893  17.771  0.00  0.00    +0.000 C 
ATOM      3  O   UNL     1       5.566   6.403  18.644  0.00  0.00    +0.000 OA
ENDROOT
BRANCH   1   7
ATOM      4  C   UNL     1       2.443   2.801  18.596  0.00  0.00    +0.000 A 
ATOM      5  C   UNL     1       2.392   3.581  17.430  0.00  0.00    +0.000 A 
ATOM      6  C   UNL     1       3.556   4.139  16.880  0.00  0.00    +0.000 A 
ATOM      7  C   UNL     1       4.788   3.983  17.514  0.00  0.00    +0.000 A 
ATOM      8  C   UNL     1       4.851   3.151  18.643  0.00  0.00    +0.000 A 
ATOM      9  C   UNL     1       3.693   2.547  19.170  0.00  0.00    +0.000 A 
BRANCH   4  11
ATOM     10  C   UNL     1       0.616   3.196  20.317  0.00  0.00    +0.000 C 
ATOM     11  C   UNL     1       1.175   2.282  19.237  0.00  0.00    +0.000 C 
ENDBRANCH   4  11
ENDBRANCH   1   7
BRANCH   1  12
ATOM     12  C   UNL     1       6.838   4.075  16.116  0.00  0.00    +0.000 C 
BRANCH  12  13
ATOM     13  C   UNL     1       6.663   4.390  14.619  0.00  0.00    +0.000 C 
ATOM     14  O   UNL     1       6.912   5.513  14.181  0.00  0.00    +0.000 OA
ATOM     15  N   UNL     1       6.348   3.330  13.793  0.00  0.00    +0.000 N 
ATOM     16  H   UNL     1       6.038   2.466  14.226  0.00  0.00    +0.000 HD
BRANCH  15  17
ATOM     17  C   UNL     1       6.150   3.511  12.353  0.00  0.00    +0.000 C 
ATOM     18  C   UNL     1       6.969   2.500  11.555  0.00  0.00    +0.000 C 
ATOM     19  C   UNL     1       4.674   3.407  11.974  0.00  0.00    +0.000 C 
ENDBRANCH  15  17
ENDBRANCH  12  13
ENDBRANCH   1  12
BRANCH   2  20
ATOM     20  C   UNL     1       7.565   6.611  17.370  0.00  0.00    +0.000 C 
BRANCH  20  21
ATOM     21  C   UNL     1       8.152   7.434  18.518  0.00  0.00    +0.000 C 
BRANCH  21  22
ATOM     22  C   UNL     1       8.227   8.897  18.133  0.00  0.00    +0.000 C 
ATOM     23  O   UNL     1       7.563   9.308  17.183  0.00  0.00    +0.000 OA
ATOM     24  N   UNL     1       9.143   9.604  18.875  0.00  0.00    +0.000 N 
ATOM     25  C   UNL     1       9.404  10.918  18.618  0.00  0.00    +0.000 A 
ATOM     26  N   UNL     1       8.712  11.764  17.904  0.00  0.00    +0.000 NA
ATOM     27  C   UNL     1       9.377  12.968  17.848  0.00  0.00    +0.000 A 
ATOM     28  C   UNL     1      10.579  13.012  18.518  0.00  0.00    +0.000 A 
ATOM     29  S   UNL     1      10.844  11.514  19.314  0.00  0.00    +0.000 S 
ATOM     30  H   UNL     1       9.818   9.103  19.449  0.00  0.00    +0.000 HD
ENDBRANCH  21  22
ENDBRANCH  20  21
ENDBRANCH   2  20
TORSDOF 8
ENDMDL
MODEL 2
REMARK VINA RESULT:      -7.8      1.123      1.227
REMARK  Name = 
REMARK  11 active torsions:
REMARK  status: ('A' for Active; 'I' for Inactive)
REMARK    1  A    between atoms: C_1  and  C_2
REMARK    2  A    between atoms: C_2  and  C_3
REMARK    3  A    between atoms: C_6  and  N_7
REMARK    4  A    between atoms: N_7  and  C_8
REMARK    5  A    between atoms: C_8  and  C_9
REMARK    6  A    between atoms: N_11  and  C_12
REMARK    7  A    between atoms: C_12  and  C_13
REMARK    8  A    between atoms: C_12  and  C_14
REMARK    9  A    between atoms: C_15  and  C_17
REMARK   10  A    between atoms: C_17  and  C_18
REMARK   11  A    between atoms: C_18  and  C_19
REMARK                            x       y       z     vdW  Elec       q    Type
REMARK                         _______ _______ _______ _____ _____    ______ ____
ROOT
ATOM      1  N   UNL     1       5.706   4.803  17.416  0.00  0.00    +0.000 N 
ATOM      2  C   UNL     1       6.268   5.865  18.131  0.00  0.00    +0.000 C 
ATOM      3  O   UNL     1       5.710   6.391  19.106  0.00  0.00    +0.000 OA
ENDROOT
BRANCH   1   7
ATOM      4  C   UNL     1       2.244   3.121  19.261  0.00  0.00    +0.000 A 
ATOM      5  C   UNL     1       2.143   3.961  18.141  0.00  0.00    +0.000 A 
ATOM      6  C   UNL     1       3.289   4.433  17.484  0.00  0.00    +0.000 A 
ATOM      7  C   UNL     1       4.562   4.128  17.966  0.00  0.00    +0.000 A 
ATOM      8  C   UNL     1       4.665   3.236  19.045  0.00  0.00    +0.000 A 
ATOM      9  C   UNL     1       3.517   2.718  19.676  0.00  0.00    +0.000 A 
BRANCH   4  11
ATOM     10  C   UNL     1       1.187   2.699  21.532  0.00  0.00    +0.000 C 
ATOM     11  C   UNL     1       1.009   2.692  20.022  0.00  0.00    +0.000 C 
ENDBRANCH   4  11
ENDBRANCH   1   7
BRANCH   1  12
ATOM     12  C   UNL     1       6.438   4.100  16.340  0.00  0.00    +0.000 C 
BRANCH  12  13
ATOM     13  C   UNL     1       6.101   4.490  14.889  0.00  0.00    +0.000 C 
ATOM     14  O   UNL     1       5.755   5.638  14.612  0.00  0.00    +0.000 OA
ATOM     15  N   UNL     1       6.333   3.536  13.919  0.00  0.00    +0.000 N 
ATOM     16  H   UNL     1       6.498   2.581  14.220  0.00  0.00    +0.000 HD
BRANCH  15  17
ATOM     17  C   UNL     1       6.042   3.792  12.506  0.00  0.00    +0.000 C 
ATOM     18  C   UNL     1       7.308   4.186  11.748  0.00  0.00    +0.000 C 
ATOM     19  C   UNL     1       5.388   2.581  11.842  0.00  0.00    +0.000 C 
ENDBRANCH  15  17
ENDBRANCH  12  13
ENDBRANCH   1  12
BRANCH   2  20
ATOM     20  C   UNL     1       7.562   6.476  17.614  0.00  0.00    +0.000 C 
BRANCH  20  21
ATOM     21  C   UNL     1       7.402   7.954  17.254  0.00  0.00    +0.000 C 
BRANCH  21  22
ATOM     22  C   UNL     1       8.327   8.805  18.098  0.00  0.00    +0.000 C 
ATOM     23  O   UNL     1       8.839   8.326  19.107  0.00  0.00    +0.000 OA
ATOM     24  N   UNL     1       8.415  10.105  17.659  0.00  0.00    +0.000 N 
ATOM     25  C   UNL     1       9.141  11.038  18.339  0.00  0.00    +0.000 A 
ATOM     26  N   UNL     1      10.042  10.855  19.266  0.00  0.00    +0.000 NA
ATOM     27  C   UNL     1      10.471  12.077  19.735  0.00  0.00    +0.000 A 
ATOM     28  C   UNL     1       9.876  13.176  19.156  0.00  0.00    +0.000 A 
ATOM     29  S   UNL     1       8.798  12.658  17.924  0.00  0.00    +0.000 S 
ATOM     30  H   UNL     1       7.745  10.450  16.975  0.00  0.00    +0.000 HD
ENDBRANCH  21  22
ENDBRANCH  20  21
ENDBRANCH   2  20
TORSDOF 8
ENDMDL
MODEL 3
REMARK VINA RESULT:      -7.7      1.705      5.043
REMARK  Name = 
REMARK  11 active torsions:
REMARK  status: ('A' for Active; 'I' for Inactive)
REMARK    1  A    between atoms: C_1  and  C_2
REMARK    2  A    between atoms: C_2  and  C_3
REMARK    3  A    between atoms: C_6  and  N_7
REMARK    4  A    between atoms: N_7  and  C_8
REMARK    5  A    between atoms: C_8  and  C_9
REMARK    6  A    between atoms: N_11  and  C_12
REMARK    7  A    between atoms: C_12  and  C_13
REMARK    8  A    between atoms: C_12  and  C_14
REMARK    9  A    between atoms: C_15  and  C_17
REMARK   10  A    between atoms: C_17  and  C_18
REMARK   11  A    between atoms: C_18  and  C_19
REMARK                            x       y       z     vdW  Elec       q    Type
REMARK                         _______ _______ _______ _____ _____    ______ ____
ROOT
ATOM      1  N   UNL     1       6.101   5.613  16.105  0.00  0.00    +0.000 N 
ATOM      2  C   UNL     1       7.074   5.356  17.075  0.00  0.00    +0.000 C 
ATOM      3  O   UNL     1       7.948   4.484  16.939  0.00  0.00    +0.000 OA
ENDROOT
BRANCH   1   7
ATOM      4  C   UNL     1       6.716   3.570  12.409  0.00  0.00    +0.000 A 
ATOM      5  C   UNL     1       5.599   3.304  13.217  0.00  0.00    +0.000 A 
ATOM      6  C   UNL     1       5.355   4.046  14.382  0.00  0.00    +0.000 A 
ATOM      7  C   UNL     1       6.253   5.029  14.802  0.00  0.00    +0.000 A 
ATOM      8  C   UNL     1       7.334   5.339  13.961  0.00  0.00    +0.000 A 
ATOM      9  C   UNL     1       7.555   4.631  12.764  0.00  0.00    +0.000 A 
BRANCH   4  11
ATOM     10  C   UNL     1       6.223   1.414  11.158  0.00  0.00    +0.000 C 
ATOM     11  C   UNL     1       7.026   2.705  11.207  0.00  0.00    +0.000 C 
ENDBRANCH   4  11
ENDBRANCH   1   7
BRANCH   1  12
ATOM     12  C   UNL     1       5.150   6.740  16.222  0.00  0.00    +0.000 C 
BRANCH  12  13
ATOM     13  C   UNL     1       4.014   6.597  17.253  0.00  0.00    +0.000 C 
ATOM     14  O   UNL     1       3.462   7.592  17.720  0.00  0.00    +0.000 OA
ATOM     15  N   UNL     1       3.570   5.316  17.515  0.00  0.00    +0.000 N 
ATOM     16  H   UNL     1       4.141   4.540  17.197  0.00  0.00    +0.000 HD
BRANCH  15  17
ATOM     17  C   UNL     1       2.501   5.058  18.482  0.00  0.00    +0.000 C 
ATOM     18  C   UNL     1       1.493   4.052  17.931  0.00  0.00    +0.000 C 
ATOM     19  C   UNL     1       3.060   4.564  19.815  0.00  0.00    +0.000 C 
ENDBRANCH  15  17
ENDBRANCH  12  13
ENDBRANCH   1  12
BRANCH   2  20
ATOM     20  C   UNL     1       6.983   6.094  18.403  0.00  0.00    +0.000 C 
BRANCH  20  21
ATOM     21  C   UNL     1       8.290   6.802  18.764  0.00  0.00    +0.000 C 
BRANCH  21  22
ATOM     22  C   UNL     1       8.269   8.231  18.267  0.00  0.00    +0.000 C 
ATOM     23  O   UNL     1       7.750   8.489  17.182  0.00  0.00    +0.000 OA
ATOM     24  N   UNL     1       8.948   9.099  19.089  0.00  0.00    +0.000 N 
ATOM     25  C   UNL     1       9.102  10.415  18.764  0.00  0.00    +0.000 A 
ATOM     26  N   UNL     1       8.462  11.114  17.867  0.00  0.00    +0.000 NA
ATOM     27  C   UNL     1       8.987  12.387  17.818  0.00  0.00    +0.000 A 
ATOM     28  C   UNL     1      10.033  12.629  18.680  0.00  0.00    +0.000 A 
ATOM     29  S   UNL     1      10.314  11.235  19.643  0.00  0.00    +0.000 S 
ATOM     30  H   UNL     1       9.557   8.729  19.815  0.00  0.00    +0.000 HD
ENDBRANCH  21  22
ENDBRANCH  20  21
ENDBRANCH   2  20
TORSDOF 8
ENDMDL
MODEL 4
REMARK VINA RESULT:      -7.6      1.479      1.690
REMARK  Name = 
REMARK  11 active torsions:
REMARK  status: ('A' for Active; 'I' for Inactive)
REMARK    1  A    between atoms: C_1  and  C_2
REMARK    2  A    between atoms: C_2  and  C_3
REMARK    3  A    between atoms: C_6  and  N_7
REMARK    4  A    between atoms: N_7  and  C_8
REMARK    5  A    between atoms: C_8  and  C_9
REMARK    6  A    between atoms: N_11  and  C_12
REMARK    7  A    between atoms: C_12  and  C_13
REMARK    8  A    between atoms: C_12  and  C_14
REMARK    9  A    between atoms: C_15  and  C_17
REMARK   10  A    between atoms: C_17  and  C_18
REMARK   11  A    between atoms: C_18  and  C_19
REMARK                            x       y       z     vdW  Elec       q    Type
REMARK                         _______ _______ _______ _____ _____    ______ ____
ROOT
ATOM      1  N   UNL     1       5.280   5.608  17.604  0.00  0.00    +0.000 N 
ATOM      2  C   UNL     1       6.446   5.825  18.345  0.00  0.00    +0.000 C 
ATOM      3  O   UNL     1       6.526   5.587  19.560  0.00  0.00    +0.000 OA
ENDROOT
BRANCH   1   7
ATOM      4  C   UNL     1       2.076   3.663  19.646  0.00  0.00    +0.000 A 
ATOM      5  C   UNL     1       1.837   4.665  18.693  0.00  0.00    +0.000 A 
ATOM      6  C   UNL     1       2.890   5.232  17.958  0.00  0.00    +0.000 A 
ATOM      7  C   UNL     1       4.211   4.857  18.202  0.00  0.00    +0.000 A 
ATOM      8  C   UNL     1       4.445   3.810  19.107  0.00  0.00    +0.000 A 
ATOM      9  C   UNL     1       3.386   3.201  19.810  0.00  0.00    +0.000 A 
BRANCH   4  11
ATOM     10  C   UNL     1       1.422   2.459  21.786  0.00  0.00    +0.000 C 
ATOM     11  C   UNL     1       0.951   3.122  20.501  0.00  0.00    +0.000 C 
ENDBRANCH   4  11
ENDBRANCH   1   7
BRANCH   1  12
ATOM     12  C   UNL     1       5.237   5.771  16.135  0.00  0.00    +0.000 C 
BRANCH  12  13
ATOM     13  C   UNL     1       5.722   4.585  15.281  0.00  0.00    +0.000 C 
ATOM     14  O   UNL     1       5.889   3.476  15.786  0.00  0.00    +0.000 OA
ATOM     15  N   UNL     1       5.827   4.800  13.921  0.00  0.00    +0.000 N 
ATOM     16  H   UNL     1       5.795   5.757  13.587  0.00  0.00    +0.000 HD
BRANCH  15  17
ATOM     17  C   UNL     1       6.285   3.747  13.012  0.00  0.00    +0.000 C 
ATOM     18  C   UNL     1       5.115   3.137  12.244  0.00  0.00    +0.000 C 
ATOM     19  C   UNL     1       7.337   4.271  12.035  0.00  0.00    +0.000 C 
ENDBRANCH  15  17
ENDBRANCH  12  13
ENDBRANCH   1  12
BRANCH   2  20
ATOM     20  C   UNL     1       7.626   6.493  17.653  0.00  0.00    +0.000 C 
BRANCH  20  21
ATOM     21  C   UNL     1       7.365   7.971  17.362  0.00  0.00    +0.000 C 
BRANCH  21  22
ATOM     22  C   UNL     1       8.322   8.840  18.151  0.00  0.00    +0.000 C 
ATOM     23  O   UNL     1       8.867   8.384  19.154  0.00  0.00    +0.000 OA
ATOM     24  N   UNL     1       8.398  10.128  17.676  0.00  0.00    +0.000 N 
ATOM     25  C   UNL     1       9.150  11.076  18.307  0.00  0.00    +0.000 A 
ATOM     26  N   UNL     1      10.081  10.913  19.207  0.00  0.00    +0.000 NA
ATOM     27  C   UNL     1      10.530  12.144  19.630  0.00  0.00    +0.000 A 
ATOM     28  C   UNL     1       9.918  13.230  19.044  0.00  0.00    +0.000 A 
ATOM     29  S   UNL     1       8.797  12.685  17.863  0.00  0.00    +0.000 S 
ATOM     30  H   UNL     1       7.706  10.458  17.007  0.00  0.00    +0.000 HD
ENDBRANCH  21  22
ENDBRANCH  20  21
ENDBRANCH   2  20
TORSDOF 8
ENDMDL
MODEL 5
REMARK VINA RESULT:      -7.4      4.578      7.397
REMARK  Name = 
REMARK  11 active torsions:
REMARK  status: ('A' for Active; 'I' for Inactive)
REMARK    1  A    between atoms: C_1  and  C_2
REMARK    2  A    between atoms: C_2  and  C_3
REMARK    3  A    between atoms: C_6  and  N_7
REMARK    4  A    between atoms: N_7  and  C_8
REMARK    5  A    between atoms: C_8  and  C_9
REMARK    6  A    between atoms: N_11  and  C_12
REMARK    7  A    between atoms: C_12  and  C_13
REMARK    8  A    between atoms: C_12  and  C_14
REMARK    9  A    between atoms: C_15  and  C_17
REMARK   10  A    between atoms: C_17  and  C_18
REMARK   11  A    between atoms: C_18  and  C_19
REMARK                            x       y       z     vdW  Elec       q    Type
REMARK                         _______ _______ _______ _____ _____    ______ ____
ROOT
ATOM      1  N   UNL     1       5.090   5.584  17.899  0.00  0.00    +0.000 N 
ATOM      2  C   UNL     1       4.130   6.598  17.825  0.00  0.00    +0.000 C 
ATOM      3  O   UNL     1       3.839   7.174  16.765  0.00  0.00    +0.000 OA
ENDROOT
BRANCH   1   7
ATOM      4  C   UNL     1       6.444   4.210  14.091  0.00  0.00    +0.000 A 
ATOM      5  C   UNL     1       7.232   5.055  14.888  0.00  0.00    +0.000 A 
ATOM      6  C   UNL     1       6.820   5.425  16.178  0.00  0.00    +0.000 A 
ATOM      7  C   UNL     1       5.586   5.011  16.677  0.00  0.00    +0.000 A 
ATOM      8  C   UNL     1       4.828   4.114  15.908  0.00  0.00    +0.000 A 
ATOM      9  C   UNL     1       5.261   3.699  14.633  0.00  0.00    +0.000 A 
BRANCH   4  11
ATOM     10  C   UNL     1       5.892   2.942  11.960  0.00  0.00    +0.000 C 
ATOM     11  C   UNL     1       6.847   3.891  12.668  0.00  0.00    +0.000 C 
ENDBRANCH   4  11
ENDBRANCH   1   7
BRANCH   1  12
ATOM     12  C   UNL     1       5.334   4.817  19.139  0.00  0.00    +0.000 C 
BRANCH  12  13
ATOM     13  C   UNL     1       4.416   3.610  19.412  0.00  0.00    +0.000 C 
ATOM     14  O   UNL     1       4.893   2.515  19.706  0.00  0.00    +0.000 OA
ATOM     15  N   UNL     1       3.058   3.855  19.437  0.00  0.00    +0.000 N 
ATOM     16  H   UNL     1       2.727   4.740  19.068  0.00  0.00    +0.000 HD
BRANCH  15  17
ATOM     17  C   UNL     1       2.090   2.783  19.679  0.00  0.00    +0.000 C 
ATOM     18  C   UNL     1       1.372   2.981  21.011  0.00  0.00    +0.000 C 
ATOM     19  C   UNL     1       1.072   2.683  18.544  0.00  0.00    +0.000 C 
ENDBRANCH  15  17
ENDBRANCH  12  13
ENDBRANCH   1  12
BRANCH   2  20
ATOM     20  C   UNL     1       3.506   7.095  19.121  0.00  0.00    +0.000 C 
BRANCH  20  21
ATOM     21  C   UNL     1       2.119   7.701  18.901  0.00  0.00    +0.000 C 
BRANCH  21  22
ATOM     22  C   UNL     1       1.475   8.038  20.228  0.00  0.00    +0.000 C 
ATOM     23  O   UNL     1       1.302   7.151  21.061  0.00  0.00    +0.000 OA
ATOM     24  N   UNL     1       1.058   9.346  20.310  0.00  0.00    +0.000 N 
ATOM     25  C   UNL     1       0.386   9.812  21.402  0.00  0.00    +0.000 A 
ATOM     26  N   UNL     1       0.274   9.270  22.584  0.00  0.00    +0.000 NA
ATOM     27  C   UNL     1      -0.557  10.043  23.365  0.00  0.00    +0.000 A 
ATOM     28  C   UNL     1      -1.072  11.163  22.752  0.00  0.00    +0.000 A 
ATOM     29  S   UNL     1      -0.427  11.294  21.166  0.00  0.00    +0.000 S 
ATOM     30  H   UNL     1       1.017   9.913  19.466  0.00  0.00    +0.000 HD
ENDBRANCH  21  22
ENDBRANCH  20  21
ENDBRANCH   2  20
TORSDOF 8
ENDMDL
MODEL 6
REMARK VINA RESULT:      -7.2      1.089      1.308
REMARK  Name = 
REMARK  11 active torsions:
REMARK  status: ('A' for Active; 'I' for Inactive)
REMARK    1  A    between atoms: C_1  and  C_2
REMARK    2  A    between atoms: C_2  and  C_3
REMARK    3  A    between atoms: C_6  and  N_7
REMARK    4  A    between atoms: N_7  and  C_8
REMARK    5  A    between atoms: C_8  and  C_9
REMARK    6  A    between atoms: N_11  and  C_12
REMARK    7  A    between atoms: C_12  and  C_13
REMARK    8  A    between atoms: C_12  and  C_14
REMARK    9  A    between atoms: C_15  and  C_17
REMARK   10  A    between atoms: C_17  and  C_18
REMARK   11  A    between atoms: C_18  and  C_19
REMARK                            x       y       z     vdW  Elec       q    Type
REMARK                         _______ _______ _______ _____ _____    ______ ____
ROOT
ATOM      1  N   UNL     1       5.657   5.788  17.627  0.00  0.00    +0.000 N 
ATOM      2  C   UNL     1       6.741   5.950  18.496  0.00  0.00    +0.000 C 
ATOM      3  O   UNL     1       6.717   5.577  19.679  0.00  0.00    +0.000 OA
ENDROOT
BRANCH   1   7
ATOM      4  C   UNL     1       2.503   3.382  19.202  0.00  0.00    +0.000 A 
ATOM      5  C   UNL     1       2.341   4.761  18.999  0.00  0.00    +0.000 A 
ATOM      6  C   UNL     1       3.349   5.527  18.394  0.00  0.00    +0.000 A 
ATOM      7  C   UNL     1       4.565   4.947  18.033  0.00  0.00    +0.000 A 
ATOM      8  C   UNL     1       4.703   3.557  18.176  0.00  0.00    +0.000 A 
ATOM      9  C   UNL     1       3.673   2.775  18.736  0.00  0.00    +0.000 A 
BRANCH   4  11
ATOM     10  C   UNL     1       0.378   1.999  19.035  0.00  0.00    +0.000 C 
ATOM     11  C   UNL     1       1.454   2.579  19.940  0.00  0.00    +0.000 C 
ENDBRANCH   4  11
ENDBRANCH   1   7
BRANCH   1  12
ATOM     12  C   UNL     1       5.744   6.116  16.188  0.00  0.00    +0.000 C 
BRANCH  12  13
ATOM     13  C   UNL     1       6.402   5.072  15.267  0.00  0.00    +0.000 C 
ATOM     14  O   UNL     1       7.379   4.429  15.647  0.00  0.00    +0.000 OA
ATOM     15  N   UNL     1       5.766   4.811  14.070  0.00  0.00    +0.000 N 
ATOM     16  H   UNL     1       5.045   5.454  13.764  0.00  0.00    +0.000 HD
BRANCH  15  17
ATOM     17  C   UNL     1       6.304   3.842  13.111  0.00  0.00    +0.000 C 
ATOM     18  C   UNL     1       5.189   3.213  12.281  0.00  0.00    +0.000 C 
ATOM     19  C   UNL     1       7.343   4.484  12.193  0.00  0.00    +0.000 C 
ENDBRANCH  15  17
ENDBRANCH  12  13
ENDBRANCH   1  12
BRANCH   2  20
ATOM     20  C   UNL     1       7.954   6.723  17.999  0.00  0.00    +0.000 C 
BRANCH  20  21
ATOM     21  C   UNL     1       8.500   7.686  19.054  0.00  0.00    +0.000 C 
BRANCH  21  22
ATOM     22  C   UNL     1       8.504   9.103  18.522  0.00  0.00    +0.000 C 
ATOM     23  O   UNL     1       7.800   9.389  17.555  0.00  0.00    +0.000 OA
ATOM     24  N   UNL     1       9.409   9.917  19.161  0.00  0.00    +0.000 N 
ATOM     25  C   UNL     1       9.608  11.207  18.765  0.00  0.00    +0.000 A 
ATOM     26  N   UNL     1       8.863  11.948  17.991  0.00  0.00    +0.000 NA
ATOM     27  C   UNL     1       9.476  13.166  17.793  0.00  0.00    +0.000 A 
ATOM     28  C   UNL     1      10.692  13.324  18.420  0.00  0.00    +0.000 A 
ATOM     29  S   UNL     1      11.040  11.926  19.354  0.00  0.00    +0.000 S 
ATOM     30  H   UNL     1      10.118   9.504  19.762  0.00  0.00    +0.000 HD
ENDBRANCH  21  22
ENDBRANCH  20  21
ENDBRANCH   2  20
TORSDOF 8
ENDMDL
MODEL 7
REMARK VINA RESULT:      -7.2      0.968      1.288
REMARK  Name = 
REMARK  11 active torsions:
REMARK  status: ('A' for Active; 'I' for Inactive)
REMARK    1  A    between atoms: C_1  and  C_2
REMARK    2  A    between atoms: C_2  and  C_3
REMARK    3  A    between atoms: C_6  and  N_7
REMARK    4  A    between atoms: N_7  and  C_8
REMARK    5  A    between atoms: C_8  and  C_9
REMARK    6  A    between atoms: N_11  and  C_12
REMARK    7  A    between atoms: C_12  and  C_13
REMARK    8  A    between atoms: C_12  and  C_14
REMARK    9  A    between atoms: C_15  and  C_17
REMARK   10  A    between atoms: C_17  and  C_18
REMARK   11  A    between atoms: C_18  and  C_19
REMARK                            x       y       z     vdW  Elec       q    Type
REMARK                         _______ _______ _______ _____ _____    ______ ____
ROOT
ATOM      1  N   UNL     1       6.062   4.998  17.051  0.00  0.00    +0.000 N 
ATOM      2  C   UNL     1       6.299   6.199  17.727  0.00  0.00    +0.000 C 
ATOM      3  O   UNL     1       5.498   6.683  18.543  0.00  0.00    +0.000 OA
ENDROOT
BRANCH   1   7
ATOM      4  C   UNL     1       2.664   2.843  18.477  0.00  0.00    +0.000 A 
ATOM      5  C   UNL     1       2.655   3.484  17.229  0.00  0.00    +0.000 A 
ATOM      6  C   UNL     1       3.807   4.109  16.727  0.00  0.00    +0.000 A 
ATOM      7  C   UNL     1       4.975   4.164  17.486  0.00  0.00    +0.000 A 
ATOM      8  C   UNL     1       5.005   3.468  18.705  0.00  0.00    +0.000 A 
ATOM      9  C   UNL     1       3.867   2.795  19.190  0.00  0.00    +0.000 A 
BRANCH   4  11
ATOM     10  C   UNL     1       0.757   3.114  20.134  0.00  0.00    +0.000 C 
ATOM     11  C   UNL     1       1.397   2.254  19.055  0.00  0.00    +0.000 C 
ENDBRANCH   4  11
ENDBRANCH   1   7
BRANCH   1  12
ATOM     12  C   UNL     1       7.079   4.367  16.184  0.00  0.00    +0.000 C 
BRANCH  12  13
ATOM     13  C   UNL     1       6.875   4.482  14.662  0.00  0.00    +0.000 C 
ATOM     14  O   UNL     1       7.192   5.508  14.062  0.00  0.00    +0.000 OA
ATOM     15  N   UNL     1       6.449   3.344  14.005  0.00  0.00    +0.000 N 
ATOM     16  H   UNL     1       6.090   2.578  14.563  0.00  0.00    +0.000 HD
BRANCH  15  17
ATOM     17  C   UNL     1       6.214   3.338  12.559  0.00  0.00    +0.000 C 
ATOM     18  C   UNL     1       4.774   3.730  12.235  0.00  0.00    +0.000 C 
ATOM     19  C   UNL     1       7.187   4.263  11.830  0.00  0.00    +0.000 C 
ENDBRANCH  15  17
ENDBRANCH  12  13
ENDBRANCH   1  12
BRANCH   2  20
ATOM     20  C   UNL     1       7.536   7.003  17.356  0.00  0.00    +0.000 C 
BRANCH  20  21
ATOM     21  C   UNL     1       7.280   8.510  17.392  0.00  0.00    +0.000 C 
BRANCH  21  22
ATOM     22  C   UNL     1       8.366   9.210  18.181  0.00  0.00    +0.000 C 
ATOM     23  O   UNL     1       8.921   8.619  19.105  0.00  0.00    +0.000 OA
ATOM     24  N   UNL     1       8.546  10.521  17.807  0.00  0.00    +0.000 N 
ATOM     25  C   UNL     1       9.427  11.333  18.459  0.00  0.00    +0.000 A 
ATOM     26  N   UNL     1      10.390  11.003  19.277  0.00  0.00    +0.000 NA
ATOM     27  C   UNL     1      10.987  12.144  19.765  0.00  0.00    +0.000 A 
ATOM     28  C   UNL     1      10.456  13.331  19.312  0.00  0.00    +0.000 A 
ATOM     29  S   UNL     1       9.216  13.002  18.171  0.00  0.00    +0.000 S 
ATOM     30  H   UNL     1       7.852  10.974  17.216  0.00  0.00    +0.000 HD
ENDBRANCH  21  22
ENDBRANCH  20  21
ENDBRANCH   2  20
TORSDOF 8
ENDMDL
MODEL 8
REMARK VINA RESULT:      -7.2      9.410     11.902
REMARK  Name = 
REMARK  11 active torsions:
REMARK  status: ('A' for Active; 'I' for Inactive)
REMARK    1  A    between atoms: C_1  and  C_2
REMARK    2  A    between atoms: C_2  and  C_3
REMARK    3  A    between atoms: C_6  and  N_7
REMARK    4  A    between atoms: N_7  and  C_8
REMARK    5  A    between atoms: C_8  and  C_9
REMARK    6  A    between atoms: N_11  and  C_12
REMARK    7  A    between atoms: C_12  and  C_13
REMARK    8  A    between atoms: C_12  and  C_14
REMARK    9  A    between atoms: C_15  and  C_17
REMARK   10  A    between atoms: C_17  and  C_18
REMARK   11  A    between atoms: C_18  and  C_19
REMARK                            x       y       z     vdW  Elec       q    Type
REMARK                         _______ _______ _______ _____ _____    ______ ____
ROOT
ATOM      1  N   UNL     1       0.230  10.875  18.531  0.00  0.00    +0.000 N 
ATOM      2  C   UNL     1      -1.001  10.666  17.901  0.00  0.00    +0.000 C 
ATOM      3  O   UNL     1      -1.313   9.587  17.372  0.00  0.00    +0.000 OA
ENDROOT
BRANCH   1   7
ATOM      4  C   UNL     1       2.476   7.292  19.115  0.00  0.00    +0.000 A 
ATOM      5  C   UNL     1       2.614   8.063  17.950  0.00  0.00    +0.000 A 
ATOM      6  C   UNL     1       1.943   9.287  17.807  0.00  0.00    +0.000 A 
ATOM      7  C   UNL     1       1.071   9.741  18.797  0.00  0.00    +0.000 A 
ATOM      8  C   UNL     1       0.983   9.004  19.989  0.00  0.00    +0.000 A 
ATOM      9  C   UNL     1       1.694   7.800  20.158  0.00  0.00    +0.000 A 
BRANCH   4  11
ATOM     10  C   UNL     1       2.595   5.090  20.376  0.00  0.00    +0.000 C 
ATOM     11  C   UNL     1       3.125   5.930  19.224  0.00  0.00    +0.000 C 
ENDBRANCH   4  11
ENDBRANCH   1   7
BRANCH   1  12
ATOM     12  C   UNL     1       0.537  12.118  19.270  0.00  0.00    +0.000 C 
BRANCH  12  13
ATOM     13  C   UNL     1       0.410  12.075  20.804  0.00  0.00    +0.000 C 
ATOM     14  O   UNL     1       1.330  12.465  21.521  0.00  0.00    +0.000 OA
ATOM     15  N   UNL     1      -0.819  11.706  21.315  0.00  0.00    +0.000 N 
ATOM     16  H   UNL     1      -1.489  11.281  20.684  0.00  0.00    +0.000 HD
BRANCH  15  17
ATOM     17  C   UNL     1      -1.054  11.622  22.758  0.00  0.00    +0.000 C 
ATOM     18  C   UNL     1      -2.466  12.083  23.113  0.00  0.00    +0.000 C 
ATOM     19  C   UNL     1      -0.819  10.206  23.282  0.00  0.00    +0.000 C 
ENDBRANCH  15  17
ENDBRANCH  12  13
ENDBRANCH   1  12
BRANCH   2  20
ATOM     20  C   UNL     1      -1.947  11.849  17.755  0.00  0.00    +0.000 C 
BRANCH  20  21
ATOM     21  C   UNL     1      -3.416  11.428  17.814  0.00  0.00    +0.000 C 
BRANCH  21  22
ATOM     22  C   UNL     1      -4.069  11.970  19.068  0.00  0.00    +0.000 C 
ATOM     23  O   UNL     1      -3.395  12.603  19.877  0.00  0.00    +0.000 OA
ATOM     24  N   UNL     1      -5.385  11.591  19.198  0.00  0.00    +0.000 N 
ATOM     25  C   UNL     1      -6.114  11.920  20.302  0.00  0.00    +0.000 A 
ATOM     26  N   UNL     1      -5.850  12.810  21.220  0.00  0.00    +0.000 NA
ATOM     27  C   UNL     1      -6.819  12.763  22.197  0.00  0.00    +0.000 A 
ATOM     28  C   UNL     1      -7.806  11.822  22.006  0.00  0.00    +0.000 A 
ATOM     29  S   UNL     1      -7.552  11.024  20.507  0.00  0.00    +0.000 S 
ATOM     30  H   UNL     1      -5.755  10.853  18.603  0.00  0.00    +0.000 HD
ENDBRANCH  21  22
ENDBRANCH  20  21
ENDBRANCH   2  20
TORSDOF 8
ENDMDL
MODEL 9
REMARK VINA RESULT:      -7.2      4.487      7.277
REMARK  Name = 
REMARK  11 active torsions:
REMARK  status: ('A' for Active; 'I' for Inactive)
REMARK    1  A    between atoms: C_1  and  C_2
REMARK    2  A    between atoms: C_2  and  C_3
REMARK    3  A    between atoms: C_6  and  N_7
REMARK    4  A    between atoms: N_7  and  C_8
REMARK    5  A    between atoms: C_8  and  C_9
REMARK    6  A    between atoms: N_11  and  C_12
REMARK    7  A    between atoms: C_12  and  C_13
REMARK    8  A    between atoms: C_12  and  C_14
REMARK    9  A    between atoms: C_15  and  C_17
REMARK   10  A    between atoms: C_17  and  C_18
REMARK   11  A    between atoms: C_18  and  C_19
REMARK                            x       y       z     vdW  Elec       q    Type
REMARK                         _______ _______ _______ _____ _____    ______ ____
ROOT
ATOM      1  N   UNL     1       5.187   5.094  17.876  0.00  0.00    +0.000 N 
ATOM      2  C   UNL     1       4.403   6.247  17.980  0.00  0.00    +0.000 C 
ATOM      3  O   UNL     1       4.275   7.061  17.053  0.00  0.00    +0.000 OA
ENDROOT
BRANCH   1   7
ATOM      4  C   UNL     1       6.548   4.291  13.911  0.00  0.00    +0.000 A 
ATOM      5  C   UNL     1       7.393   4.864  14.875  0.00  0.00    +0.000 A 
ATOM      6  C   UNL     1       6.967   5.037  16.200  0.00  0.00    +0.000 A 
ATOM      7  C   UNL     1       5.668   4.700  16.581  0.00  0.00    +0.000 A 
ATOM      8  C   UNL     1       4.845   4.068  15.635  0.00  0.00    +0.000 A 
ATOM      9  C   UNL     1       5.286   3.845  14.316  0.00  0.00    +0.000 A 
BRANCH   4  11
ATOM     10  C   UNL     1       6.470   2.946  11.757  0.00  0.00    +0.000 C 
ATOM     11  C   UNL     1       6.977   4.194  12.464  0.00  0.00    +0.000 C 
ENDBRANCH   4  11
ENDBRANCH   1   7
BRANCH   1  12
ATOM     12  C   UNL     1       5.225   4.067  18.940  0.00  0.00    +0.000 C 
BRANCH  12  13
ATOM     13  C   UNL     1       4.012   3.125  19.053  0.00  0.00    +0.000 C 
ATOM     14  O   UNL     1       3.887   2.170  18.288  0.00  0.00    +0.000 OA
ATOM     15  N   UNL     1       3.162   3.332  20.121  0.00  0.00    +0.000 N 
ATOM     16  H   UNL     1       3.249   4.201  20.637  0.00  0.00    +0.000 HD
BRANCH  15  17
ATOM     17  C   UNL     1       1.972   2.502  20.325  0.00  0.00    +0.000 C 
ATOM     18  C   UNL     1       1.516   2.545  21.782  0.00  0.00    +0.000 C 
ATOM     19  C   UNL     1       0.829   2.928  19.405  0.00  0.00    +0.000 C 
ENDBRANCH  15  17
ENDBRANCH  12  13
ENDBRANCH   1  12
BRANCH   2  20
ATOM     20  C   UNL     1       3.778   6.575  19.329  0.00  0.00    +0.000 C 
BRANCH  20  21
ATOM     21  C   UNL     1       2.250   6.587  19.272  0.00  0.00    +0.000 C 
BRANCH  21  22
ATOM     22  C   UNL     1       1.727   7.994  19.469  0.00  0.00    +0.000 C 
ATOM     23  O   UNL     1       2.060   8.880  18.684  0.00  0.00    +0.000 OA
ATOM     24  N   UNL     1       0.977   8.137  20.613  0.00  0.00    +0.000 N 
ATOM     25  C   UNL     1       0.488   9.350  20.997  0.00  0.00    +0.000 A 
ATOM     26  N   UNL     1       0.379  10.446  20.295  0.00  0.00    +0.000 NA
ATOM     27  C   UNL     1      -0.100  11.458  21.097  0.00  0.00    +0.000 A 
ATOM     28  C   UNL     1      -0.339  11.112  22.408  0.00  0.00    +0.000 A 
ATOM     29  S   UNL     1      -0.028   9.436  22.621  0.00  0.00    +0.000 S 
ATOM     30  H   UNL     1       0.991   7.401  21.316  0.00  0.00    +0.000 HD
ENDBRANCH  21  22
ENDBRANCH  20  21
ENDBRANCH   2  20
TORSDOF 8
ENDMDL
