MODEL 1
REMARK VINA RESULT:      -6.8      0.000      0.000
REMARK  Name = 
REMARK  7 active torsions:
REMARK  status: ('A' for Active; 'I' for Inactive)
REMARK    1  A    between atoms: C_1  and  O_2
REMARK    2  A    between atoms: O_2  and  C_3
REMARK    3  A    between atoms: C_8  and  O_9
REMARK    4  A    between atoms: O_9  and  C_10
REMARK    5  A    between atoms: C_10  and  C_11
REMARK    6  A    between atoms: C_11  and  N_12
REMARK    7  A    between atoms: C_13  and  C_15
REMARK                            x       y       z     vdW  Elec       q    Type
REMARK                         _______ _______ _______ _____ _____    ______ ____
ROOT
ATOM      1  C   UNL     1       4.747   4.879  17.697  0.00  0.00    +0.000 C 
ENDROOT
BRANCH   1   2
ATOM      2  N   UNL     1       4.025   6.139  17.856  0.00  0.00    +0.000 N 
ATOM      3  C   UNL     1       3.310   6.431  19.001  0.00  0.00    +0.000 C 
ATOM      4  O   UNL     1       3.353   5.738  20.012  0.00  0.00    +0.000 OA
ATOM      5  H   UNL     1       3.846   6.663  17.011  0.00  0.00    +0.000 HD
BRANCH   3   6
ATOM      6  C   UNL     1       2.406   7.622  18.957  0.00  0.00    +0.000 A 
ATOM      7  C   UNL     1       1.809   8.036  20.157  0.00  0.00    +0.000 A 
ATOM      8  C   UNL     1       0.928   9.122  20.181  0.00  0.00    +0.000 A 
ATOM      9  C   UNL     1       0.646   9.804  19.001  0.00  0.00    +0.000 A 
ATOM     10 BR   UNL     1      -0.555  11.264  19.025  0.00  0.00    +0.000 Br
ATOM     11  C   UNL     1       1.246   9.417  17.803  0.00  0.00    +0.000 A 
ATOM     12  C   UNL     1       2.131   8.334  17.778  0.00  0.00    +0.000 A 
ENDBRANCH   3   6
ENDBRANCH   1   2
BRANCH   1  13
ATOM     13  C   UNL     1       3.899   3.870  16.914  0.00  0.00    +0.000 C 
BRANCH  13  14
ATOM     14  O   UNL     1       3.779   2.639  17.622  0.00  0.00    +0.000 OA
BRANCH  14  20
ATOM     15  C   UNL     1       3.559   2.512  20.118  0.00  0.00    +0.000 A 
ATOM     16  C   UNL     1       2.679   2.648  21.205  0.00  0.00    +0.000 A 
ATOM     17  C   UNL     1       1.313   2.823  21.002  0.00  0.00    +0.000 A 
ATOM     18  C   UNL     1       0.817   2.906  19.706  0.00  0.00    +0.000 A 
ATOM     19  C   UNL     1       1.694   2.843  18.618  0.00  0.00    +0.000 A 
ATOM     20  C   UNL     1       3.074   2.658  18.806  0.00  0.00    +0.000 A 
BRANCH  15  22
ATOM     21  C   UNL     1       5.221   1.025  20.888  0.00  0.00    +0.000 C 
ATOM     22  O   UNL     1       4.891   2.309  20.354  0.00  0.00    +0.000 OA
ENDBRANCH  15  22
ENDBRANCH  14  20
ENDBRANCH  13  14
ENDBRANCH   1  13
TORSDOF 6
ENDMDL
MODEL 2
REMARK VINA RESULT:      -6.7      4.072      6.099
REMARK  Name = 
REMARK  7 active torsions:
REMARK  status: ('A' for Active; 'I' for Inactive)
REMARK    1  A    between atoms: C_1  and  O_2
REMARK    2  A    between atoms: O_2  and  C_3
REMARK    3  A    between atoms: C_8  and  O_9
REMARK    4  A    between atoms: O_9  and  C_10
REMARK    5  A    between atoms: C_10  and  C_11
REMARK    6  A    between atoms: C_11  and  N_12
REMARK    7  A    between atoms: C_13  and  C_15
REMARK                            x       y       z     vdW  Elec       q    Type
REMARK                         _______ _______ _______ _____ _____    ______ ____
ROOT
ATOM      1  C   UNL     1       7.995   5.358  18.708  0.00  0.00    +0.000 C 
ENDROOT
BRANCH   1   2
ATOM      2  N   UNL     1       7.654   4.798  17.403  0.00  0.00    +0.000 N 
ATOM      3  C   UNL     1       7.216   5.591  16.361  0.00  0.00    +0.000 C 
ATOM      4  O   UNL     1       7.227   6.816  16.401  0.00  0.00    +0.000 OA
ATOM      5  H   UNL     1       7.493   3.802  17.371  0.00  0.00    +0.000 HD
BRANCH   3   6
ATOM      6  C   UNL     1       6.652   4.894  15.163  0.00  0.00    +0.000 A 
ATOM      7  C   UNL     1       7.423   4.881  13.990  0.00  0.00    +0.000 A 
ATOM      8  C   UNL     1       6.943   4.275  12.825  0.00  0.00    +0.000 A 
ATOM      9  C   UNL     1       5.688   3.673  12.831  0.00  0.00    +0.000 A 
ATOM     10 BR   UNL     1       5.028   2.864  11.254  0.00  0.00    +0.000 Br
ATOM     11  C   UNL     1       4.917   3.660  13.994  0.00  0.00    +0.000 A 
ATOM     12  C   UNL     1       5.398   4.262  15.161  0.00  0.00    +0.000 A 
ENDBRANCH   3   6
ENDBRANCH   1   2
BRANCH   1  13
ATOM     13  C   UNL     1       6.735   5.538  19.562  0.00  0.00    +0.000 C 
BRANCH  13  14
ATOM     14  O   UNL     1       5.882   4.399  19.468  0.00  0.00    +0.000 OA
BRANCH  14  20
ATOM     15  C   UNL     1       3.515   3.710  19.001  0.00  0.00    +0.000 A 
ATOM     16  C   UNL     1       2.249   4.150  18.578  0.00  0.00    +0.000 A 
ATOM     17  C   UNL     1       2.070   5.437  18.078  0.00  0.00    +0.000 A 
ATOM     18  C   UNL     1       3.148   6.313  18.035  0.00  0.00    +0.000 A 
ATOM     19  C   UNL     1       4.395   5.908  18.520  0.00  0.00    +0.000 A 
ATOM     20  C   UNL     1       4.596   4.610  19.020  0.00  0.00    +0.000 A 
BRANCH  15  22
ATOM     21  C   UNL     1       3.596   1.418  18.449  0.00  0.00    +0.000 C 
ATOM     22  O   UNL     1       3.662   2.429  19.456  0.00  0.00    +0.000 OA
ENDBRANCH  15  22
ENDBRANCH  14  20
ENDBRANCH  13  14
ENDBRANCH   1  13
TORSDOF 6
ENDMDL
MODEL 3
REMARK VINA RESULT:      -6.5      5.237      5.835
REMARK  Name = 
REMARK  7 active torsions:
REMARK  status: ('A' for Active; 'I' for Inactive)
REMARK    1  A    between atoms: C_1  and  O_2
REMARK    2  A    between atoms: O_2  and  C_3
REMARK    3  A    between atoms: C_8  and  O_9
REMARK    4  A    between atoms: O_9  and  C_10
REMARK    5  A    between atoms: C_10  and  C_11
REMARK    6  A    between atoms: C_11  and  N_12
REMARK    7  A    between atoms: C_13  and  C_15
REMARK                            x       y       z     vdW  Elec       q    Type
REMARK                         _______ _______ _______ _____ _____    ______ ____
ROOT
ATOM      1  C   UNL     1       8.150   5.960  18.744  0.00  0.00    +0.000 C 
ENDROOT
BRANCH   1   2
ATOM      2  N   UNL     1       8.386   7.376  19.012  0.00  0.00    +0.000 N 
ATOM      3  C   UNL     1       8.090   8.354  18.082  0.00  0.00    +0.000 C 
ATOM      4  O   UNL     1       7.477   8.128  17.045  0.00  0.00    +0.000 OA
ATOM      5  H   UNL     1       9.010   7.590  19.777  0.00  0.00    +0.000 HD
BRANCH   3   6
ATOM      6  C   UNL     1       8.605   9.732  18.354  0.00  0.00    +0.000 A 
ATOM      7  C   UNL     1       9.387   9.925  19.502  0.00  0.00    +0.000 A 
ATOM      8  C   UNL     1       9.874  11.194  19.832  0.00  0.00    +0.000 A 
ATOM      9  C   UNL     1       9.584  12.277  19.007  0.00  0.00    +0.000 A 
ATOM     10 BR   UNL     1      10.228  13.997  19.457  0.00  0.00    +0.000 Br
ATOM     11  C   UNL     1       8.824  12.099  17.851  0.00  0.00    +0.000 A 
ATOM     12  C   UNL     1       8.340  10.829  17.518  0.00  0.00    +0.000 A 
ENDBRANCH   3   6
ENDBRANCH   1   2
BRANCH   1  13
ATOM     13  C   UNL     1       6.873   5.485  19.445  0.00  0.00    +0.000 C 
BRANCH  13  14
ATOM     14  O   UNL     1       6.191   4.504  18.668  0.00  0.00    +0.000 OA
BRANCH  14  20
ATOM     15  C   UNL     1       3.804   3.744  18.529  0.00  0.00    +0.000 A 
ATOM     16  C   UNL     1       2.472   4.157  18.362  0.00  0.00    +0.000 A 
ATOM     17  C   UNL     1       2.168   5.473  18.024  0.00  0.00    +0.000 A 
ATOM     18  C   UNL     1       3.194   6.402  17.891  0.00  0.00    +0.000 A 
ATOM     19  C   UNL     1       4.518   6.016  18.125  0.00  0.00    +0.000 A 
ATOM     20  C   UNL     1       4.842   4.690  18.458  0.00  0.00    +0.000 A 
BRANCH  15  22
ATOM     21  C   UNL     1       4.266   2.160  20.216  0.00  0.00    +0.000 C 
ATOM     22  O   UNL     1       4.069   2.436  18.828  0.00  0.00    +0.000 OA
ENDBRANCH  15  22
ENDBRANCH  14  20
ENDBRANCH  13  14
ENDBRANCH   1  13
TORSDOF 6
ENDMDL
MODEL 4
REMARK VINA RESULT:      -6.5      1.914      3.429
REMARK  Name = 
REMARK  7 active torsions:
REMARK  status: ('A' for Active; 'I' for Inactive)
REMARK    1  A    between atoms: C_1  and  O_2
REMARK    2  A    between atoms: O_2  and  C_3
REMARK    3  A    between atoms: C_8  and  O_9
REMARK    4  A    between atoms: O_9  and  C_10
REMARK    5  A    between atoms: C_10  and  C_11
REMARK    6  A    between atoms: C_11  and  N_12
REMARK    7  A    between atoms: C_13  and  C_15
REMARK                            x       y       z     vdW  Elec       q    Type
REMARK                         _______ _______ _______ _____ _____    ______ ____
ROOT
ATOM      1  C   UNL     1       2.895   3.162  21.615  0.00  0.00    +0.000 C 
ENDROOT
BRANCH   1   2
ATOM      2  N   UNL     1       2.728   4.570  21.265  0.00  0.00    +0.000 N 
ATOM      3  C   UNL     1       1.663   5.012  20.506  0.00  0.00    +0.000 C 
ATOM      4  O   UNL     1       0.714   4.297  20.205  0.00  0.00    +0.000 OA
ATOM      5  H   UNL     1       3.544   5.157  21.366  0.00  0.00    +0.000 HD
BRANCH   3   6
ATOM      6  C   UNL     1       1.725   6.416  19.993  0.00  0.00    +0.000 A 
ATOM      7  C   UNL     1       1.207   7.434  20.807  0.00  0.00    +0.000 A 
ATOM      8  C   UNL     1       1.205   8.765  20.375  0.00  0.00    +0.000 A 
ATOM      9  C   UNL     1       1.730   9.082  19.125  0.00  0.00    +0.000 A 
ATOM     10 BR   UNL     1       1.716  10.876  18.529  0.00  0.00    +0.000 Br
ATOM     11  C   UNL     1       2.266   8.083  18.311  0.00  0.00    +0.000 A 
ATOM     12  C   UNL     1       2.272   6.753  18.744  0.00  0.00    +0.000 A 
ENDBRANCH   3   6
ENDBRANCH   1   2
BRANCH   1  13
ATOM     13  C   UNL     1       3.478   2.380  20.433  0.00  0.00    +0.000 C 
BRANCH  13  14
ATOM     14  O   UNL     1       4.776   2.858  20.088  0.00  0.00    +0.000 OA
BRANCH  14  20
ATOM     15  C   UNL     1       5.756   4.752  18.766  0.00  0.00    +0.000 A 
ATOM     16  C   UNL     1       5.752   5.416  17.528  0.00  0.00    +0.000 A 
ATOM     17  C   UNL     1       4.815   5.096  16.548  0.00  0.00    +0.000 A 
ATOM     18  C   UNL     1       3.898   4.078  16.782  0.00  0.00    +0.000 A 
ATOM     19  C   UNL     1       3.941   3.363  17.983  0.00  0.00    +0.000 A 
ATOM     20  C   UNL     1       4.874   3.679  18.986  0.00  0.00    +0.000 A 
BRANCH  15  22
ATOM     21  C   UNL     1       7.774   5.881  19.237  0.00  0.00    +0.000 C 
ATOM     22  O   UNL     1       6.668   5.114  19.718  0.00  0.00    +0.000 OA
ENDBRANCH  15  22
ENDBRANCH  14  20
ENDBRANCH  13  14
ENDBRANCH   1  13
TORSDOF 6
ENDMDL
MODEL 5
REMARK VINA RESULT:      -6.5      2.775      4.036
REMARK  Name = 
REMARK  7 active torsions:
REMARK  status: ('A' for Active; 'I' for Inactive)
REMARK    1  A    between atoms: C_1  and  O_2
REMARK    2  A    between atoms: O_2  and  C_3
REMARK    3  A    between atoms: C_8  and  O_9
REMARK    4  A    between atoms: O_9  and  C_10
REMARK    5  A    between atoms: C_10  and  C_11
REMARK    6  A    between atoms: C_11  and  N_12
REMARK    7  A    between atoms: C_13  and  C_15
REMARK                            x       y       z     vdW  Elec       q    Type
REMARK                         _______ _______ _______ _____ _____    ______ ____
ROOT
ATOM      1  C   UNL     1       2.510   8.767  17.950  0.00  0.00    +0.000 C 
ENDROOT
BRANCH   1   2
ATOM      2  N   UNL     1       1.247   9.464  17.724  0.00  0.00    +0.000 N 
ATOM      3  C   UNL     1       0.494   9.968  18.766  0.00  0.00    +0.000 C 
ATOM      4  O   UNL     1       0.895  10.004  19.924  0.00  0.00    +0.000 OA
ATOM      5  H   UNL     1       0.817   9.331  16.820  0.00  0.00    +0.000 HD
BRANCH   3   6
ATOM      6  C   UNL     1      -0.893  10.429  18.447  0.00  0.00    +0.000 A 
ATOM      7  C   UNL     1      -1.528   9.869  17.328  0.00  0.00    +0.000 A 
ATOM      8  C   UNL     1      -2.812  10.278  16.955  0.00  0.00    +0.000 A 
ATOM      9  C   UNL     1      -3.470  11.247  17.707  0.00  0.00    +0.000 A 
ATOM     10 BR   UNL     1      -5.201  11.814  17.197  0.00  0.00    +0.000 Br
ATOM     11  C   UNL     1      -2.861  11.800  18.833  0.00  0.00    +0.000 A 
ATOM     12  C   UNL     1      -1.578  11.388  19.210  0.00  0.00    +0.000 A 
ENDBRANCH   3   6
ENDBRANCH   1   2
BRANCH   1  13
ATOM     13  C   UNL     1       2.263   7.275  18.202  0.00  0.00    +0.000 C 
BRANCH  13  14
ATOM     14  O   UNL     1       2.824   6.862  19.446  0.00  0.00    +0.000 OA
BRANCH  14  20
ATOM     15  C   UNL     1       3.698   4.511  19.482  0.00  0.00    +0.000 A 
ATOM     16  C   UNL     1       3.479   3.208  19.958  0.00  0.00    +0.000 A 
ATOM     17  C   UNL     1       2.294   2.874  20.609  0.00  0.00    +0.000 A 
ATOM     18  C   UNL     1       1.331   3.853  20.827  0.00  0.00    +0.000 A 
ATOM     19  C   UNL     1       1.571   5.170  20.419  0.00  0.00    +0.000 A 
ATOM     20  C   UNL     1       2.758   5.521  19.753  0.00  0.00    +0.000 A 
BRANCH  15  22
ATOM     21  C   UNL     1       4.971   4.215  17.517  0.00  0.00    +0.000 C 
ATOM     22  O   UNL     1       4.859   4.796  18.818  0.00  0.00    +0.000 OA
ENDBRANCH  15  22
ENDBRANCH  14  20
ENDBRANCH  13  14
ENDBRANCH   1  13
TORSDOF 6
ENDMDL
MODEL 6
REMARK VINA RESULT:      -6.5      2.907      4.383
REMARK  Name = 
REMARK  7 active torsions:
REMARK  status: ('A' for Active; 'I' for Inactive)
REMARK    1  A    between atoms: C_1  and  O_2
REMARK    2  A    between atoms: O_2  and  C_3
REMARK    3  A    between atoms: C_8  and  O_9
REMARK    4  A    between atoms: O_9  and  C_10
REMARK    5  A    between atoms: C_10  and  C_11
REMARK    6  A    between atoms: C_11  and  N_12
REMARK    7  A    between atoms: C_13  and  C_15
REMARK                            x       y       z     vdW  Elec       q    Type
REMARK                         _______ _______ _______ _____ _____    ______ ____
ROOT
ATOM      1  C   UNL     1       2.476   8.951  17.799  0.00  0.00    +0.000 C 
ENDROOT
BRANCH   1   2
ATOM      2  N   UNL     1       1.156   9.551  17.621  0.00  0.00    +0.000 N 
ATOM      3  C   UNL     1       0.516  10.222  18.644  0.00  0.00    +0.000 C 
ATOM      4  O   UNL     1       1.058  10.493  19.709  0.00  0.00    +0.000 OA
ATOM      5  H   UNL     1       0.623   9.232  16.825  0.00  0.00    +0.000 HD
BRANCH   3   6
ATOM      6  C   UNL     1      -0.925  10.569  18.436  0.00  0.00    +0.000 A 
ATOM      7  C   UNL     1      -1.631   9.869  17.446  0.00  0.00    +0.000 A 
ATOM      8  C   UNL     1      -2.971  10.165  17.178  0.00  0.00    +0.000 A 
ATOM      9  C   UNL     1      -3.613  11.162  17.907  0.00  0.00    +0.000 A 
ATOM     10 BR   UNL     1      -5.421  11.576  17.538  0.00  0.00    +0.000 Br
ATOM     11  C   UNL     1      -2.931  11.854  18.907  0.00  0.00    +0.000 A 
ATOM     12  C   UNL     1      -1.592  11.556  19.179  0.00  0.00    +0.000 A 
ENDBRANCH   3   6
ENDBRANCH   1   2
BRANCH   1  13
ATOM     13  C   UNL     1       2.352   7.555  18.420  0.00  0.00    +0.000 C 
BRANCH  13  14
ATOM     14  O   UNL     1       3.496   6.756  18.128  0.00  0.00    +0.000 OA
BRANCH  14  20
ATOM     15  C   UNL     1       4.197   4.458  17.406  0.00  0.00    +0.000 A 
ATOM     16  C   UNL     1       3.805   3.112  17.307  0.00  0.00    +0.000 A 
ATOM     17  C   UNL     1       2.494   2.727  17.578  0.00  0.00    +0.000 A 
ATOM     18  C   UNL     1       1.571   3.680  17.992  0.00  0.00    +0.000 A 
ATOM     19  C   UNL     1       1.970   5.010  18.163  0.00  0.00    +0.000 A 
ATOM     20  C   UNL     1       3.286   5.416  17.885  0.00  0.00    +0.000 A 
BRANCH  15  22
ATOM     21  C   UNL     1       6.059   4.094  16.004  0.00  0.00    +0.000 C 
ATOM     22  O   UNL     1       5.484   4.806  17.101  0.00  0.00    +0.000 OA
ENDBRANCH  15  22
ENDBRANCH  14  20
ENDBRANCH  13  14
ENDBRANCH   1  13
TORSDOF 6
ENDMDL
MODEL 7
REMARK VINA RESULT:      -6.4      4.103      6.303
REMARK  Name = 
REMARK  7 active torsions:
REMARK  status: ('A' for Active; 'I' for Inactive)
REMARK    1  A    between atoms: C_1  and  O_2
REMARK    2  A    between atoms: O_2  and  C_3
REMARK    3  A    between atoms: C_8  and  O_9
REMARK    4  A    between atoms: O_9  and  C_10
REMARK    5  A    between atoms: C_10  and  C_11
REMARK    6  A    between atoms: C_11  and  N_12
REMARK    7  A    between atoms: C_13  and  C_15
REMARK                            x       y       z     vdW  Elec       q    Type
REMARK                         _______ _______ _______ _____ _____    ______ ____
ROOT
ATOM      1  C   UNL     1       7.753   5.031  18.682  0.00  0.00    +0.000 C 
ENDROOT
BRANCH   1   2
ATOM      2  N   UNL     1       7.446   4.541  17.340  0.00  0.00    +0.000 N 
ATOM      3  C   UNL     1       7.335   5.394  16.259  0.00  0.00    +0.000 C 
ATOM      4  O   UNL     1       7.632   6.582  16.311  0.00  0.00    +0.000 OA
ATOM      5  H   UNL     1       7.059   3.610  17.281  0.00  0.00    +0.000 HD
BRANCH   3   6
ATOM      6  C   UNL     1       6.769   4.826  14.996  0.00  0.00    +0.000 A 
ATOM      7  C   UNL     1       5.479   4.277  15.047  0.00  0.00    +0.000 A 
ATOM      8  C   UNL     1       4.902   3.700  13.910  0.00  0.00    +0.000 A 
ATOM      9  C   UNL     1       5.614   3.678  12.714  0.00  0.00    +0.000 A 
ATOM     10 BR   UNL     1       4.844   2.887  11.179  0.00  0.00    +0.000 Br
ATOM     11  C   UNL     1       6.890   4.237  12.643  0.00  0.00    +0.000 A 
ATOM     12  C   UNL     1       7.467   4.817  13.778  0.00  0.00    +0.000 A 
ENDBRANCH   3   6
ENDBRANCH   1   2
BRANCH   1  13
ATOM     13  C   UNL     1       6.519   5.689  19.309  0.00  0.00    +0.000 C 
BRANCH  13  14
ATOM     14  O   UNL     1       5.623   4.711  19.832  0.00  0.00    +0.000 OA
BRANCH  14  20
ATOM     15  C   UNL     1       3.411   5.137  18.728  0.00  0.00    +0.000 A 
ATOM     16  C   UNL     1       2.449   4.625  17.841  0.00  0.00    +0.000 A 
ATOM     17  C   UNL     1       2.544   3.323  17.356  0.00  0.00    +0.000 A 
ATOM     18  C   UNL     1       3.626   2.532  17.722  0.00  0.00    +0.000 A 
ATOM     19  C   UNL     1       4.626   3.056  18.548  0.00  0.00    +0.000 A 
ATOM     20  C   UNL     1       4.540   4.365  19.053  0.00  0.00    +0.000 A 
BRANCH  15  22
ATOM     21  C   UNL     1       3.106   7.419  18.214  0.00  0.00    +0.000 C 
ATOM     22  O   UNL     1       3.269   6.408  19.211  0.00  0.00    +0.000 OA
ENDBRANCH  15  22
ENDBRANCH  14  20
ENDBRANCH  13  14
ENDBRANCH   1  13
TORSDOF 6
ENDMDL
MODEL 8
REMARK VINA RESULT:      -6.4      2.903      4.632
REMARK  Name = 
REMARK  7 active torsions:
REMARK  status: ('A' for Active; 'I' for Inactive)
REMARK    1  A    between atoms: C_1  and  O_2
REMARK    2  A    between atoms: O_2  and  C_3
REMARK    3  A    between atoms: C_8  and  O_9
REMARK    4  A    between atoms: O_9  and  C_10
REMARK    5  A    between atoms: C_10  and  C_11
REMARK    6  A    between atoms: C_11  and  N_12
REMARK    7  A    between atoms: C_13  and  C_15
REMARK                            x       y       z     vdW  Elec       q    Type
REMARK                         _______ _______ _______ _____ _____    ______ ____
ROOT
ATOM      1  C   UNL     1       3.549   1.881  17.967  0.00  0.00    +0.000 C 
ENDROOT
BRANCH   1   2
ATOM      2  N   UNL     1       4.459   2.991  17.696  0.00  0.00    +0.000 N 
ATOM      3  C   UNL     1       5.237   3.556  18.687  0.00  0.00    +0.000 C 
ATOM      4  O   UNL     1       5.336   3.081  19.813  0.00  0.00    +0.000 OA
ATOM      5  H   UNL     1       4.304   3.498  16.836  0.00  0.00    +0.000 HD
BRANCH   3   6
ATOM      6  C   UNL     1       5.931   4.841  18.362  0.00  0.00    +0.000 A 
ATOM      7  C   UNL     1       7.067   5.180  19.114  0.00  0.00    +0.000 A 
ATOM      8  C   UNL     1       7.745   6.381  18.883  0.00  0.00    +0.000 A 
ATOM      9  C   UNL     1       7.292   7.246  17.891  0.00  0.00    +0.000 A 
ATOM     10 BR   UNL     1       8.197   8.878  17.585  0.00  0.00    +0.000 Br
ATOM     11  C   UNL     1       6.176   6.915  17.122  0.00  0.00    +0.000 A 
ATOM     12  C   UNL     1       5.499   5.712  17.349  0.00  0.00    +0.000 A 
ENDBRANCH   3   6
ENDBRANCH   1   2
BRANCH   1  13
ATOM     13  C   UNL     1       2.104   2.283  17.655  0.00  0.00    +0.000 C 
BRANCH  13  14
ATOM     14  O   UNL     1       2.008   3.673  17.356  0.00  0.00    +0.000 OA
BRANCH  14  20
ATOM     15  C   UNL     1       1.505   4.287  19.737  0.00  0.00    +0.000 A 
ATOM     16  C   UNL     1       1.584   5.300  20.707  0.00  0.00    +0.000 A 
ATOM     17  C   UNL     1       1.984   6.589  20.363  0.00  0.00    +0.000 A 
ATOM     18  C   UNL     1       2.350   6.867  19.051  0.00  0.00    +0.000 A 
ATOM     19  C   UNL     1       2.342   5.847  18.094  0.00  0.00    +0.000 A 
ATOM     20  C   UNL     1       1.932   4.544  18.422  0.00  0.00    +0.000 A 
BRANCH  15  22
ATOM     21  C   UNL     1       1.357   2.676  21.455  0.00  0.00    +0.000 C 
ATOM     22  O   UNL     1       1.076   3.040  20.102  0.00  0.00    +0.000 OA
ENDBRANCH  15  22
ENDBRANCH  14  20
ENDBRANCH  13  14
ENDBRANCH   1  13
TORSDOF 6
ENDMDL
MODEL 9
REMARK VINA RESULT:      -6.4      4.138      6.202
REMARK  Name = 
REMARK  7 active torsions:
REMARK  status: ('A' for Active; 'I' for Inactive)
REMARK    1  A    between atoms: C_1  and  O_2
REMARK    2  A    between atoms: O_2  and  C_3
REMARK    3  A    between atoms: C_8  and  O_9
REMARK    4  A    between atoms: O_9  and  C_10
REMARK    5  A    between atoms: C_10  and  C_11
REMARK    6  A    between atoms: C_11  and  N_12
REMARK    7  A    between atoms: C_13  and  C_15
REMARK                            x       y       z     vdW  Elec       q    Type
REMARK                         _______ _______ _______ _____ _____    ______ ____
ROOT
ATOM      1  C   UNL     1       7.089   5.475  18.802  0.00  0.00    +0.000 C 
ENDROOT
BRANCH   1   2
ATOM      2  N   UNL     1       6.966   4.843  17.490  0.00  0.00    +0.000 N 
ATOM      3  C   UNL     1       7.188   5.543  16.320  0.00  0.00    +0.000 C 
ATOM      4  O   UNL     1       7.646   6.680  16.297  0.00  0.00    +0.000 OA
ATOM      5  H   UNL     1       6.461   3.970  17.459  0.00  0.00    +0.000 HD
BRANCH   3   6
ATOM      6  C   UNL     1       6.787   4.879  15.041  0.00  0.00    +0.000 A 
ATOM      7  C   UNL     1       5.624   4.094  15.048  0.00  0.00    +0.000 A 
ATOM      8  C   UNL     1       5.209   3.420  13.895  0.00  0.00    +0.000 A 
ATOM      9  C   UNL     1       5.956   3.534  12.726  0.00  0.00    +0.000 A 
ATOM     10 BR   UNL     1       5.408   2.613  11.168  0.00  0.00    +0.000 Br
ATOM     11  C   UNL     1       7.104   4.326  12.697  0.00  0.00    +0.000 A 
ATOM     12  C   UNL     1       7.518   5.004  13.849  0.00  0.00    +0.000 A 
ENDBRANCH   3   6
ENDBRANCH   1   2
BRANCH   1  13
ATOM     13  C   UNL     1       5.895   5.106  19.689  0.00  0.00    +0.000 C 
BRANCH  13  14
ATOM     14  O   UNL     1       5.338   3.850  19.309  0.00  0.00    +0.000 OA
BRANCH  14  20
ATOM     15  C   UNL     1       3.264   4.628  18.133  0.00  0.00    +0.000 A 
ATOM     16  C   UNL     1       1.898   4.377  17.918  0.00  0.00    +0.000 A 
ATOM     17  C   UNL     1       1.227   3.401  18.650  0.00  0.00    +0.000 A 
ATOM     18  C   UNL     1       1.926   2.637  19.577  0.00  0.00    +0.000 A 
ATOM     19  C   UNL     1       3.301   2.831  19.746  0.00  0.00    +0.000 A 
ATOM     20  C   UNL     1       3.991   3.818  19.022  0.00  0.00    +0.000 A 
BRANCH  15  22
ATOM     21  C   UNL     1       3.497   6.948  17.768  0.00  0.00    +0.000 C 
ATOM     22  O   UNL     1       3.884   5.617  17.420  0.00  0.00    +0.000 OA
ENDBRANCH  15  22
ENDBRANCH  14  20
ENDBRANCH  13  14
ENDBRANCH   1  13
TORSDOF 6
ENDMDL
