MODEL 1
REMARK VINA RESULT:      -7.3      0.000      0.000
REMARK  Name = 
REMARK  4 active torsions:
REMARK  status: ('A' for Active; 'I' for Inactive)
REMARK    1  A    between atoms: C_1  and  C_2
REMARK    2  A    between atoms: C_5  and  C_6
REMARK    3  A    between atoms: C_6  and  C_7
REMARK    4  A    between atoms: C_7  and  C_8
REMARK                            x       y       z     vdW  Elec       q    Type
REMARK                         _______ _______ _______ _____ _____    ______ ____
ROOT
ATOM      1  C   UNL     1       5.115   4.043  18.034  0.00  0.00    +0.000 C 
ENDROOT
BRANCH   1   2
ATOM      2  C   UNL     1       3.667   4.468  18.147  0.00  0.00    +0.000 C 
ATOM      3  O   UNL     1       3.259   5.493  17.597  0.00  0.00    +0.000 OA
ATOM      4  N   UNL     1       2.833   3.629  18.880  0.00  0.00    +0.000 N 
ATOM      5  C   UNL     1       1.394   3.883  18.909  0.00  0.00    +0.000 C 
ATOM      6  C   UNL     1       0.897   4.059  20.343  0.00  0.00    +0.000 C 
ATOM      7  C   UNL     1       1.334   2.897  21.236  0.00  0.00    +0.000 C 
ATOM      8  C   UNL     1       2.841   2.665  21.136  0.00  0.00    +0.000 C 
ATOM      9  C   UNL     1       3.273   2.485  19.682  0.00  0.00    +0.000 C 
ENDBRANCH   1   2
BRANCH   1  10
ATOM     10  C   UNL     1       6.047   5.210  17.722  0.00  0.00    +0.000 C 
BRANCH  10  15
ATOM     11  C   UNL     1       6.176   3.662  13.138  0.00  0.00    +0.000 C 
ATOM     12  C   UNL     1       6.578   4.457  14.311  0.00  0.00    +0.000 A 
ATOM     13  N   UNL     1       7.517   5.371  14.418  0.00  0.00    +0.000 NA
ATOM     14  N   UNL     1       7.484   5.807  15.724  0.00  0.00    +0.000 NA
ATOM     15  C   UNL     1       6.523   5.130  16.320  0.00  0.00    +0.000 A 
ATOM     16  O   UNL     1       5.898   4.247  15.481  0.00  0.00    +0.000 OA
ENDBRANCH  10  15
ENDBRANCH   1  10
TORSDOF 3
ENDMDL
MODEL 2
REMARK VINA RESULT:      -7.1      1.292      1.642
REMARK  Name = 
REMARK  4 active torsions:
REMARK  status: ('A' for Active; 'I' for Inactive)
REMARK    1  A    between atoms: C_1  and  C_2
REMARK    2  A    between atoms: C_5  and  C_6
REMARK    3  A    between atoms: C_6  and  C_7
REMARK    4  A    between atoms: C_7  and  C_8
REMARK                            x       y       z     vdW  Elec       q    Type
REMARK                         _______ _______ _______ _____ _____    ______ ____
ROOT
ATOM      1  C   UNL     1       4.506   4.021  17.120  0.00  0.00    +0.000 C 
ENDROOT
BRANCH   1   2
ATOM      2  C   UNL     1       4.425   4.057  18.631  0.00  0.00    +0.000 C 
ATOM      3  O   UNL     1       5.443   4.016  19.324  0.00  0.00    +0.000 OA
ATOM      4  N   UNL     1       3.150   4.161  19.178  0.00  0.00    +0.000 N 
ATOM      5  C   UNL     1       2.993   4.357  20.618  0.00  0.00    +0.000 C 
ATOM      6  C   UNL     1       2.133   3.254  21.232  0.00  0.00    +0.000 C 
ATOM      7  C   UNL     1       0.808   3.094  20.486  0.00  0.00    +0.000 C 
ATOM      8  C   UNL     1       1.039   2.924  18.985  0.00  0.00    +0.000 C 
ATOM      9  C   UNL     1       1.894   4.062  18.430  0.00  0.00    +0.000 C 
ENDBRANCH   1   2
BRANCH   1  10
ATOM     10  C   UNL     1       4.898   5.367  16.520  0.00  0.00    +0.000 C 
BRANCH  10  15
ATOM     11  C   UNL     1       6.722   3.751  12.339  0.00  0.00    +0.000 C 
ATOM     12  C   UNL     1       6.708   4.479  13.619  0.00  0.00    +0.000 A 
ATOM     13  N   UNL     1       7.648   5.213  14.172  0.00  0.00    +0.000 NA
ATOM     14  N   UNL     1       7.131   5.667  15.365  0.00  0.00    +0.000 NA
ATOM     15  C   UNL     1       5.909   5.182  15.452  0.00  0.00    +0.000 A 
ATOM     16  O   UNL     1       5.567   4.412  14.373  0.00  0.00    +0.000 OA
ENDBRANCH  10  15
ENDBRANCH   1  10
TORSDOF 3
ENDMDL
MODEL 3
REMARK VINA RESULT:      -7.0      1.529      2.106
REMARK  Name = 
REMARK  4 active torsions:
REMARK  status: ('A' for Active; 'I' for Inactive)
REMARK    1  A    between atoms: C_1  and  C_2
REMARK    2  A    between atoms: C_5  and  C_6
REMARK    3  A    between atoms: C_6  and  C_7
REMARK    4  A    between atoms: C_7  and  C_8
REMARK                            x       y       z     vdW  Elec       q    Type
REMARK                         _______ _______ _______ _____ _____    ______ ____
ROOT
ATOM      1  C   UNL     1       5.109   6.117  18.216  0.00  0.00    +0.000 C 
ENDROOT
BRANCH   1   2
ATOM      2  C   UNL     1       5.014   4.681  18.686  0.00  0.00    +0.000 C 
ATOM      3  O   UNL     1       6.020   3.976  18.783  0.00  0.00    +0.000 OA
ATOM      4  N   UNL     1       3.742   4.223  19.016  0.00  0.00    +0.000 N 
ATOM      5  C   UNL     1       3.583   2.903  19.622  0.00  0.00    +0.000 C 
ATOM      6  C   UNL     1       2.647   2.026  18.792  0.00  0.00    +0.000 C 
ATOM      7  C   UNL     1       1.322   2.735  18.505  0.00  0.00    +0.000 C 
ATOM      8  C   UNL     1       1.559   4.119  17.901  0.00  0.00    +0.000 C 
ATOM      9  C   UNL     1       2.491   4.949  18.782  0.00  0.00    +0.000 C 
ENDBRANCH   1   2
BRANCH   1  10
ATOM     10  C   UNL     1       4.704   6.286  16.756  0.00  0.00    +0.000 C 
BRANCH  10  15
ATOM     11  C   UNL     1       6.513   3.773  13.037  0.00  0.00    +0.000 C 
ATOM     12  C   UNL     1       6.542   4.634  14.231  0.00  0.00    +0.000 A 
ATOM     13  N   UNL     1       7.570   5.180  14.842  0.00  0.00    +0.000 NA
ATOM     14  N   UNL     1       7.055   5.889  15.904  0.00  0.00    +0.000 NA
ATOM     15  C   UNL     1       5.748   5.730  15.862  0.00  0.00    +0.000 A 
ATOM     16  O   UNL     1       5.344   4.940  14.819  0.00  0.00    +0.000 OA
ENDBRANCH  10  15
ENDBRANCH   1  10
TORSDOF 3
ENDMDL
MODEL 4
REMARK VINA RESULT:      -7.0      1.044      1.044
REMARK  Name = 
REMARK  4 active torsions:
REMARK  status: ('A' for Active; 'I' for Inactive)
REMARK    1  A    between atoms: C_1  and  C_2
REMARK    2  A    between atoms: C_5  and  C_6
REMARK    3  A    between atoms: C_6  and  C_7
REMARK    4  A    between atoms: C_7  and  C_8
REMARK                            x       y       z     vdW  Elec       q    Type
REMARK                         _______ _______ _______ _____ _____    ______ ____
ROOT
ATOM      1  C   UNL     1       4.696   3.922  17.676  0.00  0.00    +0.000 C 
ENDROOT
BRANCH   1   2
ATOM      2  C   UNL     1       3.263   3.437  17.664  0.00  0.00    +0.000 C 
ATOM      3  O   UNL     1       2.564   3.542  16.654  0.00  0.00    +0.000 OA
ATOM      4  N   UNL     1       2.798   2.854  18.839  0.00  0.00    +0.000 N 
ATOM      5  C   UNL     1       1.481   2.222  18.863  0.00  0.00    +0.000 C 
ATOM      6  C   UNL     1       0.594   2.842  19.941  0.00  0.00    +0.000 C 
ATOM      7  C   UNL     1       1.293   2.857  21.302  0.00  0.00    +0.000 C 
ATOM      8  C   UNL     1       2.675   3.502  21.203  0.00  0.00    +0.000 C 
ATOM      9  C   UNL     1       3.515   2.832  20.117  0.00  0.00    +0.000 C 
ENDBRANCH   1   2
BRANCH   1  10
ATOM     10  C   UNL     1       4.874   5.248  16.944  0.00  0.00    +0.000 C 
BRANCH  10  15
ATOM     11  C   UNL     1       6.465   3.705  12.642  0.00  0.00    +0.000 C 
ATOM     12  C   UNL     1       6.517   4.421  13.928  0.00  0.00    +0.000 A 
ATOM     13  N   UNL     1       7.477   5.167  14.430  0.00  0.00    +0.000 NA
ATOM     14  N   UNL     1       7.026   5.600  15.657  0.00  0.00    +0.000 NA
ATOM     15  C   UNL     1       5.821   5.092  15.814  0.00  0.00    +0.000 A 
ATOM     16  O   UNL     1       5.426   4.326  14.750  0.00  0.00    +0.000 OA
ENDBRANCH  10  15
ENDBRANCH   1  10
TORSDOF 3
ENDMDL
MODEL 5
REMARK VINA RESULT:      -6.9      1.678      2.361
REMARK  Name = 
REMARK  4 active torsions:
REMARK  status: ('A' for Active; 'I' for Inactive)
REMARK    1  A    between atoms: C_1  and  C_2
REMARK    2  A    between atoms: C_5  and  C_6
REMARK    3  A    between atoms: C_6  and  C_7
REMARK    4  A    between atoms: C_7  and  C_8
REMARK                            x       y       z     vdW  Elec       q    Type
REMARK                         _______ _______ _______ _____ _____    ______ ____
ROOT
ATOM      1  C   UNL     1       6.544   5.734  17.602  0.00  0.00    +0.000 C 
ENDROOT
BRANCH   1   2
ATOM      2  C   UNL     1       5.803   5.426  18.885  0.00  0.00    +0.000 C 
ATOM      3  O   UNL     1       6.408   5.261  19.946  0.00  0.00    +0.000 OA
ATOM      4  N   UNL     1       4.415   5.364  18.796  0.00  0.00    +0.000 N 
ATOM      5  C   UNL     1       3.617   5.225  20.012  0.00  0.00    +0.000 C 
ATOM      6  C   UNL     1       2.727   3.986  19.947  0.00  0.00    +0.000 C 
ATOM      7  C   UNL     1       1.898   3.957  18.662  0.00  0.00    +0.000 C 
ATOM      8  C   UNL     1       2.787   4.137  17.431  0.00  0.00    +0.000 C 
ATOM      9  C   UNL     1       3.642   5.397  17.552  0.00  0.00    +0.000 C 
ENDBRANCH   1   2
BRANCH   1  10
ATOM     10  C   UNL     1       7.117   4.485  16.940  0.00  0.00    +0.000 C 
BRANCH  10  15
ATOM     11  C   UNL     1       5.894   3.353  12.396  0.00  0.00    +0.000 C 
ATOM     12  C   UNL     1       6.536   4.126  13.474  0.00  0.00    +0.000 A 
ATOM     13  N   UNL     1       7.272   5.212  13.398  0.00  0.00    +0.000 NA
ATOM     14  N   UNL     1       7.626   5.529  14.690  0.00  0.00    +0.000 NA
ATOM     15  C   UNL     1       7.074   4.617  15.463  0.00  0.00    +0.000 A 
ATOM     16  O   UNL     1       6.361   3.685  14.758  0.00  0.00    +0.000 OA
ENDBRANCH  10  15
ENDBRANCH   1  10
TORSDOF 3
ENDMDL
MODEL 6
REMARK VINA RESULT:      -6.9      1.164      1.219
REMARK  Name = 
REMARK  4 active torsions:
REMARK  status: ('A' for Active; 'I' for Inactive)
REMARK    1  A    between atoms: C_1  and  C_2
REMARK    2  A    between atoms: C_5  and  C_6
REMARK    3  A    between atoms: C_6  and  C_7
REMARK    4  A    between atoms: C_7  and  C_8
REMARK                            x       y       z     vdW  Elec       q    Type
REMARK                         _______ _______ _______ _____ _____    ______ ____
ROOT
ATOM      1  C   UNL     1       5.625   3.950  18.220  0.00  0.00    +0.000 C 
ENDROOT
BRANCH   1   2
ATOM      2  C   UNL     1       4.466   4.708  18.830  0.00  0.00    +0.000 C 
ATOM      3  O   UNL     1       4.652   5.734  19.486  0.00  0.00    +0.000 OA
ATOM      4  N   UNL     1       3.196   4.193  18.589  0.00  0.00    +0.000 N 
ATOM      5  C   UNL     1       2.017   4.946  19.010  0.00  0.00    +0.000 C 
ATOM      6  C   UNL     1       1.139   4.115  19.944  0.00  0.00    +0.000 C 
ATOM      7  C   UNL     1       0.811   2.749  19.339  0.00  0.00    +0.000 C 
ATOM      8  C   UNL     1       2.082   2.027  18.892  0.00  0.00    +0.000 C 
ATOM      9  C   UNL     1       2.909   2.904  17.953  0.00  0.00    +0.000 C 
ENDBRANCH   1   2
BRANCH   1  10
ATOM     10  C   UNL     1       6.789   4.859  17.843  0.00  0.00    +0.000 C 
BRANCH  10  15
ATOM     11  C   UNL     1       6.149   3.591  13.217  0.00  0.00    +0.000 C 
ATOM     12  C   UNL     1       6.621   4.416  14.342  0.00  0.00    +0.000 A 
ATOM     13  N   UNL     1       7.298   5.543  14.325  0.00  0.00    +0.000 NA
ATOM     14  N   UNL     1       7.485   5.900  15.641  0.00  0.00    +0.000 NA
ATOM     15  C   UNL     1       6.904   4.967  16.368  0.00  0.00    +0.000 A 
ATOM     16  O   UNL     1       6.329   3.984  15.608  0.00  0.00    +0.000 OA
ENDBRANCH  10  15
ENDBRANCH   1  10
TORSDOF 3
ENDMDL
MODEL 7
REMARK VINA RESULT:      -6.8      1.067      1.217
REMARK  Name = 
REMARK  4 active torsions:
REMARK  status: ('A' for Active; 'I' for Inactive)
REMARK    1  A    between atoms: C_1  and  C_2
REMARK    2  A    between atoms: C_5  and  C_6
REMARK    3  A    between atoms: C_6  and  C_7
REMARK    4  A    between atoms: C_7  and  C_8
REMARK                            x       y       z     vdW  Elec       q    Type
REMARK                         _______ _______ _______ _____ _____    ______ ____
ROOT
ATOM      1  C   UNL     1       5.746   5.368  18.767  0.00  0.00    +0.000 C 
ENDROOT
BRANCH   1   2
ATOM      2  C   UNL     1       4.455   5.160  18.005  0.00  0.00    +0.000 C 
ATOM      3  O   UNL     1       4.037   6.010  17.218  0.00  0.00    +0.000 OA
ATOM      4  N   UNL     1       3.793   3.956  18.229  0.00  0.00    +0.000 N 
ATOM      5  C   UNL     1       2.626   3.610  17.422  0.00  0.00    +0.000 C 
ATOM      6  C   UNL     1       1.406   3.351  18.303  0.00  0.00    +0.000 C 
ATOM      7  C   UNL     1       1.714   2.335  19.404  0.00  0.00    +0.000 C 
ATOM      8  C   UNL     1       2.961   2.738  20.190  0.00  0.00    +0.000 C 
ATOM      9  C   UNL     1       4.147   2.972  19.256  0.00  0.00    +0.000 C 
ENDBRANCH   1   2
BRANCH   1  10
ATOM     10  C   UNL     1       6.917   4.602  18.161  0.00  0.00    +0.000 C 
BRANCH  10  15
ATOM     11  C   UNL     1       6.131   3.694  13.473  0.00  0.00    +0.000 C 
ATOM     12  C   UNL     1       6.632   4.434  14.644  0.00  0.00    +0.000 A 
ATOM     13  N   UNL     1       7.295   5.568  14.694  0.00  0.00    +0.000 NA
ATOM     14  N   UNL     1       7.524   5.822  16.027  0.00  0.00    +0.000 NA
ATOM     15  C   UNL     1       6.979   4.827  16.697  0.00  0.00    +0.000 A 
ATOM     16  O   UNL     1       6.389   3.899  15.881  0.00  0.00    +0.000 OA
ENDBRANCH  10  15
ENDBRANCH   1  10
TORSDOF 3
ENDMDL
MODEL 8
REMARK VINA RESULT:      -6.8      1.133      1.637
REMARK  Name = 
REMARK  4 active torsions:
REMARK  status: ('A' for Active; 'I' for Inactive)
REMARK    1  A    between atoms: C_1  and  C_2
REMARK    2  A    between atoms: C_5  and  C_6
REMARK    3  A    between atoms: C_6  and  C_7
REMARK    4  A    between atoms: C_7  and  C_8
REMARK                            x       y       z     vdW  Elec       q    Type
REMARK                         _______ _______ _______ _____ _____    ______ ____
ROOT
ATOM      1  C   UNL     1       3.878   5.431  17.266  0.00  0.00    +0.000 C 
ENDROOT
BRANCH   1   2
ATOM      2  C   UNL     1       3.915   4.082  17.952  0.00  0.00    +0.000 C 
ATOM      3  O   UNL     1       4.275   3.071  17.347  0.00  0.00    +0.000 OA
ATOM      4  N   UNL     1       3.543   4.061  19.293  0.00  0.00    +0.000 N 
ATOM      5  C   UNL     1       3.697   2.831  20.067  0.00  0.00    +0.000 C 
ATOM      6  C   UNL     1       2.366   2.394  20.674  0.00  0.00    +0.000 C 
ATOM      7  C   UNL     1       1.702   3.531  21.452  0.00  0.00    +0.000 C 
ATOM      8  C   UNL     1       1.599   4.794  20.597  0.00  0.00    +0.000 C 
ATOM      9  C   UNL     1       2.962   5.185  20.030  0.00  0.00    +0.000 C 
ENDBRANCH   1   2
BRANCH   1  10
ATOM     10  C   UNL     1       5.227   6.142  17.296  0.00  0.00    +0.000 C 
BRANCH  10  15
ATOM     11  C   UNL     1       6.317   3.960  13.116  0.00  0.00    +0.000 C 
ATOM     12  C   UNL     1       6.570   4.705  14.361  0.00  0.00    +0.000 A 
ATOM     13  N   UNL     1       7.702   5.174  14.838  0.00  0.00    +0.000 NA
ATOM     14  N   UNL     1       7.392   5.789  16.030  0.00  0.00    +0.000 NA
ATOM     15  C   UNL     1       6.092   5.656  16.193  0.00  0.00    +0.000 A 
ATOM     16  O   UNL     1       5.496   4.973  15.166  0.00  0.00    +0.000 OA
ENDBRANCH  10  15
ENDBRANCH   1  10
TORSDOF 3
ENDMDL
MODEL 9
REMARK VINA RESULT:      -6.7      1.795      2.823
REMARK  Name = 
REMARK  4 active torsions:
REMARK  status: ('A' for Active; 'I' for Inactive)
REMARK    1  A    between atoms: C_1  and  C_2
REMARK    2  A    between atoms: C_5  and  C_6
REMARK    3  A    between atoms: C_6  and  C_7
REMARK    4  A    between atoms: C_7  and  C_8
REMARK                            x       y       z     vdW  Elec       q    Type
REMARK                         _______ _______ _______ _____ _____    ______ ____
ROOT
ATOM      1  C   UNL     1       3.945   3.867  16.786  0.00  0.00    +0.000 C 
ENDROOT
BRANCH   1   2
ATOM      2  C   UNL     1       3.757   2.879  17.917  0.00  0.00    +0.000 C 
ATOM      3  O   UNL     1       3.729   1.666  17.704  0.00  0.00    +0.000 OA
ATOM      4  N   UNL     1       3.642   3.419  19.194  0.00  0.00    +0.000 N 
ATOM      5  C   UNL     1       3.612   2.532  20.355  0.00  0.00    +0.000 C 
ATOM      6  C   UNL     1       2.345   2.749  21.180  0.00  0.00    +0.000 C 
ATOM      7  C   UNL     1       2.149   4.225  21.530  0.00  0.00    +0.000 C 
ATOM      8  C   UNL     1       2.221   5.100  20.279  0.00  0.00    +0.000 C 
ATOM      9  C   UNL     1       3.513   4.845  19.505  0.00  0.00    +0.000 C 
ENDBRANCH   1   2
BRANCH   1  10
ATOM     10  C   UNL     1       5.292   3.711  16.087  0.00  0.00    +0.000 C 
BRANCH  10  15
ATOM     11  C   UNL     1       8.051   6.492  18.929  0.00  0.00    +0.000 C 
ATOM     12  C   UNL     1       7.403   6.053  17.681  0.00  0.00    +0.000 A 
ATOM     13  N   UNL     1       7.472   6.574  16.476  0.00  0.00    +0.000 NA
ATOM     14  N   UNL     1       6.681   5.787  15.669  0.00  0.00    +0.000 NA
ATOM     15  C   UNL     1       6.191   4.837  16.440  0.00  0.00    +0.000 A 
ATOM     16  O   UNL     1       6.607   4.941  17.740  0.00  0.00    +0.000 OA
ENDBRANCH  10  15
ENDBRANCH   1  10
TORSDOF 3
ENDMDL
