MODEL 1
REMARK VINA RESULT:      -6.5      0.000      0.000
REMARK  Name = 
REMARK  11 active torsions:
REMARK  status: ('A' for Active; 'I' for Inactive)
REMARK    1  A    between atoms: C_1  and  C_2
REMARK    2  A    between atoms: C_6  and  C_7
REMARK    3  A    between atoms: C_14  and  C_15
REMARK    4  A    between atoms: C_15  and  O_16
REMARK    5  A    between atoms: C_15  and  C_21
REMARK    6  A    between atoms: O_16  and  C_17
REMARK    7  A    between atoms: C_17  and  C_18
REMARK    8  A    between atoms: C_17  and  C_19
REMARK    9  A    between atoms: C_17  and  C_20
REMARK   10  A    between atoms: C_21  and  O_23
REMARK   11  A    between atoms: C_24  and  C_25
REMARK                            x       y       z     vdW  Elec       q    Type
REMARK                         _______ _______ _______ _____ _____    ______ ____
ROOT
ATOM      1  C   UNL     1      -3.921  10.102  14.551  0.00  0.00    +0.000 C 
ATOM      2  C   UNL     1      -3.578  10.639  15.905  0.00  0.00    +0.000 A 
ATOM      3  C   UNL     1      -4.462  11.442  16.606  0.00  0.00    +0.000 A 
ATOM      4  C   UNL     1      -4.139  11.868  17.900  0.00  0.00    +0.000 A 
ATOM      5  C   UNL     1      -2.894  11.576  18.540  0.00  0.00    +0.000 A 
ATOM      6  C   UNL     1      -2.451  12.041  19.850  0.00  0.00    +0.000 A 
ATOM      7  C   UNL     1      -1.164  11.569  20.336  0.00  0.00    +0.000 A 
ATOM      8  C   UNL     1      -0.405  10.746  19.472  0.00  0.00    +0.000 A 
ATOM      9  C   UNL     1       0.970  10.192  19.727  0.00  0.00    +0.000 C 
ATOM     10  N   UNL     1      -0.856  10.338  18.268  0.00  0.00    +0.000 NA
ATOM     11  C   UNL     1      -2.033  10.747  17.807  0.00  0.00    +0.000 A 
ATOM     12  C   UNL     1      -2.383  10.285  16.537  0.00  0.00    +0.000 A 
ENDROOT
BRANCH   6  13
ATOM     13  C   UNL     1      -3.357  12.978  20.630  0.00  0.00    +0.000 A 
ATOM     14  C   UNL     1      -3.186  14.375  20.661  0.00  0.00    +0.000 A 
ATOM     15  C   UNL     1      -3.924  15.210  21.513  0.00  0.00    +0.000 A 
ATOM     16  C   UNL     1      -4.770  14.654  22.458  0.00  0.00    +0.000 A 
ATOM     17 CL   UNL     1      -5.489  15.653  23.657  0.00  0.00    +0.000 Cl
ATOM     18  C   UNL     1      -4.989  13.286  22.457  0.00  0.00    +0.000 A 
ATOM     19  C   UNL     1      -4.354  12.477  21.498  0.00  0.00    +0.000 A 
ENDBRANCH   6  13
BRANCH   7  20
ATOM     20  C   UNL     1      -0.587  12.005  21.702  0.00  0.00    +0.000 C 
BRANCH  20  21
ATOM     21  C   UNL     1      -0.913  11.128  22.951  0.00  0.00    +0.000 C 
ATOM     22  O   UNL     1      -0.137  10.353  23.492  0.00  0.00    +0.000 OA
BRANCH  21  23
ATOM     23  O   UNL     1      -2.136  11.356  23.500  0.00  0.00    +0.000 OA
ATOM     24  H   UNL     1      -2.804  11.741  22.902  0.00  0.00    +0.000 HD
ENDBRANCH  21  23
ENDBRANCH  20  21
BRANCH  20  25
ATOM     25  O   UNL     1       0.604  12.763  21.581  0.00  0.00    +0.000 OA
BRANCH  25  26
ATOM     26  C   UNL     1       0.632  14.190  21.541  0.00  0.00    +0.000 C 
ATOM     27  C   UNL     1      -0.181  14.842  22.657  0.00  0.00    +0.000 C 
ATOM     28  C   UNL     1       2.112  14.544  21.776  0.00  0.00    +0.000 C 
ATOM     29  C   UNL     1       0.228  14.753  20.176  0.00  0.00    +0.000 C 
ENDBRANCH  25  26
ENDBRANCH  20  25
ENDBRANCH   7  20
TORSDOF 6
ENDMDL
MODEL 2
REMARK VINA RESULT:      -6.4      0.505      1.185
REMARK  Name = 
REMARK  11 active torsions:
REMARK  status: ('A' for Active; 'I' for Inactive)
REMARK    1  A    between atoms: C_1  and  C_2
REMARK    2  A    between atoms: C_6  and  C_7
REMARK    3  A    between atoms: C_14  and  C_15
REMARK    4  A    between atoms: C_15  and  O_16
REMARK    5  A    between atoms: C_15  and  C_21
REMARK    6  A    between atoms: O_16  and  C_17
REMARK    7  A    between atoms: C_17  and  C_18
REMARK    8  A    between atoms: C_17  and  C_19
REMARK    9  A    between atoms: C_17  and  C_20
REMARK   10  A    between atoms: C_21  and  O_23
REMARK   11  A    between atoms: C_24  and  C_25
REMARK                            x       y       z     vdW  Elec       q    Type
REMARK                         _______ _______ _______ _____ _____    ______ ____
ROOT
ATOM      1  C   UNL     1      -3.849   9.983  14.498  0.00  0.00    +0.000 C 
ATOM      2  C   UNL     1      -3.498  10.532  15.846  0.00  0.00    +0.000 A 
ATOM      3  C   UNL     1      -4.376  11.347  16.542  0.00  0.00    +0.000 A 
ATOM      4  C   UNL     1      -4.046  11.783  17.831  0.00  0.00    +0.000 A 
ATOM      5  C   UNL     1      -2.800  11.491  18.469  0.00  0.00    +0.000 A 
ATOM      6  C   UNL     1      -2.350  11.967  19.773  0.00  0.00    +0.000 A 
ATOM      7  C   UNL     1      -1.063  11.493  20.259  0.00  0.00    +0.000 A 
ATOM      8  C   UNL     1      -0.312  10.657  19.400  0.00  0.00    +0.000 A 
ATOM      9  C   UNL     1       1.061  10.099  19.656  0.00  0.00    +0.000 C 
ATOM     10  N   UNL     1      -0.769  10.240  18.202  0.00  0.00    +0.000 NA
ATOM     11  C   UNL     1      -1.946  10.651  17.740  0.00  0.00    +0.000 A 
ATOM     12  C   UNL     1      -2.303  10.178  16.477  0.00  0.00    +0.000 A 
ENDROOT
BRANCH   6  13
ATOM     13  C   UNL     1      -3.248  12.916  20.546  0.00  0.00    +0.000 A 
ATOM     14  C   UNL     1      -4.485  12.535  21.100  0.00  0.00    +0.000 A 
ATOM     15  C   UNL     1      -5.378  13.458  21.666  0.00  0.00    +0.000 A 
ATOM     16  C   UNL     1      -5.114  14.815  21.578  0.00  0.00    +0.000 A 
ATOM     17 CL   UNL     1      -6.311  15.953  22.052  0.00  0.00    +0.000 Cl
ATOM     18  C   UNL     1      -3.901  15.241  21.060  0.00  0.00    +0.000 A 
ATOM     19  C   UNL     1      -2.952  14.297  20.632  0.00  0.00    +0.000 A 
ENDBRANCH   6  13
BRANCH   7  20
ATOM     20  C   UNL     1      -0.479  11.940  21.618  0.00  0.00    +0.000 C 
BRANCH  20  21
ATOM     21  C   UNL     1      -0.908  11.153  22.895  0.00  0.00    +0.000 C 
ATOM     22  O   UNL     1      -2.017  11.193  23.411  0.00  0.00    +0.000 OA
BRANCH  21  23
ATOM     23  O   UNL     1       0.031  10.293  23.374  0.00  0.00    +0.000 OA
ATOM     24  H   UNL     1       0.944  10.451  23.069  0.00  0.00    +0.000 HD
ENDBRANCH  21  23
ENDBRANCH  20  21
BRANCH  20  25
ATOM     25  O   UNL     1       0.777  12.584  21.493  0.00  0.00    +0.000 OA
BRANCH  25  26
ATOM     26  C   UNL     1       0.926  13.985  21.259  0.00  0.00    +0.000 C 
ATOM     27  C   UNL     1       0.185  14.850  22.276  0.00  0.00    +0.000 C 
ATOM     28  C   UNL     1       2.434  14.237  21.444  0.00  0.00    +0.000 C 
ATOM     29  C   UNL     1       0.555  14.390  19.830  0.00  0.00    +0.000 C 
ENDBRANCH  25  26
ENDBRANCH  20  25
ENDBRANCH   7  20
TORSDOF 6
ENDMDL
MODEL 3
REMARK VINA RESULT:      -6.1      2.902      4.870
REMARK  Name = 
REMARK  11 active torsions:
REMARK  status: ('A' for Active; 'I' for Inactive)
REMARK    1  A    between atoms: C_1  and  C_2
REMARK    2  A    between atoms: C_6  and  C_7
REMARK    3  A    between atoms: C_14  and  C_15
REMARK    4  A    between atoms: C_15  and  O_16
REMARK    5  A    between atoms: C_15  and  C_21
REMARK    6  A    between atoms: O_16  and  C_17
REMARK    7  A    between atoms: C_17  and  C_18
REMARK    8  A    between atoms: C_17  and  C_19
REMARK    9  A    between atoms: C_17  and  C_20
REMARK   10  A    between atoms: C_21  and  O_23
REMARK   11  A    between atoms: C_24  and  C_25
REMARK                            x       y       z     vdW  Elec       q    Type
REMARK                         _______ _______ _______ _____ _____    ______ ____
ROOT
ATOM      1  C   UNL     1      -4.309  10.413  14.725  0.00  0.00    +0.000 C 
ATOM      2  C   UNL     1      -3.378  10.412  15.897  0.00  0.00    +0.000 A 
ATOM      3  C   UNL     1      -2.300   9.545  15.960  0.00  0.00    +0.000 A 
ATOM      4  C   UNL     1      -1.408   9.621  17.035  0.00  0.00    +0.000 A 
ATOM      5  C   UNL     1      -1.575  10.515  18.139  0.00  0.00    +0.000 A 
ATOM      6  C   UNL     1      -0.737  10.606  19.330  0.00  0.00    +0.000 A 
ATOM      7  C   UNL     1      -1.056  11.636  20.305  0.00  0.00    +0.000 A 
ATOM      8  C   UNL     1      -2.199  12.433  20.060  0.00  0.00    +0.000 A 
ATOM      9  C   UNL     1      -2.758  13.509  20.948  0.00  0.00    +0.000 C 
ATOM     10  N   UNL     1      -2.945  12.315  18.942  0.00  0.00    +0.000 NA
ATOM     11  C   UNL     1      -2.667  11.389  18.031  0.00  0.00    +0.000 A 
ATOM     12  C   UNL     1      -3.524  11.341  16.930  0.00  0.00    +0.000 A 
ENDROOT
BRANCH   6  13
ATOM     13  C   UNL     1       0.419   9.631  19.477  0.00  0.00    +0.000 A 
ATOM     14  C   UNL     1       1.373   9.401  18.468  0.00  0.00    +0.000 A 
ATOM     15  C   UNL     1       2.334   8.383  18.551  0.00  0.00    +0.000 A 
ATOM     16  C   UNL     1       2.285   7.475  19.597  0.00  0.00    +0.000 A 
ATOM     17 CL   UNL     1       3.303   6.090  19.576  0.00  0.00    +0.000 Cl
ATOM     18  C   UNL     1       1.378   7.668  20.626  0.00  0.00    +0.000 A 
ATOM     19  C   UNL     1       0.519   8.780  20.602  0.00  0.00    +0.000 A 
ENDBRANCH   6  13
BRANCH   7  20
ATOM     20  C   UNL     1      -0.246  11.817  21.609  0.00  0.00    +0.000 C 
BRANCH  20  21
ATOM     21  C   UNL     1      -0.662  10.976  22.855  0.00  0.00    +0.000 C 
ATOM     22  O   UNL     1       0.068  10.207  23.464  0.00  0.00    +0.000 OA
BRANCH  21  23
ATOM     23  O   UNL     1      -1.916  11.231  23.318  0.00  0.00    +0.000 OA
ATOM     24  H   UNL     1      -2.647  10.907  22.760  0.00  0.00    +0.000 HD
ENDBRANCH  21  23
ENDBRANCH  20  21
BRANCH  20  25
ATOM     25  O   UNL     1       1.085  12.245  21.376  0.00  0.00    +0.000 OA
BRANCH  25  26
ATOM     26  C   UNL     1       1.427  13.566  20.954  0.00  0.00    +0.000 C 
ATOM     27  C   UNL     1       0.702  14.658  21.737  0.00  0.00    +0.000 C 
ATOM     28  C   UNL     1       2.930  13.684  21.275  0.00  0.00    +0.000 C 
ATOM     29  C   UNL     1       1.253  13.771  19.448  0.00  0.00    +0.000 C 
ENDBRANCH  25  26
ENDBRANCH  20  25
ENDBRANCH   7  20
TORSDOF 6
ENDMDL
MODEL 4
REMARK VINA RESULT:      -6.0      2.851      5.128
REMARK  Name = 
REMARK  11 active torsions:
REMARK  status: ('A' for Active; 'I' for Inactive)
REMARK    1  A    between atoms: C_1  and  C_2
REMARK    2  A    between atoms: C_6  and  C_7
REMARK    3  A    between atoms: C_14  and  C_15
REMARK    4  A    between atoms: C_15  and  O_16
REMARK    5  A    between atoms: C_15  and  C_21
REMARK    6  A    between atoms: O_16  and  C_17
REMARK    7  A    between atoms: C_17  and  C_18
REMARK    8  A    between atoms: C_17  and  C_19
REMARK    9  A    between atoms: C_17  and  C_20
REMARK   10  A    between atoms: C_21  and  O_23
REMARK   11  A    between atoms: C_24  and  C_25
REMARK                            x       y       z     vdW  Elec       q    Type
REMARK                         _______ _______ _______ _____ _____    ______ ____
ROOT
ATOM      1  C   UNL     1       1.583   9.833  18.219  0.00  0.00    +0.000 C 
ATOM      2  C   UNL     1       0.369  10.505  18.779  0.00  0.00    +0.000 A 
ATOM      3  C   UNL     1       0.422  11.214  19.968  0.00  0.00    +0.000 A 
ATOM      4  C   UNL     1      -0.715  11.892  20.425  0.00  0.00    +0.000 A 
ATOM      5  C   UNL     1      -1.981  11.845  19.764  0.00  0.00    +0.000 A 
ATOM      6  C   UNL     1      -3.228  12.458  20.211  0.00  0.00    +0.000 A 
ATOM      7  C   UNL     1      -4.391  12.336  19.346  0.00  0.00    +0.000 A 
ATOM      8  C   UNL     1      -4.245  11.574  18.164  0.00  0.00    +0.000 A 
ATOM      9  C   UNL     1      -5.313  11.258  17.154  0.00  0.00    +0.000 C 
ATOM     10  N   UNL     1      -3.071  11.026  17.788  0.00  0.00    +0.000 NA
ATOM     11  C   UNL     1      -1.991  11.132  18.556  0.00  0.00    +0.000 A 
ATOM     12  C   UNL     1      -0.841  10.502  18.080  0.00  0.00    +0.000 A 
ENDROOT
BRANCH   6  13
ATOM     13  C   UNL     1      -3.237  13.190  21.542  0.00  0.00    +0.000 A 
ATOM     14  C   UNL     1      -2.836  14.531  21.692  0.00  0.00    +0.000 A 
ATOM     15  C   UNL     1      -2.692  15.143  22.946  0.00  0.00    +0.000 A 
ATOM     16  C   UNL     1      -2.821  14.387  24.100  0.00  0.00    +0.000 A 
ATOM     17 CL   UNL     1      -2.411  15.071  25.622  0.00  0.00    +0.000 Cl
ATOM     18  C   UNL     1      -3.234  13.067  24.008  0.00  0.00    +0.000 A 
ATOM     19  C   UNL     1      -3.519  12.510  22.749  0.00  0.00    +0.000 A 
ENDBRANCH   6  13
BRANCH   7  20
ATOM     20  C   UNL     1      -5.766  12.933  19.723  0.00  0.00    +0.000 C 
BRANCH  20  21
ATOM     21  C   UNL     1      -6.758  12.040  20.530  0.00  0.00    +0.000 C 
ATOM     22  O   UNL     1      -6.783  11.936  21.749  0.00  0.00    +0.000 OA
BRANCH  21  23
ATOM     23  O   UNL     1      -7.712  11.429  19.778  0.00  0.00    +0.000 OA
ATOM     24  H   UNL     1      -7.977  11.901  18.966  0.00  0.00    +0.000 HD
ENDBRANCH  21  23
ENDBRANCH  20  21
BRANCH  20  25
ATOM     25  O   UNL     1      -5.744  14.347  19.821  0.00  0.00    +0.000 OA
BRANCH  25  26
ATOM     26  C   UNL     1      -6.578  15.206  19.042  0.00  0.00    +0.000 C 
ATOM     27  C   UNL     1      -6.930  14.628  17.674  0.00  0.00    +0.000 C 
ATOM     28  C   UNL     1      -7.882  15.302  19.857  0.00  0.00    +0.000 C 
ATOM     29  C   UNL     1      -6.007  16.619  18.904  0.00  0.00    +0.000 C 
ENDBRANCH  25  26
ENDBRANCH  20  25
ENDBRANCH   7  20
TORSDOF 6
ENDMDL
MODEL 5
REMARK VINA RESULT:      -6.0      1.033      1.470
REMARK  Name = 
REMARK  11 active torsions:
REMARK  status: ('A' for Active; 'I' for Inactive)
REMARK    1  A    between atoms: C_1  and  C_2
REMARK    2  A    between atoms: C_6  and  C_7
REMARK    3  A    between atoms: C_14  and  C_15
REMARK    4  A    between atoms: C_15  and  O_16
REMARK    5  A    between atoms: C_15  and  C_21
REMARK    6  A    between atoms: O_16  and  C_17
REMARK    7  A    between atoms: C_17  and  C_18
REMARK    8  A    between atoms: C_17  and  C_19
REMARK    9  A    between atoms: C_17  and  C_20
REMARK   10  A    between atoms: C_21  and  O_23
REMARK   11  A    between atoms: C_24  and  C_25
REMARK                            x       y       z     vdW  Elec       q    Type
REMARK                         _______ _______ _______ _____ _____    ______ ____
ROOT
ATOM      1  C   UNL     1      -4.125   9.979  14.312  0.00  0.00    +0.000 C 
ATOM      2  C   UNL     1      -3.571  10.452  15.620  0.00  0.00    +0.000 A 
ATOM      3  C   UNL     1      -4.277  11.330  16.425  0.00  0.00    +0.000 A 
ATOM      4  C   UNL     1      -3.762  11.695  17.675  0.00  0.00    +0.000 A 
ATOM      5  C   UNL     1      -2.489  11.263  18.161  0.00  0.00    +0.000 A 
ATOM      6  C   UNL     1      -1.848  11.655  19.412  0.00  0.00    +0.000 A 
ATOM      7  C   UNL     1      -0.570  11.042  19.740  0.00  0.00    +0.000 A 
ATOM      8  C   UNL     1      -0.009  10.160  18.787  0.00  0.00    +0.000 A 
ATOM      9  C   UNL     1       1.319   9.461  18.874  0.00  0.00    +0.000 C 
ATOM     10  N   UNL     1      -0.639   9.825  17.642  0.00  0.00    +0.000 NA
ATOM     11  C   UNL     1      -1.812  10.363  17.325  0.00  0.00    +0.000 A 
ATOM     12  C   UNL     1      -2.355   9.963  16.104  0.00  0.00    +0.000 A 
ENDROOT
BRANCH   6  13
ATOM     13  C   UNL     1      -2.553  12.666  20.300  0.00  0.00    +0.000 A 
ATOM     14  C   UNL     1      -2.488  14.057  20.093  0.00  0.00    +0.000 A 
ATOM     15  C   UNL     1      -3.004  14.985  21.010  0.00  0.00    +0.000 A 
ATOM     16  C   UNL     1      -3.487  14.547  22.233  0.00  0.00    +0.000 A 
ATOM     17 CL   UNL     1      -3.894  15.689  23.451  0.00  0.00    +0.000 Cl
ATOM     18  C   UNL     1      -3.591  13.187  22.478  0.00  0.00    +0.000 A 
ATOM     19  C   UNL     1      -3.208  12.267  21.488  0.00  0.00    +0.000 A 
ENDBRANCH   6  13
BRANCH   7  20
ATOM     20  C   UNL     1       0.205  11.390  21.031  0.00  0.00    +0.000 C 
BRANCH  20  21
ATOM     21  C   UNL     1       0.040  10.447  22.263  0.00  0.00    +0.000 C 
ATOM     22  O   UNL     1      -1.028  10.081  22.734  0.00  0.00    +0.000 OA
BRANCH  21  23
ATOM     23  O   UNL     1       1.205   9.942  22.751  0.00  0.00    +0.000 OA
ATOM     24  H   UNL     1       2.021  10.301  22.354  0.00  0.00    +0.000 HD
ENDBRANCH  21  23
ENDBRANCH  20  21
BRANCH  20  25
ATOM     25  O   UNL     1       1.384  12.136  20.781  0.00  0.00    +0.000 OA
BRANCH  25  26
ATOM     26  C   UNL     1       1.465  13.554  20.921  0.00  0.00    +0.000 C 
ATOM     27  C   UNL     1       2.877  14.053  21.220  0.00  0.00    +0.000 C 
ATOM     28  C   UNL     1       1.066  14.092  19.534  0.00  0.00    +0.000 C 
ATOM     29  C   UNL     1       0.467  14.107  21.942  0.00  0.00    +0.000 C 
ENDBRANCH  25  26
ENDBRANCH  20  25
ENDBRANCH   7  20
TORSDOF 6
ENDMDL
MODEL 6
REMARK VINA RESULT:      -5.9      2.923      5.118
REMARK  Name = 
REMARK  11 active torsions:
REMARK  status: ('A' for Active; 'I' for Inactive)
REMARK    1  A    between atoms: C_1  and  C_2
REMARK    2  A    between atoms: C_6  and  C_7
REMARK    3  A    between atoms: C_14  and  C_15
REMARK    4  A    between atoms: C_15  and  O_16
REMARK    5  A    between atoms: C_15  and  C_21
REMARK    6  A    between atoms: O_16  and  C_17
REMARK    7  A    between atoms: C_17  and  C_18
REMARK    8  A    between atoms: C_17  and  C_19
REMARK    9  A    between atoms: C_17  and  C_20
REMARK   10  A    between atoms: C_21  and  O_23
REMARK   11  A    between atoms: C_24  and  C_25
REMARK                            x       y       z     vdW  Elec       q    Type
REMARK                         _______ _______ _______ _____ _____    ______ ____
ROOT
ATOM      1  C   UNL     1       1.154   9.551  17.921  0.00  0.00    +0.000 C 
ATOM      2  C   UNL     1       0.053  10.322  18.580  0.00  0.00    +0.000 A 
ATOM      3  C   UNL     1       0.288  11.093  19.706  0.00  0.00    +0.000 A 
ATOM      4  C   UNL     1      -0.748  11.858  20.254  0.00  0.00    +0.000 A 
ATOM      5  C   UNL     1      -2.088  11.846  19.754  0.00  0.00    +0.000 A 
ATOM      6  C   UNL     1      -3.238  12.552  20.310  0.00  0.00    +0.000 A 
ATOM      7  C   UNL     1      -4.504  12.448  19.601  0.00  0.00    +0.000 A 
ATOM      8  C   UNL     1      -4.543  11.613  18.460  0.00  0.00    +0.000 A 
ATOM      9  C   UNL     1      -5.742  11.301  17.608  0.00  0.00    +0.000 C 
ATOM     10  N   UNL     1      -3.453  10.979  17.981  0.00  0.00    +0.000 NA
ATOM     11  C   UNL     1      -2.283  11.068  18.604  0.00  0.00    +0.000 A 
ATOM     12  C   UNL     1      -1.232  10.347  18.034  0.00  0.00    +0.000 A 
ENDROOT
BRANCH   6  13
ATOM     13  C   UNL     1      -3.046  13.358  21.583  0.00  0.00    +0.000 A 
ATOM     14  C   UNL     1      -3.297  12.846  22.870  0.00  0.00    +0.000 A 
ATOM     15  C   UNL     1      -3.275  13.647  24.022  0.00  0.00    +0.000 A 
ATOM     16  C   UNL     1      -3.128  15.020  23.903  0.00  0.00    +0.000 A 
ATOM     17 CL   UNL     1      -3.341  16.026  25.279  0.00  0.00    +0.000 Cl
ATOM     18  C   UNL     1      -2.859  15.572  22.661  0.00  0.00    +0.000 A 
ATOM     19  C   UNL     1      -2.736  14.737  21.536  0.00  0.00    +0.000 A 
ENDBRANCH   6  13
BRANCH   7  20
ATOM     20  C   UNL     1      -5.790  13.142  20.103  0.00  0.00    +0.000 C 
BRANCH  20  21
ATOM     21  C   UNL     1      -6.519  12.532  21.340  0.00  0.00    +0.000 C 
ATOM     22  O   UNL     1      -6.912  13.163  22.310  0.00  0.00    +0.000 OA
BRANCH  21  23
ATOM     23  O   UNL     1      -6.803  11.206  21.233  0.00  0.00    +0.000 OA
ATOM     24  H   UNL     1      -6.639  10.672  22.033  0.00  0.00    +0.000 HD
ENDBRANCH  21  23
ENDBRANCH  20  21
BRANCH  20  25
ATOM     25  O   UNL     1      -5.830  14.523  19.786  0.00  0.00    +0.000 OA
BRANCH  25  26
ATOM     26  C   UNL     1      -6.984  15.179  19.260  0.00  0.00    +0.000 C 
ATOM     27  C   UNL     1      -7.836  15.856  20.331  0.00  0.00    +0.000 C 
ATOM     28  C   UNL     1      -6.407  16.285  18.356  0.00  0.00    +0.000 C 
ATOM     29  C   UNL     1      -7.841  14.261  18.385  0.00  0.00    +0.000 C 
ENDBRANCH  25  26
ENDBRANCH  20  25
ENDBRANCH   7  20
TORSDOF 6
ENDMDL
MODEL 7
REMARK VINA RESULT:      -5.9      2.428      4.439
REMARK  Name = 
REMARK  11 active torsions:
REMARK  status: ('A' for Active; 'I' for Inactive)
REMARK    1  A    between atoms: C_1  and  C_2
REMARK    2  A    between atoms: C_6  and  C_7
REMARK    3  A    between atoms: C_14  and  C_15
REMARK    4  A    between atoms: C_15  and  O_16
REMARK    5  A    between atoms: C_15  and  C_21
REMARK    6  A    between atoms: O_16  and  C_17
REMARK    7  A    between atoms: C_17  and  C_18
REMARK    8  A    between atoms: C_17  and  C_19
REMARK    9  A    between atoms: C_17  and  C_20
REMARK   10  A    between atoms: C_21  and  O_23
REMARK   11  A    between atoms: C_24  and  C_25
REMARK                            x       y       z     vdW  Elec       q    Type
REMARK                         _______ _______ _______ _____ _____    ______ ____
ROOT
ATOM      1  C   UNL     1      -3.835  10.072  14.707  0.00  0.00    +0.000 C 
ATOM      2  C   UNL     1      -3.536  10.675  16.043  0.00  0.00    +0.000 A 
ATOM      3  C   UNL     1      -2.247  11.040  16.396  0.00  0.00    +0.000 A 
ATOM      4  C   UNL     1      -2.014  11.668  17.625  0.00  0.00    +0.000 A 
ATOM      5  C   UNL     1      -3.035  11.904  18.598  0.00  0.00    +0.000 A 
ATOM      6  C   UNL     1      -2.864  12.481  19.927  0.00  0.00    +0.000 A 
ATOM      7  C   UNL     1      -4.057  12.689  20.734  0.00  0.00    +0.000 A 
ATOM      8  C   UNL     1      -5.290  12.253  20.195  0.00  0.00    +0.000 A 
ATOM      9  C   UNL     1      -6.636  12.305  20.862  0.00  0.00    +0.000 C 
ATOM     10  N   UNL     1      -5.401  11.726  18.959  0.00  0.00    +0.000 NA
ATOM     11  C   UNL     1      -4.328  11.536  18.199  0.00  0.00    +0.000 A 
ATOM     12  C   UNL     1      -4.560  10.956  16.950  0.00  0.00    +0.000 A 
ENDROOT
BRANCH   6  13
ATOM     13  C   UNL     1      -1.460  12.838  20.386  0.00  0.00    +0.000 A 
ATOM     14  C   UNL     1      -0.920  14.134  20.293  0.00  0.00    +0.000 A 
ATOM     15  C   UNL     1       0.428  14.414  20.565  0.00  0.00    +0.000 A 
ATOM     16  C   UNL     1       1.310  13.376  20.815  0.00  0.00    +0.000 A 
ATOM     17 CL   UNL     1       2.997  13.690  20.909  0.00  0.00    +0.000 Cl
ATOM     18  C   UNL     1       0.825  12.083  20.937  0.00  0.00    +0.000 A 
ATOM     19  C   UNL     1      -0.553  11.838  20.808  0.00  0.00    +0.000 A 
ENDBRANCH   6  13
BRANCH   7  20
ATOM     20  C   UNL     1      -3.995  13.281  22.160  0.00  0.00    +0.000 C 
BRANCH  20  21
ATOM     21  C   UNL     1      -3.617  12.326  23.335  0.00  0.00    +0.000 C 
ATOM     22  O   UNL     1      -2.496  11.890  23.558  0.00  0.00    +0.000 OA
BRANCH  21  23
ATOM     23  O   UNL     1      -4.629  12.072  24.208  0.00  0.00    +0.000 OA
ATOM     24  H   UNL     1      -4.738  11.139  24.469  0.00  0.00    +0.000 HD
ENDBRANCH  21  23
ENDBRANCH  20  21
BRANCH  20  25
ATOM     25  O   UNL     1      -3.708  14.668  22.169  0.00  0.00    +0.000 OA
BRANCH  25  26
ATOM     26  C   UNL     1      -4.705  15.681  22.309  0.00  0.00    +0.000 C 
ATOM     27  C   UNL     1      -5.744  15.361  23.381  0.00  0.00    +0.000 C 
ATOM     28  C   UNL     1      -3.919  16.920  22.778  0.00  0.00    +0.000 C 
ATOM     29  C   UNL     1      -5.384  16.031  20.983  0.00  0.00    +0.000 C 
ENDBRANCH  25  26
ENDBRANCH  20  25
ENDBRANCH   7  20
TORSDOF 6
ENDMDL
MODEL 8
REMARK VINA RESULT:      -5.7      2.634      5.014
REMARK  Name = 
REMARK  11 active torsions:
REMARK  status: ('A' for Active; 'I' for Inactive)
REMARK    1  A    between atoms: C_1  and  C_2
REMARK    2  A    between atoms: C_6  and  C_7
REMARK    3  A    between atoms: C_14  and  C_15
REMARK    4  A    between atoms: C_15  and  O_16
REMARK    5  A    between atoms: C_15  and  C_21
REMARK    6  A    between atoms: O_16  and  C_17
REMARK    7  A    between atoms: C_17  and  C_18
REMARK    8  A    between atoms: C_17  and  C_19
REMARK    9  A    between atoms: C_17  and  C_20
REMARK   10  A    between atoms: C_21  and  O_23
REMARK   11  A    between atoms: C_24  and  C_25
REMARK                            x       y       z     vdW  Elec       q    Type
REMARK                         _______ _______ _______ _____ _____    ______ ____
ROOT
ATOM      1  C   UNL     1      -3.098   9.866  15.635  0.00  0.00    +0.000 C 
ATOM      2  C   UNL     1      -3.191  10.646  16.909  0.00  0.00    +0.000 A 
ATOM      3  C   UNL     1      -2.111  11.367  17.392  0.00  0.00    +0.000 A 
ATOM      4  C   UNL     1      -2.255  12.144  18.548  0.00  0.00    +0.000 A 
ATOM      5  C   UNL     1      -3.456  12.193  19.322  0.00  0.00    +0.000 A 
ATOM      6  C   UNL     1      -3.664  12.914  20.574  0.00  0.00    +0.000 A 
ATOM      7  C   UNL     1      -4.993  12.876  21.164  0.00  0.00    +0.000 A 
ATOM      8  C   UNL     1      -5.970  12.086  20.515  0.00  0.00    +0.000 A 
ATOM      9  C   UNL     1      -7.383  11.844  20.968  0.00  0.00    +0.000 C 
ATOM     10  N   UNL     1      -5.733  11.436  19.357  0.00  0.00    +0.000 NA
ATOM     11  C   UNL     1      -4.530  11.464  18.793  0.00  0.00    +0.000 A 
ATOM     12  C   UNL     1      -4.395  10.733  17.612  0.00  0.00    +0.000 A 
ENDROOT
BRANCH   6  13
ATOM     13  C   UNL     1      -2.491  13.665  21.179  0.00  0.00    +0.000 A 
ATOM     14  C   UNL     1      -2.201  15.012  20.891  0.00  0.00    +0.000 A 
ATOM     15  C   UNL     1      -1.025  15.643  21.326  0.00  0.00    +0.000 A 
ATOM     16  C   UNL     1      -0.038  14.903  21.956  0.00  0.00    +0.000 A 
ATOM     17 CL   UNL     1       1.494  15.613  22.272  0.00  0.00    +0.000 Cl
ATOM     18  C   UNL     1      -0.282  13.578  22.280  0.00  0.00    +0.000 A 
ATOM     19  C   UNL     1      -1.525  12.999  21.970  0.00  0.00    +0.000 A 
ENDBRANCH   6  13
BRANCH   7  20
ATOM     20  C   UNL     1      -5.326  13.591  22.493  0.00  0.00    +0.000 C 
BRANCH  20  21
ATOM     21  C   UNL     1      -4.668  13.053  23.802  0.00  0.00    +0.000 C 
ATOM     22  O   UNL     1      -4.404  11.881  24.029  0.00  0.00    +0.000 OA
BRANCH  21  23
ATOM     23  O   UNL     1      -4.287  14.017  24.682  0.00  0.00    +0.000 OA
ATOM     24  H   UNL     1      -4.234  13.740  25.616  0.00  0.00    +0.000 HD
ENDBRANCH  21  23
ENDBRANCH  20  21
BRANCH  20  25
ATOM     25  O   UNL     1      -5.687  14.950  22.312  0.00  0.00    +0.000 OA
BRANCH  25  26
ATOM     26  C   UNL     1      -6.977  15.473  22.627  0.00  0.00    +0.000 C 
ATOM     27  C   UNL     1      -6.931  16.872  23.235  0.00  0.00    +0.000 C 
ATOM     28  C   UNL     1      -7.681  15.582  21.261  0.00  0.00    +0.000 C 
ATOM     29  C   UNL     1      -7.802  14.527  23.504  0.00  0.00    +0.000 C 
ENDBRANCH  25  26
ENDBRANCH  20  25
ENDBRANCH   7  20
TORSDOF 6
ENDMDL
MODEL 9
REMARK VINA RESULT:      -5.7      1.587      2.956
REMARK  Name = 
REMARK  11 active torsions:
REMARK  status: ('A' for Active; 'I' for Inactive)
REMARK    1  A    between atoms: C_1  and  C_2
REMARK    2  A    between atoms: C_6  and  C_7
REMARK    3  A    between atoms: C_14  and  C_15
REMARK    4  A    between atoms: C_15  and  O_16
REMARK    5  A    between atoms: C_15  and  C_21
REMARK    6  A    between atoms: O_16  and  C_17
REMARK    7  A    between atoms: C_17  and  C_18
REMARK    8  A    between atoms: C_17  and  C_19
REMARK    9  A    between atoms: C_17  and  C_20
REMARK   10  A    between atoms: C_21  and  O_23
REMARK   11  A    between atoms: C_24  and  C_25
REMARK                            x       y       z     vdW  Elec       q    Type
REMARK                         _______ _______ _______ _____ _____    ______ ____
ROOT
ATOM      1  C   UNL     1      -4.243   9.935  14.518  0.00  0.00    +0.000 C 
ATOM      2  C   UNL     1      -3.551  10.420  15.752  0.00  0.00    +0.000 A 
ATOM      3  C   UNL     1      -4.152  11.331  16.605  0.00  0.00    +0.000 A 
ATOM      4  C   UNL     1      -3.506  11.707  17.789  0.00  0.00    +0.000 A 
ATOM      5  C   UNL     1      -2.200  11.254  18.154  0.00  0.00    +0.000 A 
ATOM      6  C   UNL     1      -1.428  11.655  19.326  0.00  0.00    +0.000 A 
ATOM      7  C   UNL     1      -0.138  11.018  19.537  0.00  0.00    +0.000 A 
ATOM      8  C   UNL     1       0.305  10.105  18.552  0.00  0.00    +0.000 A 
ATOM      9  C   UNL     1       1.620   9.376  18.521  0.00  0.00    +0.000 C 
ATOM     10  N   UNL     1      -0.444   9.762  17.484  0.00  0.00    +0.000 NA
ATOM     11  C   UNL     1      -1.631  10.322  17.275  0.00  0.00    +0.000 A 
ATOM     12  C   UNL     1      -2.303   9.912  16.122  0.00  0.00    +0.000 A 
ENDROOT
BRANCH   6  13
ATOM     13  C   UNL     1      -2.017  12.701  20.257  0.00  0.00    +0.000 A 
ATOM     14  C   UNL     1      -1.690  14.068  20.194  0.00  0.00    +0.000 A 
ATOM     15  C   UNL     1      -2.112  14.994  21.160  0.00  0.00    +0.000 A 
ATOM     16  C   UNL     1      -2.769  14.551  22.296  0.00  0.00    +0.000 A 
ATOM     17 CL   UNL     1      -3.072  15.642  23.589  0.00  0.00    +0.000 Cl
ATOM     18  C   UNL     1      -3.133  13.218  22.398  0.00  0.00    +0.000 A 
ATOM     19  C   UNL     1      -2.833  12.329  21.351  0.00  0.00    +0.000 A 
ENDBRANCH   6  13
BRANCH   7  20
ATOM     20  C   UNL     1       0.771  11.373  20.736  0.00  0.00    +0.000 C 
BRANCH  20  21
ATOM     21  C   UNL     1       1.697  12.622  20.610  0.00  0.00    +0.000 C 
ATOM     22  O   UNL     1       2.111  13.291  21.547  0.00  0.00    +0.000 OA
BRANCH  21  23
ATOM     23  O   UNL     1       2.130  12.883  19.348  0.00  0.00    +0.000 OA
ATOM     24  H   UNL     1       1.508  13.375  18.780  0.00  0.00    +0.000 HD
ENDBRANCH  21  23
ENDBRANCH  20  21
BRANCH  20  25
ATOM     25  O   UNL     1       0.254  10.915  21.973  0.00  0.00    +0.000 OA
BRANCH  25  26
ATOM     26  C   UNL     1       0.442   9.588  22.466  0.00  0.00    +0.000 C 
ATOM     27  C   UNL     1       0.117   9.442  23.950  0.00  0.00    +0.000 C 
ATOM     28  C   UNL     1      -0.582   8.748  21.680  0.00  0.00    +0.000 C 
ATOM     29  C   UNL     1       1.836   9.034  22.159  0.00  0.00    +0.000 C 
ENDBRANCH  25  26
ENDBRANCH  20  25
ENDBRANCH   7  20
TORSDOF 6
ENDMDL
