MODEL 1
REMARK VINA RESULT:      -8.3      0.000      0.000
REMARK  Name = 
REMARK  6 active torsions:
REMARK  status: ('A' for Active; 'I' for Inactive)
REMARK    1  A    between atoms: C_1  and  C_2
REMARK    2  A    between atoms: C_6  and  C_7
REMARK    3  A    between atoms: C_7  and  C_8
REMARK    4  A    between atoms: C_8  and  C_9
REMARK    5  A    between atoms: C_8  and  N_15
REMARK    6  A    between atoms: N_18  and  C_19
REMARK                            x       y       z     vdW  Elec       q    Type
REMARK                         _______ _______ _______ _____ _____    ______ ____
ROOT
ATOM      1  C   UNL     1       3.355   5.955  19.190  0.00  0.00    +0.000 C 
ENDROOT
BRANCH   1   2
ATOM      2  C   UNL     1       2.527   4.870  19.895  0.00  0.00    +0.000 A 
ATOM      3  C   UNL     1       2.828   4.371  21.186  0.00  0.00    +0.000 A 
ATOM      4  C   UNL     1       2.156   3.261  21.698  0.00  0.00    +0.000 A 
ATOM      5  C   UNL     1       1.148   2.649  20.956  0.00  0.00    +0.000 A 
ATOM      6  C   UNL     1       0.794   3.162  19.708  0.00  0.00    +0.000 A 
ATOM      7  C   UNL     1       1.478   4.263  19.179  0.00  0.00    +0.000 A 
ENDBRANCH   1   2
BRANCH   1   8
ATOM      8  N   UNL     1       4.550   5.350  18.522  0.00  0.00    +0.000 NA
ATOM      9  C   UNL     1       4.391   4.042  17.847  0.00  0.00    +0.000 C 
ATOM     10  C   UNL     1       4.124   4.173  16.313  0.00  0.00    +0.000 C 
ATOM     11  N   UNL     1       5.032   5.133  15.637  0.00  0.00    +0.000 NA
ATOM     12  C   UNL     1       5.031   6.437  16.329  0.00  0.00    +0.000 C 
ATOM     13  C   UNL     1       5.430   6.292  17.802  0.00  0.00    +0.000 C 
BRANCH  11  14
ATOM     14  C   UNL     1       6.300   4.606  15.033  0.00  0.00    +0.000 C 
ATOM     15  C   UNL     1       6.090   3.304  14.205  0.00  0.00    +0.000 C 
ATOM     16  C   UNL     1       5.692   3.443  12.723  0.00  0.00    +0.000 C 
ATOM     17  C   UNL     1       6.878   3.720  11.801  0.00  0.00    +0.000 C 
ATOM     18  C   UNL     1       7.561   5.072  11.972  0.00  0.00    +0.000 C 
ATOM     19  C   UNL     1       8.210   5.314  13.347  0.00  0.00    +0.000 C 
ATOM     20  C   UNL     1       7.172   5.709  14.398  0.00  0.00    +0.000 C 
ENDBRANCH  11  14
ENDBRANCH   1   8
BRANCH   1  21
ATOM     21  C   UNL     1       2.546   6.898  18.243  0.00  0.00    +0.000 C 
BRANCH  21  27
ATOM     22  C   UNL     1       0.729   9.113  22.334  0.00  0.00    +0.000 C 
ATOM     23  C   UNL     1       1.047   9.199  20.872  0.00  0.00    +0.000 A 
ATOM     24  C   UNL     1       0.858  10.392  20.163  0.00  0.00    +0.000 A 
ATOM     25  C   UNL     1       1.155  10.453  18.801  0.00  0.00    +0.000 A 
ATOM     26  C   UNL     1       1.655   9.331  18.140  0.00  0.00    +0.000 A 
ATOM     27  C   UNL     1       1.894   8.133  18.847  0.00  0.00    +0.000 A 
ATOM     28  C   UNL     1       1.561   8.077  20.210  0.00  0.00    +0.000 A 
ENDBRANCH  21  27
ENDBRANCH   1  21
TORSDOF 5
ENDMDL
MODEL 2
REMARK VINA RESULT:      -8.2      0.511      1.588
REMARK  Name = 
REMARK  6 active torsions:
REMARK  status: ('A' for Active; 'I' for Inactive)
REMARK    1  A    between atoms: C_1  and  C_2
REMARK    2  A    between atoms: C_6  and  C_7
REMARK    3  A    between atoms: C_7  and  C_8
REMARK    4  A    between atoms: C_8  and  C_9
REMARK    5  A    between atoms: C_8  and  N_15
REMARK    6  A    between atoms: N_18  and  C_19
REMARK                            x       y       z     vdW  Elec       q    Type
REMARK                         _______ _______ _______ _____ _____    ______ ____
ROOT
ATOM      1  C   UNL     1       3.677   5.656  19.319  0.00  0.00    +0.000 C 
ENDROOT
BRANCH   1   2
ATOM      2  C   UNL     1       2.769   4.538  19.853  0.00  0.00    +0.000 A 
ATOM      3  C   UNL     1       1.534   4.182  19.256  0.00  0.00    +0.000 A 
ATOM      4  C   UNL     1       0.667   3.290  19.887  0.00  0.00    +0.000 A 
ATOM      5  C   UNL     1       1.023   2.706  21.100  0.00  0.00    +0.000 A 
ATOM      6  C   UNL     1       2.262   2.995  21.674  0.00  0.00    +0.000 A 
ATOM      7  C   UNL     1       3.129   3.905  21.057  0.00  0.00    +0.000 A 
ENDBRANCH   1   2
BRANCH   1   8
ATOM      8  N   UNL     1       4.827   5.077  18.556  0.00  0.00    +0.000 NA
ATOM      9  C   UNL     1       4.592   3.863  17.743  0.00  0.00    +0.000 C 
ATOM     10  C   UNL     1       4.299   4.178  16.241  0.00  0.00    +0.000 C 
ATOM     11  N   UNL     1       5.237   5.167  15.653  0.00  0.00    +0.000 NA
ATOM     12  C   UNL     1       5.313   6.383  16.487  0.00  0.00    +0.000 C 
ATOM     13  C   UNL     1       5.736   6.054  17.924  0.00  0.00    +0.000 C 
BRANCH  11  14
ATOM     14  C   UNL     1       6.465   4.655  14.960  0.00  0.00    +0.000 C 
ATOM     15  C   UNL     1       6.220   3.334  14.174  0.00  0.00    +0.000 C 
ATOM     16  C   UNL     1       5.704   3.436  12.726  0.00  0.00    +0.000 C 
ATOM     17  C   UNL     1       6.808   3.719  11.708  0.00  0.00    +0.000 C 
ATOM     18  C   UNL     1       7.472   5.089  11.802  0.00  0.00    +0.000 C 
ATOM     19  C   UNL     1       8.221   5.370  13.118  0.00  0.00    +0.000 C 
ATOM     20  C   UNL     1       7.260   5.764  14.239  0.00  0.00    +0.000 C 
ENDBRANCH  11  14
ENDBRANCH   1   8
BRANCH   1  21
ATOM     21  C   UNL     1       2.943   6.792  18.537  0.00  0.00    +0.000 C 
BRANCH  21  27
ATOM     22  C   UNL     1       0.181  10.952  18.477  0.00  0.00    +0.000 C 
ATOM     23  C   UNL     1       0.723   9.793  19.256  0.00  0.00    +0.000 A 
ATOM     24  C   UNL     1       0.358   9.590  20.593  0.00  0.00    +0.000 A 
ATOM     25  C   UNL     1       0.876   8.508  21.305  0.00  0.00    +0.000 A 
ATOM     26  C   UNL     1       1.750   7.614  20.687  0.00  0.00    +0.000 A 
ATOM     27  C   UNL     1       2.095   7.776  19.329  0.00  0.00    +0.000 A 
ATOM     28  C   UNL     1       1.591   8.887  18.633  0.00  0.00    +0.000 A 
ENDBRANCH  21  27
ENDBRANCH   1  21
TORSDOF 5
ENDMDL
MODEL 3
REMARK VINA RESULT:      -7.8      2.570      7.584
REMARK  Name = 
REMARK  6 active torsions:
REMARK  status: ('A' for Active; 'I' for Inactive)
REMARK    1  A    between atoms: C_1  and  C_2
REMARK    2  A    between atoms: C_6  and  C_7
REMARK    3  A    between atoms: C_7  and  C_8
REMARK    4  A    between atoms: C_8  and  C_9
REMARK    5  A    between atoms: C_8  and  N_15
REMARK    6  A    between atoms: N_18  and  C_19
REMARK                            x       y       z     vdW  Elec       q    Type
REMARK                         _______ _______ _______ _____ _____    ______ ____
ROOT
ATOM      1  C   UNL     1       3.476   5.599  17.452  0.00  0.00    +0.000 C 
ENDROOT
BRANCH   1   2
ATOM      2  C   UNL     1       2.876   4.353  18.122  0.00  0.00    +0.000 A 
ATOM      3  C   UNL     1       3.651   3.383  18.805  0.00  0.00    +0.000 A 
ATOM      4  C   UNL     1       3.080   2.184  19.231  0.00  0.00    +0.000 A 
ATOM      5  C   UNL     1       1.724   1.940  19.022  0.00  0.00    +0.000 A 
ATOM      6  C   UNL     1       0.931   2.909  18.406  0.00  0.00    +0.000 A 
ATOM      7  C   UNL     1       1.500   4.106  17.958  0.00  0.00    +0.000 A 
ENDBRANCH   1   2
BRANCH   1   8
ATOM      8  N   UNL     1       3.515   6.743  18.416  0.00  0.00    +0.000 NA
ATOM      9  C   UNL     1       3.054   8.071  17.951  0.00  0.00    +0.000 C 
ATOM     10  C   UNL     1       1.562   8.363  18.315  0.00  0.00    +0.000 C 
ATOM     11  N   UNL     1       1.222   8.027  19.719  0.00  0.00    +0.000 NA
ATOM     12  C   UNL     1       1.628   6.645  20.044  0.00  0.00    +0.000 C 
ATOM     13  C   UNL     1       3.126   6.427  19.805  0.00  0.00    +0.000 C 
BRANCH  11  14
ATOM     14  C   UNL     1       1.338   9.105  20.756  0.00  0.00    +0.000 C 
ATOM     15  C   UNL     1       0.856  10.496  20.250  0.00  0.00    +0.000 C 
ATOM     16  C   UNL     1      -0.642  10.833  20.373  0.00  0.00    +0.000 C 
ATOM     17  C   UNL     1      -1.043  11.313  21.768  0.00  0.00    +0.000 C 
ATOM     18  C   UNL     1      -0.959  10.278  22.883  0.00  0.00    +0.000 C 
ATOM     19  C   UNL     1       0.451   9.726  23.168  0.00  0.00    +0.000 C 
ATOM     20  C   UNL     1       0.853   8.658  22.151  0.00  0.00    +0.000 C 
ENDBRANCH  11  14
ENDBRANCH   1   8
BRANCH   1  21
ATOM     21  C   UNL     1       4.842   5.371  16.728  0.00  0.00    +0.000 C 
BRANCH  21  27
ATOM     22  C   UNL     1       8.088   9.067  17.589  0.00  0.00    +0.000 C 
ATOM     23  C   UNL     1       7.659   7.657  17.861  0.00  0.00    +0.000 A 
ATOM     24  C   UNL     1       8.334   6.868  18.802  0.00  0.00    +0.000 A 
ATOM     25  C   UNL     1       7.925   5.556  19.038  0.00  0.00    +0.000 A 
ATOM     26  C   UNL     1       6.832   5.025  18.352  0.00  0.00    +0.000 A 
ATOM     27  C   UNL     1       6.112   5.819  17.434  0.00  0.00    +0.000 A 
ATOM     28  C   UNL     1       6.554   7.127  17.182  0.00  0.00    +0.000 A 
ENDBRANCH  21  27
ENDBRANCH   1  21
TORSDOF 5
ENDMDL
MODEL 4
REMARK VINA RESULT:      -7.8      2.833      7.628
REMARK  Name = 
REMARK  6 active torsions:
REMARK  status: ('A' for Active; 'I' for Inactive)
REMARK    1  A    between atoms: C_1  and  C_2
REMARK    2  A    between atoms: C_6  and  C_7
REMARK    3  A    between atoms: C_7  and  C_8
REMARK    4  A    between atoms: C_8  and  C_9
REMARK    5  A    between atoms: C_8  and  N_15
REMARK    6  A    between atoms: N_18  and  C_19
REMARK                            x       y       z     vdW  Elec       q    Type
REMARK                         _______ _______ _______ _____ _____    ______ ____
ROOT
ATOM      1  C   UNL     1       2.528   5.989  18.223  0.00  0.00    +0.000 C 
ENDROOT
BRANCH   1   2
ATOM      2  C   UNL     1       2.079   4.983  19.293  0.00  0.00    +0.000 A 
ATOM      3  C   UNL     1       2.610   4.948  20.607  0.00  0.00    +0.000 A 
ATOM      4  C   UNL     1       2.300   3.900  21.475  0.00  0.00    +0.000 A 
ATOM      5  C   UNL     1       1.431   2.890  21.071  0.00  0.00    +0.000 A 
ATOM      6  C   UNL     1       0.849   2.938  19.804  0.00  0.00    +0.000 A 
ATOM      7  C   UNL     1       1.170   3.975  18.920  0.00  0.00    +0.000 A 
ENDBRANCH   1   2
BRANCH   1   8
ATOM      8  N   UNL     1       2.746   7.338  18.832  0.00  0.00    +0.000 NA
ATOM      9  C   UNL     1       2.731   8.522  17.944  0.00  0.00    +0.000 C 
ATOM     10  C   UNL     1       1.340   9.233  17.894  0.00  0.00    +0.000 C 
ATOM     11  N   UNL     1       0.733   9.434  19.233  0.00  0.00    +0.000 NA
ATOM     12  C   UNL     1       0.700   8.168  19.993  0.00  0.00    +0.000 C 
ATOM     13  C   UNL     1       2.101   7.564  20.142  0.00  0.00    +0.000 C 
BRANCH  11  14
ATOM     14  C   UNL     1       0.996  10.728  19.945  0.00  0.00    +0.000 C 
ATOM     15  C   UNL     1       1.114  11.945  18.981  0.00  0.00    +0.000 C 
ATOM     16  C   UNL     1      -0.178  12.677  18.573  0.00  0.00    +0.000 C 
ATOM     17  C   UNL     1      -0.662  13.680  19.619  0.00  0.00    +0.000 C 
ATOM     18  C   UNL     1      -1.149  13.092  20.939  0.00  0.00    +0.000 C 
ATOM     19  C   UNL     1      -0.089  12.325  21.751  0.00  0.00    +0.000 C 
ATOM     20  C   UNL     1       0.125  10.914  21.205  0.00  0.00    +0.000 C 
ENDBRANCH  11  14
ENDBRANCH   1   8
BRANCH   1  21
ATOM     21  C   UNL     1       3.729   5.524  17.338  0.00  0.00    +0.000 C 
BRANCH  21  27
ATOM     22  C   UNL     1       7.910   8.253  17.426  0.00  0.00    +0.000 C 
ATOM     23  C   UNL     1       7.151   7.067  17.938  0.00  0.00    +0.000 A 
ATOM     24  C   UNL     1       7.680   6.255  18.949  0.00  0.00    +0.000 A 
ATOM     25  C   UNL     1       6.962   5.152  19.410  0.00  0.00    +0.000 A 
ATOM     26  C   UNL     1       5.705   4.859  18.878  0.00  0.00    +0.000 A 
ATOM     27  C   UNL     1       5.136   5.691  17.892  0.00  0.00    +0.000 A 
ATOM     28  C   UNL     1       5.884   6.780  17.414  0.00  0.00    +0.000 A 
ENDBRANCH  21  27
ENDBRANCH   1  21
TORSDOF 5
ENDMDL
MODEL 5
REMARK VINA RESULT:      -7.6      1.434      7.837
REMARK  Name = 
REMARK  6 active torsions:
REMARK  status: ('A' for Active; 'I' for Inactive)
REMARK    1  A    between atoms: C_1  and  C_2
REMARK    2  A    between atoms: C_6  and  C_7
REMARK    3  A    between atoms: C_7  and  C_8
REMARK    4  A    between atoms: C_8  and  C_9
REMARK    5  A    between atoms: C_8  and  N_15
REMARK    6  A    between atoms: N_18  and  C_19
REMARK                            x       y       z     vdW  Elec       q    Type
REMARK                         _______ _______ _______ _____ _____    ______ ____
ROOT
ATOM      1  C   UNL     1       4.297   4.902  17.173  0.00  0.00    +0.000 C 
ENDROOT
BRANCH   1   2
ATOM      2  C   UNL     1       3.368   3.818  17.737  0.00  0.00    +0.000 A 
ATOM      3  C   UNL     1       1.966   3.805  17.534  0.00  0.00    +0.000 A 
ATOM      4  C   UNL     1       1.152   2.905  18.222  0.00  0.00    +0.000 A 
ATOM      5  C   UNL     1       1.716   1.975  19.093  0.00  0.00    +0.000 A 
ATOM      6  C   UNL     1       3.100   1.930  19.260  0.00  0.00    +0.000 A 
ATOM      7  C   UNL     1       3.922   2.844  18.589  0.00  0.00    +0.000 A 
ENDBRANCH   1   2
BRANCH   1   8
ATOM      8  N   UNL     1       4.252   6.129  18.029  0.00  0.00    +0.000 NA
ATOM      9  C   UNL     1       3.771   7.391  17.425  0.00  0.00    +0.000 C 
ATOM     10  C   UNL     1       2.254   7.660  17.691  0.00  0.00    +0.000 C 
ATOM     11  N   UNL     1       1.856   7.437  19.103  0.00  0.00    +0.000 NA
ATOM     12  C   UNL     1       2.291   6.105  19.570  0.00  0.00    +0.000 C 
ATOM     13  C   UNL     1       3.805   5.923  19.422  0.00  0.00    +0.000 C 
BRANCH  11  14
ATOM     14  C   UNL     1       1.886   8.607  20.042  0.00  0.00    +0.000 C 
ATOM     15  C   UNL     1       1.251   9.893  19.439  0.00  0.00    +0.000 C 
ATOM     16  C   UNL     1      -0.271  10.088  19.583  0.00  0.00    +0.000 C 
ATOM     17  C   UNL     1      -0.685  10.643  20.945  0.00  0.00    +0.000 C 
ATOM     18  C   UNL     1      -0.468   9.721  22.139  0.00  0.00    +0.000 C 
ATOM     19  C   UNL     1       0.998   9.341  22.422  0.00  0.00    +0.000 C 
ATOM     20  C   UNL     1       1.483   8.235  21.485  0.00  0.00    +0.000 C 
ENDBRANCH  11  14
ENDBRANCH   1   8
BRANCH   1  21
ATOM     21  C   UNL     1       5.756   4.433  16.865  0.00  0.00    +0.000 C 
BRANCH  21  27
ATOM     22  C   UNL     1       4.757   3.202  12.129  0.00  0.00    +0.000 C 
ATOM     23  C   UNL     1       5.685   3.854  13.109  0.00  0.00    +0.000 A 
ATOM     24  C   UNL     1       6.837   4.522  12.674  0.00  0.00    +0.000 A 
ATOM     25  C   UNL     1       7.692   5.119  13.600  0.00  0.00    +0.000 A 
ATOM     26  C   UNL     1       7.399   5.068  14.963  0.00  0.00    +0.000 A 
ATOM     27  C   UNL     1       6.221   4.438  15.416  0.00  0.00    +0.000 A 
ATOM     28  C   UNL     1       5.385   3.814  14.476  0.00  0.00    +0.000 A 
ENDBRANCH  21  27
ENDBRANCH   1  21
TORSDOF 5
ENDMDL
MODEL 6
REMARK VINA RESULT:      -7.6      2.427      7.955
REMARK  Name = 
REMARK  6 active torsions:
REMARK  status: ('A' for Active; 'I' for Inactive)
REMARK    1  A    between atoms: C_1  and  C_2
REMARK    2  A    between atoms: C_6  and  C_7
REMARK    3  A    between atoms: C_7  and  C_8
REMARK    4  A    between atoms: C_8  and  C_9
REMARK    5  A    between atoms: C_8  and  N_15
REMARK    6  A    between atoms: N_18  and  C_19
REMARK                            x       y       z     vdW  Elec       q    Type
REMARK                         _______ _______ _______ _____ _____    ______ ____
ROOT
ATOM      1  C   UNL     1       6.290   5.078  16.843  0.00  0.00    +0.000 C 
ENDROOT
BRANCH   1   2
ATOM      2  C   UNL     1       7.167   6.180  17.455  0.00  0.00    +0.000 A 
ATOM      3  C   UNL     1       7.904   6.018  18.654  0.00  0.00    +0.000 A 
ATOM      4  C   UNL     1       8.532   7.107  19.259  0.00  0.00    +0.000 A 
ATOM      5  C   UNL     1       8.474   8.367  18.668  0.00  0.00    +0.000 A 
ATOM      6  C   UNL     1       7.805   8.536  17.455  0.00  0.00    +0.000 A 
ATOM      7  C   UNL     1       7.155   7.452  16.852  0.00  0.00    +0.000 A 
ENDBRANCH   1   2
BRANCH   1   8
ATOM      8  N   UNL     1       5.302   4.577  17.849  0.00  0.00    +0.000 NA
ATOM      9  C   UNL     1       4.491   5.567  18.593  0.00  0.00    +0.000 C 
ATOM     10  C   UNL     1       3.085   5.810  17.956  0.00  0.00    +0.000 C 
ATOM     11  N   UNL     1       2.380   4.557  17.588  0.00  0.00    +0.000 NA
ATOM     12  C   UNL     1       3.241   3.692  16.758  0.00  0.00    +0.000 C 
ATOM     13  C   UNL     1       4.558   3.359  17.468  0.00  0.00    +0.000 C 
BRANCH  11  14
ATOM     14  C   UNL     1       1.450   3.945  18.593  0.00  0.00    +0.000 C 
ATOM     15  C   UNL     1       1.594   2.399  18.701  0.00  0.00    +0.000 C 
ATOM     16  C   UNL     1       2.660   1.835  19.659  0.00  0.00    +0.000 C 
ATOM     17  C   UNL     1       2.203   1.793  21.117  0.00  0.00    +0.000 C 
ATOM     18  C   UNL     1       1.992   3.142  21.793  0.00  0.00    +0.000 C 
ATOM     19  C   UNL     1       0.891   4.025  21.177  0.00  0.00    +0.000 C 
ATOM     20  C   UNL     1       1.381   4.737  19.916  0.00  0.00    +0.000 C 
ENDBRANCH  11  14
ENDBRANCH   1   8
BRANCH   1  21
ATOM     21  C   UNL     1       5.628   5.439  15.474  0.00  0.00    +0.000 C 
BRANCH  21  27
ATOM     22  C   UNL     1       5.320   2.306  11.596  0.00  0.00    +0.000 C 
ATOM     23  C   UNL     1       6.075   3.391  12.302  0.00  0.00    +0.000 A 
ATOM     24  C   UNL     1       7.234   3.944  11.741  0.00  0.00    +0.000 A 
ATOM     25  C   UNL     1       7.928   4.949  12.415  0.00  0.00    +0.000 A 
ATOM     26  C   UNL     1       7.465   5.421  13.643  0.00  0.00    +0.000 A 
ATOM     27  C   UNL     1       6.275   4.908  14.203  0.00  0.00    +0.000 A 
ATOM     28  C   UNL     1       5.604   3.875  13.529  0.00  0.00    +0.000 A 
ENDBRANCH  21  27
ENDBRANCH   1  21
TORSDOF 5
ENDMDL
MODEL 7
REMARK VINA RESULT:      -7.6      0.778      1.526
REMARK  Name = 
REMARK  6 active torsions:
REMARK  status: ('A' for Active; 'I' for Inactive)
REMARK    1  A    between atoms: C_1  and  C_2
REMARK    2  A    between atoms: C_6  and  C_7
REMARK    3  A    between atoms: C_7  and  C_8
REMARK    4  A    between atoms: C_8  and  C_9
REMARK    5  A    between atoms: C_8  and  N_15
REMARK    6  A    between atoms: N_18  and  C_19
REMARK                            x       y       z     vdW  Elec       q    Type
REMARK                         _______ _______ _______ _____ _____    ______ ____
ROOT
ATOM      1  C   UNL     1       3.505   5.616  18.983  0.00  0.00    +0.000 C 
ENDROOT
BRANCH   1   2
ATOM      2  C   UNL     1       2.616   4.678  19.812  0.00  0.00    +0.000 A 
ATOM      3  C   UNL     1       2.916   4.286  21.140  0.00  0.00    +0.000 A 
ATOM      4  C   UNL     1       2.175   3.290  21.776  0.00  0.00    +0.000 A 
ATOM      5  C   UNL     1       1.099   2.693  21.123  0.00  0.00    +0.000 A 
ATOM      6  C   UNL     1       0.748   3.107  19.838  0.00  0.00    +0.000 A 
ATOM      7  C   UNL     1       1.500   4.092  19.185  0.00  0.00    +0.000 A 
ENDBRANCH   1   2
BRANCH   1   8
ATOM      8  N   UNL     1       4.330   4.832  18.011  0.00  0.00    +0.000 NA
ATOM      9  C   UNL     1       3.999   4.926  16.571  0.00  0.00    +0.000 C 
ATOM     10  C   UNL     1       4.865   5.981  15.810  0.00  0.00    +0.000 C 
ATOM     11  N   UNL     1       6.312   5.894  16.126  0.00  0.00    +0.000 NA
ATOM     12  C   UNL     1       6.535   5.918  17.586  0.00  0.00    +0.000 C 
ATOM     13  C   UNL     1       5.780   4.785  18.290  0.00  0.00    +0.000 C 
BRANCH  11  14
ATOM     14  C   UNL     1       7.180   5.041  15.249  0.00  0.00    +0.000 C 
ATOM     15  C   UNL     1       6.511   3.695  14.847  0.00  0.00    +0.000 C 
ATOM     16  C   UNL     1       5.603   3.678  13.603  0.00  0.00    +0.000 C 
ATOM     17  C   UNL     1       6.377   3.570  12.290  0.00  0.00    +0.000 C 
ATOM     18  C   UNL     1       7.238   4.772  11.917  0.00  0.00    +0.000 C 
ATOM     19  C   UNL     1       8.384   5.091  12.896  0.00  0.00    +0.000 C 
ATOM     20  C   UNL     1       7.879   5.840  14.129  0.00  0.00    +0.000 C 
ENDBRANCH  11  14
ENDBRANCH   1   8
BRANCH   1  21
ATOM     21  C   UNL     1       2.762   6.817  18.315  0.00  0.00    +0.000 C 
BRANCH  21  27
ATOM     22  C   UNL     1       0.409  11.207  18.692  0.00  0.00    +0.000 C 
ATOM     23  C   UNL     1       0.882   9.952  19.360  0.00  0.00    +0.000 A 
ATOM     24  C   UNL     1       0.575   9.691  20.702  0.00  0.00    +0.000 A 
ATOM     25  C   UNL     1       1.028   8.521  21.310  0.00  0.00    +0.000 A 
ATOM     26  C   UNL     1       1.777   7.595  20.583  0.00  0.00    +0.000 A 
ATOM     27  C   UNL     1       2.058   7.818  19.219  0.00  0.00    +0.000 A 
ATOM     28  C   UNL     1       1.623   9.016  18.628  0.00  0.00    +0.000 A 
ENDBRANCH  21  27
ENDBRANCH   1  21
TORSDOF 5
ENDMDL
MODEL 8
REMARK VINA RESULT:      -7.5      3.387      6.802
REMARK  Name = 
REMARK  6 active torsions:
REMARK  status: ('A' for Active; 'I' for Inactive)
REMARK    1  A    between atoms: C_1  and  C_2
REMARK    2  A    between atoms: C_6  and  C_7
REMARK    3  A    between atoms: C_7  and  C_8
REMARK    4  A    between atoms: C_8  and  C_9
REMARK    5  A    between atoms: C_8  and  N_15
REMARK    6  A    between atoms: N_18  and  C_19
REMARK                            x       y       z     vdW  Elec       q    Type
REMARK                         _______ _______ _______ _____ _____    ______ ____
ROOT
ATOM      1  C   UNL     1      -0.057  11.029  19.483  0.00  0.00    +0.000 C 
ENDROOT
BRANCH   1   2
ATOM      2  C   UNL     1      -0.343  11.805  20.777  0.00  0.00    +0.000 A 
ATOM      3  C   UNL     1      -0.950  11.226  21.919  0.00  0.00    +0.000 A 
ATOM      4  C   UNL     1      -1.354  12.019  22.994  0.00  0.00    +0.000 A 
ATOM      5  C   UNL     1      -1.130  13.393  22.973  0.00  0.00    +0.000 A 
ATOM      6  C   UNL     1      -0.479  13.975  21.884  0.00  0.00    +0.000 A 
ATOM      7  C   UNL     1      -0.089  13.189  20.794  0.00  0.00    +0.000 A 
ENDBRANCH   1   2
BRANCH   1   8
ATOM      8  N   UNL     1       1.285  10.371  19.554  0.00  0.00    +0.000 NA
ATOM      9  C   UNL     1       1.488   9.291  20.545  0.00  0.00    +0.000 C 
ATOM     10  C   UNL     1       1.286   7.862  19.946  0.00  0.00    +0.000 C 
ATOM     11  N   UNL     1       1.970   7.668  18.643  0.00  0.00    +0.000 NA
ATOM     12  C   UNL     1       1.613   8.741  17.694  0.00  0.00    +0.000 C 
ATOM     13  C   UNL     1       1.950  10.126  18.258  0.00  0.00    +0.000 C 
BRANCH  11  14
ATOM     14  C   UNL     1       3.361   7.105  18.650  0.00  0.00    +0.000 C 
ATOM     15  C   UNL     1       3.462   5.728  19.369  0.00  0.00    +0.000 C 
ATOM     16  C   UNL     1       3.180   4.457  18.545  0.00  0.00    +0.000 C 
ATOM     17  C   UNL     1       4.375   3.997  17.712  0.00  0.00    +0.000 C 
ATOM     18  C   UNL     1       4.787   4.914  16.565  0.00  0.00    +0.000 C 
ATOM     19  C   UNL     1       5.257   6.320  16.981  0.00  0.00    +0.000 C 
ATOM     20  C   UNL     1       4.075   7.240  17.288  0.00  0.00    +0.000 C 
ENDBRANCH  11  14
ENDBRANCH   1   8
BRANCH   1  21
ATOM     21  C   UNL     1      -1.188  10.049  19.032  0.00  0.00    +0.000 C 
BRANCH  21  27
ATOM     22  C   UNL     1      -3.141  10.104  14.436  0.00  0.00    +0.000 C 
ATOM     23  C   UNL     1      -3.222  10.559  15.862  0.00  0.00    +0.000 A 
ATOM     24  C   UNL     1      -4.305  11.324  16.312  0.00  0.00    +0.000 A 
ATOM     25  C   UNL     1      -4.363  11.743  17.642  0.00  0.00    +0.000 A 
ATOM     26  C   UNL     1      -3.350  11.391  18.534  0.00  0.00    +0.000 A 
ATOM     27  C   UNL     1      -2.274  10.583  18.110  0.00  0.00    +0.000 A 
ATOM     28  C   UNL     1      -2.213  10.195  16.762  0.00  0.00    +0.000 A 
ENDBRANCH  21  27
ENDBRANCH   1  21
TORSDOF 5
ENDMDL
MODEL 9
REMARK VINA RESULT:      -7.4      1.419      7.937
REMARK  Name = 
REMARK  6 active torsions:
REMARK  status: ('A' for Active; 'I' for Inactive)
REMARK    1  A    between atoms: C_1  and  C_2
REMARK    2  A    between atoms: C_6  and  C_7
REMARK    3  A    between atoms: C_7  and  C_8
REMARK    4  A    between atoms: C_8  and  C_9
REMARK    5  A    between atoms: C_8  and  N_15
REMARK    6  A    between atoms: N_18  and  C_19
REMARK                            x       y       z     vdW  Elec       q    Type
REMARK                         _______ _______ _______ _____ _____    ______ ____
ROOT
ATOM      1  C   UNL     1       4.244   5.048  17.057  0.00  0.00    +0.000 C 
ENDROOT
BRANCH   1   2
ATOM      2  C   UNL     1       3.404   3.912  17.660  0.00  0.00    +0.000 A 
ATOM      3  C   UNL     1       1.992   3.844  17.557  0.00  0.00    +0.000 A 
ATOM      4  C   UNL     1       1.269   2.894  18.278  0.00  0.00    +0.000 A 
ATOM      5  C   UNL     1       1.932   1.971  19.084  0.00  0.00    +0.000 A 
ATOM      6  C   UNL     1       3.326   1.982  19.151  0.00  0.00    +0.000 A 
ATOM      7  C   UNL     1       4.058   2.945  18.446  0.00  0.00    +0.000 A 
ENDBRANCH   1   2
BRANCH   1   8
ATOM      8  N   UNL     1       4.204   6.255  17.942  0.00  0.00    +0.000 NA
ATOM      9  C   UNL     1       3.650   7.512  17.391  0.00  0.00    +0.000 C 
ATOM     10  C   UNL     1       2.142   7.724  17.742  0.00  0.00    +0.000 C 
ATOM     11  N   UNL     1       1.826   7.460  19.167  0.00  0.00    +0.000 NA
ATOM     12  C   UNL     1       2.328   6.135  19.582  0.00  0.00    +0.000 C 
ATOM     13  C   UNL     1       3.838   6.007  19.351  0.00  0.00    +0.000 C 
BRANCH  11  14
ATOM     14  C   UNL     1       1.867   8.611  20.128  0.00  0.00    +0.000 C 
ATOM     15  C   UNL     1       1.261   9.920  19.544  0.00  0.00    +0.000 C 
ATOM     16  C   UNL     1      -0.258  10.138  19.677  0.00  0.00    +0.000 C 
ATOM     17  C   UNL     1      -0.676  10.675  21.046  0.00  0.00    +0.000 C 
ATOM     18  C   UNL     1      -0.486   9.727  22.225  0.00  0.00    +0.000 C 
ATOM     19  C   UNL     1       0.970   9.316  22.514  0.00  0.00    +0.000 C 
ATOM     20  C   UNL     1       1.445   8.219  21.560  0.00  0.00    +0.000 C 
ENDBRANCH  11  14
ENDBRANCH   1   8
BRANCH   1  21
ATOM     21  C   UNL     1       5.697   4.651  16.641  0.00  0.00    +0.000 C 
BRANCH  21  27
ATOM     22  C   UNL     1       8.700   5.840  12.833  0.00  0.00    +0.000 C 
ATOM     23  C   UNL     1       7.512   5.074  13.328  0.00  0.00    +0.000 A 
ATOM     24  C   UNL     1       6.822   4.192  12.486  0.00  0.00    +0.000 A 
ATOM     25  C   UNL     1       5.714   3.491  12.962  0.00  0.00    +0.000 A 
ATOM     26  C   UNL     1       5.295   3.652  14.283  0.00  0.00    +0.000 A 
ATOM     27  C   UNL     1       6.003   4.501  15.159  0.00  0.00    +0.000 A 
ATOM     28  C   UNL     1       7.098   5.225  14.658  0.00  0.00    +0.000 A 
ENDBRANCH  21  27
ENDBRANCH   1  21
TORSDOF 5
ENDMDL
