MODEL 1
REMARK VINA RESULT:      -7.7      0.000      0.000
REMARK  Name = 
REMARK  12 active torsions:
REMARK  status: ('A' for Active; 'I' for Inactive)
REMARK    1  A    between atoms: C_1  and  C_2
REMARK    2  A    between atoms: C_2  and  N_3
REMARK    3  A    between atoms: N_3  and  C_4
REMARK    4  A    between atoms: N_3  and  C_6
REMARK    5  A    between atoms: C_4  and  C_5
REMARK    6  A    between atoms: C_6  and  C_7
REMARK    7  A    between atoms: C_7  and  C_8
REMARK    8  A    between atoms: C_8  and  N_9
REMARK    9  A    between atoms: N_9  and  C_10
REMARK   10  A    between atoms: C_10  and  C_11
REMARK   11  A    between atoms: N_22  and  C_23
REMARK   12  A    between atoms: C_23  and  C_24
REMARK                            x       y       z     vdW  Elec       q    Type
REMARK                         _______ _______ _______ _____ _____    ______ ____
ROOT
ATOM      1  C   UNL     1       2.368   7.875  18.780  0.00  0.00    +0.000 A 
ATOM      2  N   UNL     1       1.800   8.423  19.904  0.00  0.00    +0.000 NA
ATOM      3  C   UNL     1       1.390   7.636  20.914  0.00  0.00    +0.000 A 
ATOM      4  C   UNL     1       1.438   6.257  20.893  0.00  0.00    +0.000 A 
ATOM      5  C   UNL     1       2.036   5.669  19.772  0.00  0.00    +0.000 A 
ATOM      6  C   UNL     1       2.105   4.318  19.313  0.00  0.00    +0.000 A 
ATOM      7  C   UNL     1       1.539   3.111  19.774  0.00  0.00    +0.000 A 
ATOM      8  C   UNL     1       1.699   1.941  19.027  0.00  0.00    +0.000 A 
ATOM      9  C   UNL     1       2.452   1.954  17.859  0.00  0.00    +0.000 A 
ATOM     10  C   UNL     1       3.067   3.128  17.409  0.00  0.00    +0.000 A 
ATOM     11  C   UNL     1       2.858   4.310  18.140  0.00  0.00    +0.000 A 
ATOM     12  N   UNL     1       3.285   5.615  17.934  0.00  0.00    +0.000 N 
ATOM     13  C   UNL     1       2.592   6.480  18.776  0.00  0.00    +0.000 A 
ENDROOT
BRANCH   1  14
ATOM     14  C   UNL     1       2.497   8.818  17.600  0.00  0.00    +0.000 C 
BRANCH  14  15
ATOM     15  N   UNL     1       1.564   9.970  17.639  0.00  0.00    +0.000 NA
ATOM     16  H   UNL     1       1.187  10.102  16.700  0.00  0.00    +0.000 HD
BRANCH  15  17
ATOM     17  C   UNL     1       2.256  11.211  18.039  0.00  0.00    +0.000 C 
BRANCH  17  18
ATOM     18  C   UNL     1       1.289  12.212  18.694  0.00  0.00    +0.000 C 
BRANCH  18  19
ATOM     19  C   UNL     1       0.136  11.469  19.403  0.00  0.00    +0.000 C 
BRANCH  19  20
ATOM     20  N   UNL     1      -1.175  11.542  18.719  0.00  0.00    +0.000 NA
BRANCH  20  22
ATOM     21  C   UNL     1      -2.885  10.123  17.512  0.00  0.00    +0.000 C 
ATOM     22  C   UNL     1      -1.673  10.178  18.441  0.00  0.00    +0.000 C 
ENDBRANCH  20  22
BRANCH  20  23
ATOM     23  C   UNL     1      -2.158  12.391  19.407  0.00  0.00    +0.000 C 
ATOM     24  C   UNL     1      -2.077  12.411  20.930  0.00  0.00    +0.000 C 
ENDBRANCH  20  23
ENDBRANCH  19  20
ENDBRANCH  18  19
ENDBRANCH  17  18
ENDBRANCH  15  17
ENDBRANCH  14  15
ENDBRANCH   1  14
BRANCH  12  25
ATOM     25  C   UNL     1       4.312   5.985  16.958  0.00  0.00    +0.000 C 
BRANCH  25  26
ATOM     26  C   UNL     1       5.724   6.148  17.514  0.00  0.00    +0.000 A 
ATOM     27  C   UNL     1       6.363   5.192  18.321  0.00  0.00    +0.000 A 
ATOM     28  C   UNL     1       7.596   5.468  18.928  0.00  0.00    +0.000 A 
ATOM     29  C   UNL     1       8.206   6.709  18.757  0.00  0.00    +0.000 A 
ATOM     30  C   UNL     1       7.596   7.661  17.948  0.00  0.00    +0.000 A 
ATOM     31 CL   UNL     1       8.329   9.206  17.745  0.00  0.00    +0.000 Cl
ATOM     32  C   UNL     1       6.373   7.384  17.325  0.00  0.00    +0.000 A 
ENDBRANCH  25  26
ENDBRANCH  12  25
TORSDOF 10
ENDMDL
MODEL 2
REMARK VINA RESULT:      -7.7      1.597      2.351
REMARK  Name = 
REMARK  12 active torsions:
REMARK  status: ('A' for Active; 'I' for Inactive)
REMARK    1  A    between atoms: C_1  and  C_2
REMARK    2  A    between atoms: C_2  and  N_3
REMARK    3  A    between atoms: N_3  and  C_4
REMARK    4  A    between atoms: N_3  and  C_6
REMARK    5  A    between atoms: C_4  and  C_5
REMARK    6  A    between atoms: C_6  and  C_7
REMARK    7  A    between atoms: C_7  and  C_8
REMARK    8  A    between atoms: C_8  and  N_9
REMARK    9  A    between atoms: N_9  and  C_10
REMARK   10  A    between atoms: C_10  and  C_11
REMARK   11  A    between atoms: N_22  and  C_23
REMARK   12  A    between atoms: C_23  and  C_24
REMARK                            x       y       z     vdW  Elec       q    Type
REMARK                         _______ _______ _______ _____ _____    ______ ____
ROOT
ATOM      1  C   UNL     1       2.007   8.410  19.016  0.00  0.00    +0.000 A 
ATOM      2  N   UNL     1       1.530   8.902  20.205  0.00  0.00    +0.000 NA
ATOM      3  C   UNL     1       1.242   8.070  21.222  0.00  0.00    +0.000 A 
ATOM      4  C   UNL     1       1.334   6.695  21.149  0.00  0.00    +0.000 A 
ATOM      5  C   UNL     1       1.842   6.163  19.958  0.00  0.00    +0.000 A 
ATOM      6  C   UNL     1       1.912   4.831  19.449  0.00  0.00    +0.000 A 
ATOM      7  C   UNL     1       1.431   3.591  19.919  0.00  0.00    +0.000 A 
ATOM      8  C   UNL     1       1.558   2.451  19.121  0.00  0.00    +0.000 A 
ATOM      9  C   UNL     1       2.198   2.527  17.889  0.00  0.00    +0.000 A 
ATOM     10  C   UNL     1       2.729   3.735  17.424  0.00  0.00    +0.000 A 
ATOM     11  C   UNL     1       2.550   4.886  18.211  0.00  0.00    +0.000 A 
ATOM     12  N   UNL     1       2.913   6.211  18.011  0.00  0.00    +0.000 N 
ATOM     13  C   UNL     1       2.275   7.024  18.944  0.00  0.00    +0.000 A 
ENDROOT
BRANCH   1  14
ATOM     14  C   UNL     1       1.994   9.393  17.862  0.00  0.00    +0.000 C 
BRANCH  14  15
ATOM     15  N   UNL     1       0.948  10.440  17.969  0.00  0.00    +0.000 NA
ATOM     16  H   UNL     1       0.994  10.835  18.909  0.00  0.00    +0.000 HD
BRANCH  15  17
ATOM     17  C   UNL     1      -0.400   9.877  17.768  0.00  0.00    +0.000 C 
BRANCH  17  18
ATOM     18  C   UNL     1      -1.459  10.638  18.584  0.00  0.00    +0.000 C 
BRANCH  18  19
ATOM     19  C   UNL     1      -2.324  11.522  17.661  0.00  0.00    +0.000 C 
BRANCH  19  20
ATOM     20  N   UNL     1      -3.673  10.990  17.361  0.00  0.00    +0.000 NA
BRANCH  20  22
ATOM     21  C   UNL     1      -6.030  10.983  18.276  0.00  0.00    +0.000 C 
ATOM     22  C   UNL     1      -4.684  11.699  18.174  0.00  0.00    +0.000 C 
ENDBRANCH  20  22
BRANCH  20  23
ATOM     23  C   UNL     1      -3.996  10.960  15.928  0.00  0.00    +0.000 C 
ATOM     24  C   UNL     1      -2.949  10.323  15.019  0.00  0.00    +0.000 C 
ENDBRANCH  20  23
ENDBRANCH  19  20
ENDBRANCH  18  19
ENDBRANCH  17  18
ENDBRANCH  15  17
ENDBRANCH  14  15
ENDBRANCH   1  14
BRANCH  12  25
ATOM     25  C   UNL     1       3.831   6.648  16.957  0.00  0.00    +0.000 C 
BRANCH  25  26
ATOM     26  C   UNL     1       5.210   5.994  16.969  0.00  0.00    +0.000 A 
ATOM     27  C   UNL     1       5.681   5.141  15.956  0.00  0.00    +0.000 A 
ATOM     28  C   UNL     1       6.891   4.449  16.101  0.00  0.00    +0.000 A 
ATOM     29  C   UNL     1       7.646   4.580  17.265  0.00  0.00    +0.000 A 
ATOM     30  C   UNL     1       7.204   5.433  18.270  0.00  0.00    +0.000 A 
ATOM     31 CL   UNL     1       8.116   5.588  19.723  0.00  0.00    +0.000 Cl
ATOM     32  C   UNL     1       6.004   6.140  18.123  0.00  0.00    +0.000 A 
ENDBRANCH  25  26
ENDBRANCH  12  25
TORSDOF 10
ENDMDL
MODEL 3
REMARK VINA RESULT:      -7.5      3.488      7.239
REMARK  Name = 
REMARK  12 active torsions:
REMARK  status: ('A' for Active; 'I' for Inactive)
REMARK    1  A    between atoms: C_1  and  C_2
REMARK    2  A    between atoms: C_2  and  N_3
REMARK    3  A    between atoms: N_3  and  C_4
REMARK    4  A    between atoms: N_3  and  C_6
REMARK    5  A    between atoms: C_4  and  C_5
REMARK    6  A    between atoms: C_6  and  C_7
REMARK    7  A    between atoms: C_7  and  C_8
REMARK    8  A    between atoms: C_8  and  N_9
REMARK    9  A    between atoms: N_9  and  C_10
REMARK   10  A    between atoms: C_10  and  C_11
REMARK   11  A    between atoms: N_22  and  C_23
REMARK   12  A    between atoms: C_23  and  C_24
REMARK                            x       y       z     vdW  Elec       q    Type
REMARK                         _______ _______ _______ _____ _____    ______ ____
ROOT
ATOM      1  C   UNL     1       5.737   5.708  17.337  0.00  0.00    +0.000 A 
ATOM      2  N   UNL     1       6.240   5.256  16.142  0.00  0.00    +0.000 NA
ATOM      3  C   UNL     1       5.580   4.324  15.432  0.00  0.00    +0.000 A 
ATOM      4  C   UNL     1       4.416   3.712  15.849  0.00  0.00    +0.000 A 
ATOM      5  C   UNL     1       3.863   4.169  17.051  0.00  0.00    +0.000 A 
ATOM      6  C   UNL     1       2.806   3.677  17.876  0.00  0.00    +0.000 A 
ATOM      7  C   UNL     1       1.996   2.523  17.822  0.00  0.00    +0.000 A 
ATOM      8  C   UNL     1       1.106   2.253  18.863  0.00  0.00    +0.000 A 
ATOM      9  C   UNL     1       0.981   3.140  19.926  0.00  0.00    +0.000 A 
ATOM     10  C   UNL     1       1.736   4.318  19.976  0.00  0.00    +0.000 A 
ATOM     11  C   UNL     1       2.666   4.555  18.949  0.00  0.00    +0.000 A 
ATOM     12  N   UNL     1       3.573   5.585  18.740  0.00  0.00    +0.000 N 
ATOM     13  C   UNL     1       4.465   5.234  17.730  0.00  0.00    +0.000 A 
ENDROOT
BRANCH   1  14
ATOM     14  C   UNL     1       6.709   6.508  18.182  0.00  0.00    +0.000 C 
BRANCH  14  15
ATOM     15  N   UNL     1       7.668   7.322  17.396  0.00  0.00    +0.000 NA
ATOM     16  H   UNL     1       8.611   7.019  17.640  0.00  0.00    +0.000 HD
BRANCH  15  17
ATOM     17  C   UNL     1       7.545   8.757  17.717  0.00  0.00    +0.000 C 
BRANCH  17  18
ATOM     18  C   UNL     1       8.758   9.264  18.516  0.00  0.00    +0.000 C 
BRANCH  18  19
ATOM     19  C   UNL     1       9.027  10.753  18.209  0.00  0.00    +0.000 C 
BRANCH  19  20
ATOM     20  N   UNL     1       9.923  11.442  19.165  0.00  0.00    +0.000 NA
BRANCH  20  22
ATOM     21  C   UNL     1       9.114  12.154  21.452  0.00  0.00    +0.000 C 
ATOM     22  C   UNL     1       9.601  11.025  20.546  0.00  0.00    +0.000 C 
ENDBRANCH  20  22
BRANCH  20  23
ATOM     23  C   UNL     1      11.350  11.319  18.838  0.00  0.00    +0.000 C 
ATOM     24  C   UNL     1      12.310  12.116  19.716  0.00  0.00    +0.000 C 
ENDBRANCH  20  23
ENDBRANCH  19  20
ENDBRANCH  18  19
ENDBRANCH  17  18
ENDBRANCH  15  17
ENDBRANCH  14  15
ENDBRANCH   1  14
BRANCH  12  25
ATOM     25  C   UNL     1       3.564   6.837  19.498  0.00  0.00    +0.000 C 
BRANCH  25  26
ATOM     26  C   UNL     1       2.390   7.772  19.215  0.00  0.00    +0.000 A 
ATOM     27  C   UNL     1       2.141   8.361  17.964  0.00  0.00    +0.000 A 
ATOM     28  C   UNL     1       1.141   9.330  17.808  0.00  0.00    +0.000 A 
ATOM     29  C   UNL     1       0.382   9.744  18.901  0.00  0.00    +0.000 A 
ATOM     30  C   UNL     1       0.603   9.160  20.143  0.00  0.00    +0.000 A 
ATOM     31 CL   UNL     1      -0.313   9.677  21.507  0.00  0.00    +0.000 Cl
ATOM     32  C   UNL     1       1.589   8.178  20.301  0.00  0.00    +0.000 A 
ENDBRANCH  25  26
ENDBRANCH  12  25
TORSDOF 10
ENDMDL
MODEL 4
REMARK VINA RESULT:      -7.5      0.933      1.204
REMARK  Name = 
REMARK  12 active torsions:
REMARK  status: ('A' for Active; 'I' for Inactive)
REMARK    1  A    between atoms: C_1  and  C_2
REMARK    2  A    between atoms: C_2  and  N_3
REMARK    3  A    between atoms: N_3  and  C_4
REMARK    4  A    between atoms: N_3  and  C_6
REMARK    5  A    between atoms: C_4  and  C_5
REMARK    6  A    between atoms: C_6  and  C_7
REMARK    7  A    between atoms: C_7  and  C_8
REMARK    8  A    between atoms: C_8  and  N_9
REMARK    9  A    between atoms: N_9  and  C_10
REMARK   10  A    between atoms: C_10  and  C_11
REMARK   11  A    between atoms: N_22  and  C_23
REMARK   12  A    between atoms: C_23  and  C_24
REMARK                            x       y       z     vdW  Elec       q    Type
REMARK                         _______ _______ _______ _____ _____    ______ ____
ROOT
ATOM      1  C   UNL     1       2.314   7.907  18.796  0.00  0.00    +0.000 A 
ATOM      2  N   UNL     1       1.742   8.442  19.924  0.00  0.00    +0.000 NA
ATOM      3  C   UNL     1       1.342   7.645  20.931  0.00  0.00    +0.000 A 
ATOM      4  C   UNL     1       1.404   6.268  20.901  0.00  0.00    +0.000 A 
ATOM      5  C   UNL     1       2.006   5.691  19.776  0.00  0.00    +0.000 A 
ATOM      6  C   UNL     1       2.088   4.344  19.309  0.00  0.00    +0.000 A 
ATOM      7  C   UNL     1       1.535   3.129  19.765  0.00  0.00    +0.000 A 
ATOM      8  C   UNL     1       1.706   1.965  19.011  0.00  0.00    +0.000 A 
ATOM      9  C   UNL     1       2.457   1.992  17.842  0.00  0.00    +0.000 A 
ATOM     10  C   UNL     1       3.059   3.174  17.397  0.00  0.00    +0.000 A 
ATOM     11  C   UNL     1       2.839   4.350  18.135  0.00  0.00    +0.000 A 
ATOM     12  N   UNL     1       3.252   5.661  17.936  0.00  0.00    +0.000 N 
ATOM     13  C   UNL     1       2.552   6.514  18.784  0.00  0.00    +0.000 A 
ENDROOT
BRANCH   1  14
ATOM     14  C   UNL     1       2.431   8.858  17.621  0.00  0.00    +0.000 C 
BRANCH  14  15
ATOM     15  N   UNL     1       1.501  10.012  17.680  0.00  0.00    +0.000 NA
ATOM     16  H   UNL     1       1.171  10.197  16.732  0.00  0.00    +0.000 HD
BRANCH  15  17
ATOM     17  C   UNL     1       2.177  11.223  18.182  0.00  0.00    +0.000 C 
BRANCH  17  18
ATOM     18  C   UNL     1       1.168  12.252  18.720  0.00  0.00    +0.000 C 
BRANCH  18  19
ATOM     19  C   UNL     1       0.951  12.057  20.236  0.00  0.00    +0.000 C 
BRANCH  19  20
ATOM     20  N   UNL     1      -0.224  12.758  20.800  0.00  0.00    +0.000 NA
BRANCH  20  22
ATOM     21  C   UNL     1      -2.458  12.326  19.697  0.00  0.00    +0.000 C 
ATOM     22  C   UNL     1      -1.157  13.128  19.715  0.00  0.00    +0.000 C 
ENDBRANCH  20  22
BRANCH  20  23
ATOM     23  C   UNL     1      -0.873  12.038  21.906  0.00  0.00    +0.000 C 
ATOM     24  C   UNL     1      -0.285  10.674  22.252  0.00  0.00    +0.000 C 
ENDBRANCH  20  23
ENDBRANCH  19  20
ENDBRANCH  18  19
ENDBRANCH  17  18
ENDBRANCH  15  17
ENDBRANCH  14  15
ENDBRANCH   1  14
BRANCH  12  25
ATOM     25  C   UNL     1       4.273   6.047  16.960  0.00  0.00    +0.000 C 
BRANCH  25  26
ATOM     26  C   UNL     1       5.692   6.182  17.507  0.00  0.00    +0.000 A 
ATOM     27  C   UNL     1       6.321   5.210  18.302  0.00  0.00    +0.000 A 
ATOM     28  C   UNL     1       7.563   5.461  18.902  0.00  0.00    +0.000 A 
ATOM     29  C   UNL     1       8.192   6.693  18.734  0.00  0.00    +0.000 A 
ATOM     30  C   UNL     1       7.593   7.660  17.936  0.00  0.00    +0.000 A 
ATOM     31 CL   UNL     1       8.350   9.195  17.738  0.00  0.00    +0.000 Cl
ATOM     32  C   UNL     1       6.361   7.409  17.321  0.00  0.00    +0.000 A 
ENDBRANCH  25  26
ENDBRANCH  12  25
TORSDOF 10
ENDMDL
MODEL 5
REMARK VINA RESULT:      -7.4      1.306      1.951
REMARK  Name = 
REMARK  12 active torsions:
REMARK  status: ('A' for Active; 'I' for Inactive)
REMARK    1  A    between atoms: C_1  and  C_2
REMARK    2  A    between atoms: C_2  and  N_3
REMARK    3  A    between atoms: N_3  and  C_4
REMARK    4  A    between atoms: N_3  and  C_6
REMARK    5  A    between atoms: C_4  and  C_5
REMARK    6  A    between atoms: C_6  and  C_7
REMARK    7  A    between atoms: C_7  and  C_8
REMARK    8  A    between atoms: C_8  and  N_9
REMARK    9  A    between atoms: N_9  and  C_10
REMARK   10  A    between atoms: C_10  and  C_11
REMARK   11  A    between atoms: N_22  and  C_23
REMARK   12  A    between atoms: C_23  and  C_24
REMARK                            x       y       z     vdW  Elec       q    Type
REMARK                         _______ _______ _______ _____ _____    ______ ____
ROOT
ATOM      1  C   UNL     1       2.043   8.340  18.962  0.00  0.00    +0.000 A 
ATOM      2  N   UNL     1       1.554   8.822  20.150  0.00  0.00    +0.000 NA
ATOM      3  C   UNL     1       1.255   7.982  21.157  0.00  0.00    +0.000 A 
ATOM      4  C   UNL     1       1.347   6.608  21.074  0.00  0.00    +0.000 A 
ATOM      5  C   UNL     1       1.868   6.085  19.884  0.00  0.00    +0.000 A 
ATOM      6  C   UNL     1       1.943   4.757  19.365  0.00  0.00    +0.000 A 
ATOM      7  C   UNL     1       1.458   3.513  19.820  0.00  0.00    +0.000 A 
ATOM      8  C   UNL     1       1.593   2.380  19.015  0.00  0.00    +0.000 A 
ATOM      9  C   UNL     1       2.245   2.466  17.790  0.00  0.00    +0.000 A 
ATOM     10  C   UNL     1       2.781   3.678  17.340  0.00  0.00    +0.000 A 
ATOM     11  C   UNL     1       2.595   4.822  18.135  0.00  0.00    +0.000 A 
ATOM     12  N   UNL     1       2.960   6.149  17.949  0.00  0.00    +0.000 N 
ATOM     13  C   UNL     1       2.312   6.955  18.881  0.00  0.00    +0.000 A 
ENDROOT
BRANCH   1  14
ATOM     14  C   UNL     1       2.042   9.332  17.816  0.00  0.00    +0.000 C 
BRANCH  14  15
ATOM     15  N   UNL     1       1.238  10.552  18.071  0.00  0.00    +0.000 NA
ATOM     16  H   UNL     1       0.624  10.697  17.269  0.00  0.00    +0.000 HD
BRANCH  15  17
ATOM     17  C   UNL     1       2.098  11.743  18.217  0.00  0.00    +0.000 C 
BRANCH  17  18
ATOM     18  C   UNL     1       1.432  12.817  19.093  0.00  0.00    +0.000 C 
BRANCH  18  19
ATOM     19  C   UNL     1       1.006  12.223  20.453  0.00  0.00    +0.000 C 
BRANCH  19  20
ATOM     20  N   UNL     1      -0.389  11.733  20.518  0.00  0.00    +0.000 NA
BRANCH  20  22
ATOM     21  C   UNL     1      -1.031  12.901  22.667  0.00  0.00    +0.000 C 
ATOM     22  C   UNL     1      -0.803  11.582  21.929  0.00  0.00    +0.000 C 
ENDBRANCH  20  22
BRANCH  20  23
ATOM     23  C   UNL     1      -1.335  12.521  19.715  0.00  0.00    +0.000 C 
ATOM     24  C   UNL     1      -2.272  11.725  18.812  0.00  0.00    +0.000 C 
ENDBRANCH  20  23
ENDBRANCH  19  20
ENDBRANCH  18  19
ENDBRANCH  17  18
ENDBRANCH  15  17
ENDBRANCH  14  15
ENDBRANCH   1  14
BRANCH  12  25
ATOM     25  C   UNL     1       3.889   6.594  16.908  0.00  0.00    +0.000 C 
BRANCH  25  26
ATOM     26  C   UNL     1       5.276   5.958  16.944  0.00  0.00    +0.000 A 
ATOM     27  C   UNL     1       5.771   5.101  15.947  0.00  0.00    +0.000 A 
ATOM     28  C   UNL     1       6.988   4.426  16.115  0.00  0.00    +0.000 A 
ATOM     29  C   UNL     1       7.726   4.580  17.287  0.00  0.00    +0.000 A 
ATOM     30  C   UNL     1       7.259   5.437  18.277  0.00  0.00    +0.000 A 
ATOM     31 CL   UNL     1       8.150   5.618  19.740  0.00  0.00    +0.000 Cl
ATOM     32  C   UNL     1       6.053   6.126  18.108  0.00  0.00    +0.000 A 
ENDBRANCH  25  26
ENDBRANCH  12  25
TORSDOF 10
ENDMDL
MODEL 6
REMARK VINA RESULT:      -7.4      0.792      1.591
REMARK  Name = 
REMARK  12 active torsions:
REMARK  status: ('A' for Active; 'I' for Inactive)
REMARK    1  A    between atoms: C_1  and  C_2
REMARK    2  A    between atoms: C_2  and  N_3
REMARK    3  A    between atoms: N_3  and  C_4
REMARK    4  A    between atoms: N_3  and  C_6
REMARK    5  A    between atoms: C_4  and  C_5
REMARK    6  A    between atoms: C_6  and  C_7
REMARK    7  A    between atoms: C_7  and  C_8
REMARK    8  A    between atoms: C_8  and  N_9
REMARK    9  A    between atoms: N_9  and  C_10
REMARK   10  A    between atoms: C_10  and  C_11
REMARK   11  A    between atoms: N_22  and  C_23
REMARK   12  A    between atoms: C_23  and  C_24
REMARK                            x       y       z     vdW  Elec       q    Type
REMARK                         _______ _______ _______ _____ _____    ______ ____
ROOT
ATOM      1  C   UNL     1       2.256   7.930  18.923  0.00  0.00    +0.000 A 
ATOM      2  N   UNL     1       1.699   8.429  20.074  0.00  0.00    +0.000 NA
ATOM      3  C   UNL     1       1.324   7.602  21.067  0.00  0.00    +0.000 A 
ATOM      4  C   UNL     1       1.401   6.226  21.000  0.00  0.00    +0.000 A 
ATOM      5  C   UNL     1       1.989   5.686  19.850  0.00  0.00    +0.000 A 
ATOM      6  C   UNL     1       2.077   4.353  19.346  0.00  0.00    +0.000 A 
ATOM      7  C   UNL     1       1.545   3.120  19.779  0.00  0.00    +0.000 A 
ATOM      8  C   UNL     1       1.714   1.978  18.992  0.00  0.00    +0.000 A 
ATOM      9  C   UNL     1       2.445   2.044  17.812  0.00  0.00    +0.000 A 
ATOM     10  C   UNL     1       3.027   3.244  17.388  0.00  0.00    +0.000 A 
ATOM     11  C   UNL     1       2.807   4.398  18.160  0.00  0.00    +0.000 A 
ATOM     12  N   UNL     1       3.203   5.717  17.988  0.00  0.00    +0.000 N 
ATOM     13  C   UNL     1       2.509   6.540  18.871  0.00  0.00    +0.000 A 
ENDROOT
BRANCH   1  14
ATOM     14  C   UNL     1       2.343   8.912  17.772  0.00  0.00    +0.000 C 
BRANCH  14  15
ATOM     15  N   UNL     1       1.327   9.993  17.819  0.00  0.00    +0.000 NA
ATOM     16  H   UNL     1       1.360  10.415  18.746  0.00  0.00    +0.000 HD
BRANCH  15  17
ATOM     17  C   UNL     1      -0.032   9.462  17.598  0.00  0.00    +0.000 C 
BRANCH  17  18
ATOM     18  C   UNL     1      -1.107  10.418  18.144  0.00  0.00    +0.000 C 
BRANCH  18  19
ATOM     19  C   UNL     1      -0.454  11.602  18.888  0.00  0.00    +0.000 C 
BRANCH  19  20
ATOM     20  N   UNL     1      -0.284  11.415  20.346  0.00  0.00    +0.000 NA
BRANCH  20  22
ATOM     21  C   UNL     1       1.397  13.303  20.272  0.00  0.00    +0.000 C 
ATOM     22  C   UNL     1       1.050  11.898  20.763  0.00  0.00    +0.000 C 
ENDBRANCH  20  22
BRANCH  20  23
ATOM     23  C   UNL     1      -1.382  11.972  21.149  0.00  0.00    +0.000 C 
ATOM     24  C   UNL     1      -2.310  12.946  20.430  0.00  0.00    +0.000 C 
ENDBRANCH  20  23
ENDBRANCH  19  20
ENDBRANCH  18  19
ENDBRANCH  17  18
ENDBRANCH  15  17
ENDBRANCH  14  15
ENDBRANCH   1  14
BRANCH  12  25
ATOM     25  C   UNL     1       4.203   6.141  17.006  0.00  0.00    +0.000 C 
BRANCH  25  26
ATOM     26  C   UNL     1       5.635   6.241  17.523  0.00  0.00    +0.000 A 
ATOM     27  C   UNL     1       6.262   5.248  18.294  0.00  0.00    +0.000 A 
ATOM     28  C   UNL     1       7.521   5.468  18.869  0.00  0.00    +0.000 A 
ATOM     29  C   UNL     1       8.172   6.688  18.700  0.00  0.00    +0.000 A 
ATOM     30  C   UNL     1       7.575   7.676  17.926  0.00  0.00    +0.000 A 
ATOM     31 CL   UNL     1       8.358   9.197  17.727  0.00  0.00    +0.000 Cl
ATOM     32  C   UNL     1       6.325   7.456  17.335  0.00  0.00    +0.000 A 
ENDBRANCH  25  26
ENDBRANCH  12  25
TORSDOF 10
ENDMDL
MODEL 7
REMARK VINA RESULT:      -7.3      3.679      7.274
REMARK  Name = 
REMARK  12 active torsions:
REMARK  status: ('A' for Active; 'I' for Inactive)
REMARK    1  A    between atoms: C_1  and  C_2
REMARK    2  A    between atoms: C_2  and  N_3
REMARK    3  A    between atoms: N_3  and  C_4
REMARK    4  A    between atoms: N_3  and  C_6
REMARK    5  A    between atoms: C_4  and  C_5
REMARK    6  A    between atoms: C_6  and  C_7
REMARK    7  A    between atoms: C_7  and  C_8
REMARK    8  A    between atoms: C_8  and  N_9
REMARK    9  A    between atoms: N_9  and  C_10
REMARK   10  A    between atoms: C_10  and  C_11
REMARK   11  A    between atoms: N_22  and  C_23
REMARK   12  A    between atoms: C_23  and  C_24
REMARK                            x       y       z     vdW  Elec       q    Type
REMARK                         _______ _______ _______ _____ _____    ______ ____
ROOT
ATOM      1  C   UNL     1       6.405   5.906  16.954  0.00  0.00    +0.000 A 
ATOM      2  N   UNL     1       6.946   5.615  15.726  0.00  0.00    +0.000 NA
ATOM      3  C   UNL     1       6.371   4.701  14.926  0.00  0.00    +0.000 A 
ATOM      4  C   UNL     1       5.266   3.951  15.273  0.00  0.00    +0.000 A 
ATOM      5  C   UNL     1       4.675   4.242  16.508  0.00  0.00    +0.000 A 
ATOM      6  C   UNL     1       3.666   3.582  17.274  0.00  0.00    +0.000 A 
ATOM      7  C   UNL     1       2.962   2.371  17.105  0.00  0.00    +0.000 A 
ATOM      8  C   UNL     1       2.099   1.926  18.109  0.00  0.00    +0.000 A 
ATOM      9  C   UNL     1       1.896   2.694  19.249  0.00  0.00    +0.000 A 
ATOM     10  C   UNL     1       2.543   3.924  19.416  0.00  0.00    +0.000 A 
ATOM     11  C   UNL     1       3.449   4.338  18.425  0.00  0.00    +0.000 A 
ATOM     12  N   UNL     1       4.261   5.460  18.321  0.00  0.00    +0.000 N 
ATOM     13  C   UNL     1       5.180   5.287  17.290  0.00  0.00    +0.000 A 
ENDROOT
BRANCH   1  14
ATOM     14  C   UNL     1       7.302   6.705  17.879  0.00  0.00    +0.000 C 
BRANCH  14  15
ATOM     15  N   UNL     1       7.546   8.099  17.432  0.00  0.00    +0.000 NA
ATOM     16  H   UNL     1       7.920   8.064  16.484  0.00  0.00    +0.000 HD
BRANCH  15  17
ATOM     17  C   UNL     1       8.533   8.775  18.295  0.00  0.00    +0.000 C 
BRANCH  17  18
ATOM     18  C   UNL     1       8.397  10.305  18.219  0.00  0.00    +0.000 C 
BRANCH  18  19
ATOM     19  C   UNL     1       9.785  10.969  18.098  0.00  0.00    +0.000 C 
BRANCH  19  20
ATOM     20  N   UNL     1      10.459  11.261  19.383  0.00  0.00    +0.000 NA
BRANCH  20  22
ATOM     21  C   UNL     1      11.987  12.651  17.925  0.00  0.00    +0.000 C 
ATOM     22  C   UNL     1      11.262  12.496  19.261  0.00  0.00    +0.000 C 
ENDBRANCH  20  22
BRANCH  20  23
ATOM     23  C   UNL     1       9.554  11.268  20.542  0.00  0.00    +0.000 C 
ATOM     24  C   UNL     1       9.689  12.455  21.490  0.00  0.00    +0.000 C 
ENDBRANCH  20  23
ENDBRANCH  19  20
ENDBRANCH  18  19
ENDBRANCH  17  18
ENDBRANCH  15  17
ENDBRANCH  14  15
ENDBRANCH   1  14
BRANCH  12  25
ATOM     25  C   UNL     1       4.140   6.629  19.194  0.00  0.00    +0.000 C 
BRANCH  25  26
ATOM     26  C   UNL     1       2.915   7.508  18.955  0.00  0.00    +0.000 A 
ATOM     27  C   UNL     1       2.666   8.196  17.756  0.00  0.00    +0.000 A 
ATOM     28  C   UNL     1       1.607   9.109  17.654  0.00  0.00    +0.000 A 
ATOM     29  C   UNL     1       0.787   9.365  18.752  0.00  0.00    +0.000 A 
ATOM     30  C   UNL     1       1.008   8.680  19.941  0.00  0.00    +0.000 A 
ATOM     31 CL   UNL     1       0.016   9.004  21.311  0.00  0.00    +0.000 Cl
ATOM     32  C   UNL     1       2.054   7.755  20.043  0.00  0.00    +0.000 A 
ENDBRANCH  25  26
ENDBRANCH  12  25
TORSDOF 10
ENDMDL
MODEL 8
REMARK VINA RESULT:      -7.3      1.154      1.459
REMARK  Name = 
REMARK  12 active torsions:
REMARK  status: ('A' for Active; 'I' for Inactive)
REMARK    1  A    between atoms: C_1  and  C_2
REMARK    2  A    between atoms: C_2  and  N_3
REMARK    3  A    between atoms: N_3  and  C_4
REMARK    4  A    between atoms: N_3  and  C_6
REMARK    5  A    between atoms: C_4  and  C_5
REMARK    6  A    between atoms: C_6  and  C_7
REMARK    7  A    between atoms: C_7  and  C_8
REMARK    8  A    between atoms: C_8  and  N_9
REMARK    9  A    between atoms: N_9  and  C_10
REMARK   10  A    between atoms: C_10  and  C_11
REMARK   11  A    between atoms: N_22  and  C_23
REMARK   12  A    between atoms: C_23  and  C_24
REMARK                            x       y       z     vdW  Elec       q    Type
REMARK                         _______ _______ _______ _____ _____    ______ ____
ROOT
ATOM      1  C   UNL     1       2.288   7.917  18.837  0.00  0.00    +0.000 A 
ATOM      2  N   UNL     1       1.711   8.432  19.972  0.00  0.00    +0.000 NA
ATOM      3  C   UNL     1       1.325   7.619  20.971  0.00  0.00    +0.000 A 
ATOM      4  C   UNL     1       1.407   6.242  20.927  0.00  0.00    +0.000 A 
ATOM      5  C   UNL     1       2.014   5.687  19.795  0.00  0.00    +0.000 A 
ATOM      6  C   UNL     1       2.115   4.346  19.313  0.00  0.00    +0.000 A 
ATOM      7  C   UNL     1       1.581   3.118  19.758  0.00  0.00    +0.000 A 
ATOM      8  C   UNL     1       1.767   1.965  18.991  0.00  0.00    +0.000 A 
ATOM      9  C   UNL     1       2.515   2.015  17.821  0.00  0.00    +0.000 A 
ATOM     10  C   UNL     1       3.099   3.211  17.387  0.00  0.00    +0.000 A 
ATOM     11  C   UNL     1       2.863   4.375  18.138  0.00  0.00    +0.000 A 
ATOM     12  N   UNL     1       3.257   5.694  17.951  0.00  0.00    +0.000 N 
ATOM     13  C   UNL     1       2.546   6.528  18.810  0.00  0.00    +0.000 A 
ENDROOT
BRANCH   1  14
ATOM     14  C   UNL     1       2.388   8.881  17.672  0.00  0.00    +0.000 C 
BRANCH  14  15
ATOM     15  N   UNL     1       1.519  10.077  17.798  0.00  0.00    +0.000 NA
ATOM     16  H   UNL     1       0.993  10.176  16.929  0.00  0.00    +0.000 HD
BRANCH  15  17
ATOM     17  C   UNL     1       2.316  11.303  18.000  0.00  0.00    +0.000 C 
BRANCH  17  18
ATOM     18  C   UNL     1       1.747  12.166  19.138  0.00  0.00    +0.000 C 
BRANCH  18  19
ATOM     19  C   UNL     1       1.425  13.589  18.632  0.00  0.00    +0.000 C 
BRANCH  19  20
ATOM     20  N   UNL     1      -0.015  13.897  18.488  0.00  0.00    +0.000 NA
BRANCH  20  22
ATOM     21  C   UNL     1      -1.767  12.088  18.261  0.00  0.00    +0.000 C 
ATOM     22  C   UNL     1      -0.821  12.865  19.174  0.00  0.00    +0.000 C 
ENDBRANCH  20  22
BRANCH  20  23
ATOM     23  C   UNL     1      -0.373  15.268  18.878  0.00  0.00    +0.000 C 
ATOM     24  C   UNL     1       0.795  16.209  19.163  0.00  0.00    +0.000 C 
ENDBRANCH  20  23
ENDBRANCH  19  20
ENDBRANCH  18  19
ENDBRANCH  17  18
ENDBRANCH  15  17
ENDBRANCH  14  15
ENDBRANCH   1  14
BRANCH  12  25
ATOM     25  C   UNL     1       4.270   6.105  16.977  0.00  0.00    +0.000 C 
BRANCH  25  26
ATOM     26  C   UNL     1       5.692   6.229  17.516  0.00  0.00    +0.000 A 
ATOM     27  C   UNL     1       6.320   5.250  18.305  0.00  0.00    +0.000 A 
ATOM     28  C   UNL     1       7.566   5.490  18.898  0.00  0.00    +0.000 A 
ATOM     29  C   UNL     1       8.203   6.718  18.731  0.00  0.00    +0.000 A 
ATOM     30  C   UNL     1       7.605   7.693  17.940  0.00  0.00    +0.000 A 
ATOM     31 CL   UNL     1       8.372   9.223  17.744  0.00  0.00    +0.000 Cl
ATOM     32  C   UNL     1       6.368   7.451  17.331  0.00  0.00    +0.000 A 
ENDBRANCH  25  26
ENDBRANCH  12  25
TORSDOF 10
ENDMDL
MODEL 9
REMARK VINA RESULT:      -7.3      3.598      7.093
REMARK  Name = 
REMARK  12 active torsions:
REMARK  status: ('A' for Active; 'I' for Inactive)
REMARK    1  A    between atoms: C_1  and  C_2
REMARK    2  A    between atoms: C_2  and  N_3
REMARK    3  A    between atoms: N_3  and  C_4
REMARK    4  A    between atoms: N_3  and  C_6
REMARK    5  A    between atoms: C_4  and  C_5
REMARK    6  A    between atoms: C_6  and  C_7
REMARK    7  A    between atoms: C_7  and  C_8
REMARK    8  A    between atoms: C_8  and  N_9
REMARK    9  A    between atoms: N_9  and  C_10
REMARK   10  A    between atoms: C_10  and  C_11
REMARK   11  A    between atoms: N_22  and  C_23
REMARK   12  A    between atoms: C_23  and  C_24
REMARK                            x       y       z     vdW  Elec       q    Type
REMARK                         _______ _______ _______ _____ _____    ______ ____
ROOT
ATOM      1  C   UNL     1       6.199   5.892  16.943  0.00  0.00    +0.000 A 
ATOM      2  N   UNL     1       6.689   5.606  15.692  0.00  0.00    +0.000 NA
ATOM      3  C   UNL     1       6.084   4.692  14.914  0.00  0.00    +0.000 A 
ATOM      4  C   UNL     1       4.996   3.938  15.305  0.00  0.00    +0.000 A 
ATOM      5  C   UNL     1       4.457   4.224  16.565  0.00  0.00    +0.000 A 
ATOM      6  C   UNL     1       3.483   3.559  17.371  0.00  0.00    +0.000 A 
ATOM      7  C   UNL     1       2.775   2.347  17.228  0.00  0.00    +0.000 A 
ATOM      8  C   UNL     1       1.956   1.896  18.266  0.00  0.00    +0.000 A 
ATOM      9  C   UNL     1       1.799   2.661  19.416  0.00  0.00    +0.000 A 
ATOM     10  C   UNL     1       2.450   3.892  19.559  0.00  0.00    +0.000 A 
ATOM     11  C   UNL     1       3.312   4.312  18.532  0.00  0.00    +0.000 A 
ATOM     12  N   UNL     1       4.116   5.435  18.397  0.00  0.00    +0.000 N 
ATOM     13  C   UNL     1       4.991   5.268  17.328  0.00  0.00    +0.000 A 
ENDROOT
BRANCH   1  14
ATOM     14  C   UNL     1       7.132   6.691  17.831  0.00  0.00    +0.000 C 
BRANCH  14  15
ATOM     15  N   UNL     1       7.590   7.970  17.235  0.00  0.00    +0.000 NA
ATOM     16  H   UNL     1       8.216   7.749  16.461  0.00  0.00    +0.000 HD
BRANCH  15  17
ATOM     17  C   UNL     1       8.333   8.785  18.215  0.00  0.00    +0.000 C 
BRANCH  17  18
ATOM     18  C   UNL     1       8.256  10.284  17.879  0.00  0.00    +0.000 C 
BRANCH  18  19
ATOM     19  C   UNL     1       9.569  10.996  18.269  0.00  0.00    +0.000 C 
BRANCH  19  20
ATOM     20  N   UNL     1       9.466  11.924  19.417  0.00  0.00    +0.000 NA
BRANCH  20  22
ATOM     21  C   UNL     1      11.954  11.953  19.868  0.00  0.00    +0.000 C 
ATOM     22  C   UNL     1      10.549  11.648  20.385  0.00  0.00    +0.000 C 
ENDBRANCH  20  22
BRANCH  20  23
ATOM     23  C   UNL     1       9.377  13.340  19.033  0.00  0.00    +0.000 C 
ATOM     24  C   UNL     1       8.323  13.683  17.984  0.00  0.00    +0.000 C 
ENDBRANCH  20  23
ENDBRANCH  19  20
ENDBRANCH  18  19
ENDBRANCH  17  18
ENDBRANCH  15  17
ENDBRANCH  14  15
ENDBRANCH   1  14
BRANCH  12  25
ATOM     25  C   UNL     1       4.029   6.602  19.278  0.00  0.00    +0.000 C 
BRANCH  25  26
ATOM     26  C   UNL     1       2.842   7.529  19.030  0.00  0.00    +0.000 A 
ATOM     27  C   UNL     1       2.641   8.245  17.838  0.00  0.00    +0.000 A 
ATOM     28  C   UNL     1       1.619   9.198  17.731  0.00  0.00    +0.000 A 
ATOM     29  C   UNL     1       0.788   9.468  18.816  0.00  0.00    +0.000 A 
ATOM     30  C   UNL     1       0.961   8.757  19.999  0.00  0.00    +0.000 A 
ATOM     31 CL   UNL     1      -0.045   9.096  21.355  0.00  0.00    +0.000 Cl
ATOM     32  C   UNL     1       1.969   7.792  20.105  0.00  0.00    +0.000 A 
ENDBRANCH  25  26
ENDBRANCH  12  25
TORSDOF 10
ENDMDL
