MODEL 1
REMARK VINA RESULT:      -7.9      0.000      0.000
REMARK  Name = 
REMARK  4 active torsions:
REMARK  status: ('A' for Active; 'I' for Inactive)
REMARK    1  A    between atoms: C_4  and  C_5
REMARK    2  A    between atoms: C_7  and  C_8
REMARK    3  A    between atoms: C_8  and  N_9
REMARK    4  A    between atoms: N_12  and  C_13
REMARK                            x       y       z     vdW  Elec       q    Type
REMARK                         _______ _______ _______ _____ _____    ______ ____
ROOT
ATOM      1  N   UNL     1       7.427   6.324  17.240  0.00  0.00    +0.000 NA
ATOM      2  C   UNL     1       7.288   4.894  17.588  0.00  0.00    +0.000 C 
ATOM      3  C   UNL     1       6.106   4.532  18.519  0.00  0.00    +0.000 C 
ATOM      4  N   UNL     1       4.838   5.083  18.009  0.00  0.00    +0.000 N 
ATOM      5  C   UNL     1       4.887   6.497  17.583  0.00  0.00    +0.000 C 
ATOM      6  C   UNL     1       6.122   6.763  16.682  0.00  0.00    +0.000 C 
ENDROOT
BRANCH   4   7
ATOM      7  C   UNL     1       3.633   4.624  18.551  0.00  0.00    +0.000 A 
ATOM      8  C   UNL     1       2.673   3.916  17.812  0.00  0.00    +0.000 A 
ATOM      9  C   UNL     1       1.434   3.560  18.364  0.00  0.00    +0.000 A 
ATOM     10  C   UNL     1       1.125   3.910  19.673  0.00  0.00    +0.000 A 
ATOM     11  C   UNL     1       2.062   4.598  20.434  0.00  0.00    +0.000 A 
ATOM     12  C   UNL     1       3.299   4.942  19.877  0.00  0.00    +0.000 A 
ENDBRANCH   4   7
BRANCH   1  13
ATOM     13  C   UNL     1       7.807   7.173  18.374  0.00  0.00    +0.000 C 
BRANCH  13  16
ATOM     14  C   UNL     1       8.567   9.642  18.857  0.00  0.00    +0.000 C 
ATOM     15  C   UNL     1       7.723   9.628  17.606  0.00  0.00    +0.000 C 
ATOM     16  C   UNL     1       8.547   8.417  17.960  0.00  0.00    +0.000 C 
BRANCH  14  20
ATOM     17  C   UNL     1      11.768  12.564  19.082  0.00  0.00    +0.000 A 
ATOM     18  C   UNL     1      11.273  12.157  17.847  0.00  0.00    +0.000 A 
ATOM     19  C   UNL     1      10.273  11.180  17.784  0.00  0.00    +0.000 A 
ATOM     20  C   UNL     1       9.745  10.587  18.944  0.00  0.00    +0.000 A 
ATOM     21  C   UNL     1      10.288  10.991  20.168  0.00  0.00    +0.000 A 
ATOM     22  C   UNL     1      11.286  11.973  20.246  0.00  0.00    +0.000 A 
ENDBRANCH  14  20
ENDBRANCH  13  16
ENDBRANCH   1  13
TORSDOF 4
ENDMDL
MODEL 2
REMARK VINA RESULT:      -7.9      0.257      1.466
REMARK  Name = 
REMARK  4 active torsions:
REMARK  status: ('A' for Active; 'I' for Inactive)
REMARK    1  A    between atoms: C_4  and  C_5
REMARK    2  A    between atoms: C_7  and  C_8
REMARK    3  A    between atoms: C_8  and  N_9
REMARK    4  A    between atoms: N_12  and  C_13
REMARK                            x       y       z     vdW  Elec       q    Type
REMARK                         _______ _______ _______ _____ _____    ______ ____
ROOT
ATOM      1  N   UNL     1       7.656   6.378  17.409  0.00  0.00    +0.000 NA
ATOM      2  C   UNL     1       7.451   4.984  17.854  0.00  0.00    +0.000 C 
ATOM      3  C   UNL     1       6.185   4.720  18.704  0.00  0.00    +0.000 C 
ATOM      4  N   UNL     1       4.980   5.252  18.046  0.00  0.00    +0.000 N 
ATOM      5  C   UNL     1       5.101   6.627  17.517  0.00  0.00    +0.000 C 
ATOM      6  C   UNL     1       6.414   6.796  16.708  0.00  0.00    +0.000 C 
ENDROOT
BRANCH   4   7
ATOM      7  C   UNL     1       3.723   4.861  18.515  0.00  0.00    +0.000 A 
ATOM      8  C   UNL     1       3.281   5.093  19.828  0.00  0.00    +0.000 A 
ATOM      9  C   UNL     1       2.053   4.597  20.290  0.00  0.00    +0.000 A 
ATOM     10  C   UNL     1       1.237   3.852  19.447  0.00  0.00    +0.000 A 
ATOM     11  C   UNL     1       1.641   3.620  18.138  0.00  0.00    +0.000 A 
ATOM     12  C   UNL     1       2.864   4.125  17.683  0.00  0.00    +0.000 A 
ENDBRANCH   4   7
BRANCH   1  13
ATOM     13  C   UNL     1       7.960   7.308  18.502  0.00  0.00    +0.000 C 
BRANCH  13  16
ATOM     14  C   UNL     1       8.662   9.808  18.912  0.00  0.00    +0.000 C 
ATOM     15  C   UNL     1       7.761   9.747  17.702  0.00  0.00    +0.000 C 
ATOM     16  C   UNL     1       8.640   8.568  18.035  0.00  0.00    +0.000 C 
BRANCH  14  20
ATOM     17  C   UNL     1      12.133  12.412  18.982  0.00  0.00    +0.000 A 
ATOM     18  C   UNL     1      11.586  11.935  20.169  0.00  0.00    +0.000 A 
ATOM     19  C   UNL     1      10.440  11.134  20.138  0.00  0.00    +0.000 A 
ATOM     20  C   UNL     1       9.811  10.790  18.929  0.00  0.00    +0.000 A 
ATOM     21  C   UNL     1      10.362  11.315  17.755  0.00  0.00    +0.000 A 
ATOM     22  C   UNL     1      11.514  12.113  17.771  0.00  0.00    +0.000 A 
ENDBRANCH  14  20
ENDBRANCH  13  16
ENDBRANCH   1  13
TORSDOF 4
ENDMDL
MODEL 3
REMARK VINA RESULT:      -7.8      0.921      1.169
REMARK  Name = 
REMARK  4 active torsions:
REMARK  status: ('A' for Active; 'I' for Inactive)
REMARK    1  A    between atoms: C_4  and  C_5
REMARK    2  A    between atoms: C_7  and  C_8
REMARK    3  A    between atoms: C_8  and  N_9
REMARK    4  A    between atoms: N_12  and  C_13
REMARK                            x       y       z     vdW  Elec       q    Type
REMARK                         _______ _______ _______ _____ _____    ______ ____
ROOT
ATOM      1  N   UNL     1       7.483   6.267  16.858  0.00  0.00    +0.000 NA
ATOM      2  C   UNL     1       7.478   4.833  17.215  0.00  0.00    +0.000 C 
ATOM      3  C   UNL     1       6.216   4.320  17.949  0.00  0.00    +0.000 C 
ATOM      4  N   UNL     1       4.989   4.694  17.225  0.00  0.00    +0.000 N 
ATOM      5  C   UNL     1       4.921   6.101  16.777  0.00  0.00    +0.000 C 
ATOM      6  C   UNL     1       6.242   6.526  16.083  0.00  0.00    +0.000 C 
ENDROOT
BRANCH   4   7
ATOM      7  C   UNL     1       3.782   4.081  17.575  0.00  0.00    +0.000 A 
ATOM      8  C   UNL     1       2.590   4.788  17.797  0.00  0.00    +0.000 A 
ATOM      9  C   UNL     1       1.425   4.148  18.244  0.00  0.00    +0.000 A 
ATOM     10  C   UNL     1       1.428   2.779  18.483  0.00  0.00    +0.000 A 
ATOM     11  C   UNL     1       2.588   2.049  18.257  0.00  0.00    +0.000 A 
ATOM     12  C   UNL     1       3.744   2.696  17.804  0.00  0.00    +0.000 A 
ENDBRANCH   4   7
BRANCH   1  13
ATOM     13  C   UNL     1       7.557   7.163  18.017  0.00  0.00    +0.000 C 
BRANCH  13  16
ATOM     14  C   UNL     1       8.340   9.567  18.736  0.00  0.00    +0.000 C 
ATOM     15  C   UNL     1       7.585   9.671  17.434  0.00  0.00    +0.000 C 
ATOM     16  C   UNL     1       8.353   8.413  17.750  0.00  0.00    +0.000 C 
BRANCH  14  20
ATOM     17  C   UNL     1      11.593  12.369  19.372  0.00  0.00    +0.000 A 
ATOM     18  C   UNL     1      11.245  11.974  18.084  0.00  0.00    +0.000 A 
ATOM     19  C   UNL     1      10.226  11.036  17.892  0.00  0.00    +0.000 A 
ATOM     20  C   UNL     1       9.531  10.468  18.974  0.00  0.00    +0.000 A 
ATOM     21  C   UNL     1       9.928  10.857  20.258  0.00  0.00    +0.000 A 
ATOM     22  C   UNL     1      10.943  11.801  20.464  0.00  0.00    +0.000 A 
ENDBRANCH  14  20
ENDBRANCH  13  16
ENDBRANCH   1  13
TORSDOF 4
ENDMDL
MODEL 4
REMARK VINA RESULT:      -7.7      0.340      1.075
REMARK  Name = 
REMARK  4 active torsions:
REMARK  status: ('A' for Active; 'I' for Inactive)
REMARK    1  A    between atoms: C_4  and  C_5
REMARK    2  A    between atoms: C_7  and  C_8
REMARK    3  A    between atoms: C_8  and  N_9
REMARK    4  A    between atoms: N_12  and  C_13
REMARK                            x       y       z     vdW  Elec       q    Type
REMARK                         _______ _______ _______ _____ _____    ______ ____
ROOT
ATOM      1  N   UNL     1       7.464   6.384  17.306  0.00  0.00    +0.000 NA
ATOM      2  C   UNL     1       7.327   4.949  17.636  0.00  0.00    +0.000 C 
ATOM      3  C   UNL     1       6.189   4.583  18.619  0.00  0.00    +0.000 C 
ATOM      4  N   UNL     1       4.903   5.157  18.185  0.00  0.00    +0.000 N 
ATOM      5  C   UNL     1       4.947   6.578  17.782  0.00  0.00    +0.000 C 
ATOM      6  C   UNL     1       6.138   6.847  16.824  0.00  0.00    +0.000 C 
ENDROOT
BRANCH   4   7
ATOM      7  C   UNL     1       3.723   4.701  18.779  0.00  0.00    +0.000 A 
ATOM      8  C   UNL     1       3.065   3.524  18.390  0.00  0.00    +0.000 A 
ATOM      9  C   UNL     1       1.830   3.153  18.941  0.00  0.00    +0.000 A 
ATOM     10  C   UNL     1       1.221   3.957  19.897  0.00  0.00    +0.000 A 
ATOM     11  C   UNL     1       1.856   5.120  20.314  0.00  0.00    +0.000 A 
ATOM     12  C   UNL     1       3.092   5.479  19.763  0.00  0.00    +0.000 A 
ENDBRANCH   4   7
BRANCH   1  13
ATOM     13  C   UNL     1       7.912   7.208  18.435  0.00  0.00    +0.000 C 
BRANCH  13  16
ATOM     14  C   UNL     1       8.561   9.718  18.866  0.00  0.00    +0.000 C 
ATOM     15  C   UNL     1       7.754   9.635  17.593  0.00  0.00    +0.000 C 
ATOM     16  C   UNL     1       8.615   8.468  18.005  0.00  0.00    +0.000 C 
BRANCH  14  20
ATOM     17  C   UNL     1      11.995  12.354  19.177  0.00  0.00    +0.000 A 
ATOM     18  C   UNL     1      11.328  11.928  20.321  0.00  0.00    +0.000 A 
ATOM     19  C   UNL     1      10.195  11.116  20.208  0.00  0.00    +0.000 A 
ATOM     20  C   UNL     1       9.698  10.710  18.957  0.00  0.00    +0.000 A 
ATOM     21  C   UNL     1      10.368  11.184  17.824  0.00  0.00    +0.000 A 
ATOM     22  C   UNL     1      11.509  11.992  17.923  0.00  0.00    +0.000 A 
ENDBRANCH  14  20
ENDBRANCH  13  16
ENDBRANCH   1  13
TORSDOF 4
ENDMDL
MODEL 5
REMARK VINA RESULT:      -7.4      4.179      7.192
REMARK  Name = 
REMARK  4 active torsions:
REMARK  status: ('A' for Active; 'I' for Inactive)
REMARK    1  A    between atoms: C_4  and  C_5
REMARK    2  A    between atoms: C_7  and  C_8
REMARK    3  A    between atoms: C_8  and  N_9
REMARK    4  A    between atoms: N_12  and  C_13
REMARK                            x       y       z     vdW  Elec       q    Type
REMARK                         _______ _______ _______ _____ _____    ______ ____
ROOT
ATOM      1  N   UNL     1       6.174   5.936  18.413  0.00  0.00    +0.000 NA
ATOM      2  C   UNL     1       7.328   5.139  17.944  0.00  0.00    +0.000 C 
ATOM      3  C   UNL     1       7.122   4.357  16.625  0.00  0.00    +0.000 C 
ATOM      4  N   UNL     1       6.611   5.235  15.558  0.00  0.00    +0.000 N 
ATOM      5  C   UNL     1       5.487   6.113  15.944  0.00  0.00    +0.000 C 
ATOM      6  C   UNL     1       5.778   6.826  17.292  0.00  0.00    +0.000 C 
ENDROOT
BRANCH   4   7
ATOM      7  C   UNL     1       6.637   4.781  14.236  0.00  0.00    +0.000 A 
ATOM      8  C   UNL     1       5.787   3.776  13.747  0.00  0.00    +0.000 A 
ATOM      9  C   UNL     1       5.911   3.277  12.442  0.00  0.00    +0.000 A 
ATOM     10  C   UNL     1       6.895   3.772  11.594  0.00  0.00    +0.000 A 
ATOM     11  C   UNL     1       7.740   4.779  12.046  0.00  0.00    +0.000 A 
ATOM     12  C   UNL     1       7.605   5.275  13.347  0.00  0.00    +0.000 A 
ENDBRANCH   4   7
BRANCH   1  13
ATOM     13  C   UNL     1       5.033   5.123  18.846  0.00  0.00    +0.000 C 
BRANCH  13  16
ATOM     14  C   UNL     1       2.931   6.465  19.676  0.00  0.00    +0.000 C 
ATOM     15  C   UNL     1       2.477   5.123  19.156  0.00  0.00    +0.000 C 
ATOM     16  C   UNL     1       3.704   5.773  18.567  0.00  0.00    +0.000 C 
BRANCH  14  20
ATOM     17  C   UNL     1       0.637  10.107  19.116  0.00  0.00    +0.000 A 
ATOM     18  C   UNL     1       0.662   9.474  20.355  0.00  0.00    +0.000 A 
ATOM     19  C   UNL     1       1.367   8.276  20.513  0.00  0.00    +0.000 A 
ATOM     20  C   UNL     1       2.060   7.680  19.446  0.00  0.00    +0.000 A 
ATOM     21  C   UNL     1       1.986   8.320  18.204  0.00  0.00    +0.000 A 
ATOM     22  C   UNL     1       1.290   9.525  18.033  0.00  0.00    +0.000 A 
ENDBRANCH  14  20
ENDBRANCH  13  16
ENDBRANCH   1  13
TORSDOF 4
ENDMDL
MODEL 6
REMARK VINA RESULT:      -7.4      4.200      7.233
REMARK  Name = 
REMARK  4 active torsions:
REMARK  status: ('A' for Active; 'I' for Inactive)
REMARK    1  A    between atoms: C_4  and  C_5
REMARK    2  A    between atoms: C_7  and  C_8
REMARK    3  A    between atoms: C_8  and  N_9
REMARK    4  A    between atoms: N_12  and  C_13
REMARK                            x       y       z     vdW  Elec       q    Type
REMARK                         _______ _______ _______ _____ _____    ______ ____
ROOT
ATOM      1  N   UNL     1       6.057   6.056  18.386  0.00  0.00    +0.000 NA
ATOM      2  C   UNL     1       7.262   5.284  18.012  0.00  0.00    +0.000 C 
ATOM      3  C   UNL     1       7.159   4.451  16.713  0.00  0.00    +0.000 C 
ATOM      4  N   UNL     1       6.682   5.274  15.587  0.00  0.00    +0.000 N 
ATOM      5  C   UNL     1       5.509   6.125  15.877  0.00  0.00    +0.000 C 
ATOM      6  C   UNL     1       5.698   6.893  17.212  0.00  0.00    +0.000 C 
ENDROOT
BRANCH   4   7
ATOM      7  C   UNL     1       6.799   4.776  14.286  0.00  0.00    +0.000 A 
ATOM      8  C   UNL     1       7.683   5.305  13.332  0.00  0.00    +0.000 A 
ATOM      9  C   UNL     1       7.700   4.844  12.008  0.00  0.00    +0.000 A 
ATOM     10  C   UNL     1       6.827   3.840  11.605  0.00  0.00    +0.000 A 
ATOM     11  C   UNL     1       5.953   3.286  12.532  0.00  0.00    +0.000 A 
ATOM     12  C   UNL     1       5.947   3.748  13.853  0.00  0.00    +0.000 A 
ENDBRANCH   4   7
BRANCH   1  13
ATOM     13  C   UNL     1       4.920   5.219  18.783  0.00  0.00    +0.000 C 
BRANCH  13  16
ATOM     14  C   UNL     1       2.848   6.583  19.653  0.00  0.00    +0.000 C 
ATOM     15  C   UNL     1       2.374   5.238  19.160  0.00  0.00    +0.000 C 
ATOM     16  C   UNL     1       3.587   5.874  18.532  0.00  0.00    +0.000 C 
BRANCH  14  20
ATOM     17  C   UNL     1       0.558  10.231  19.124  0.00  0.00    +0.000 A 
ATOM     18  C   UNL     1       0.582   9.587  20.357  0.00  0.00    +0.000 A 
ATOM     19  C   UNL     1       1.285   8.387  20.505  0.00  0.00    +0.000 A 
ATOM     20  C   UNL     1       1.979   7.800  19.433  0.00  0.00    +0.000 A 
ATOM     21  C   UNL     1       1.906   8.452  18.197  0.00  0.00    +0.000 A 
ATOM     22  C   UNL     1       1.211   9.658  18.037  0.00  0.00    +0.000 A 
ENDBRANCH  14  20
ENDBRANCH  13  16
ENDBRANCH   1  13
TORSDOF 4
ENDMDL
MODEL 7
REMARK VINA RESULT:      -7.4      0.954      1.390
REMARK  Name = 
REMARK  4 active torsions:
REMARK  status: ('A' for Active; 'I' for Inactive)
REMARK    1  A    between atoms: C_4  and  C_5
REMARK    2  A    between atoms: C_7  and  C_8
REMARK    3  A    between atoms: C_8  and  N_9
REMARK    4  A    between atoms: N_12  and  C_13
REMARK                            x       y       z     vdW  Elec       q    Type
REMARK                         _______ _______ _______ _____ _____    ______ ____
ROOT
ATOM      1  N   UNL     1       7.105   6.658  16.653  0.00  0.00    +0.000 NA
ATOM      2  C   UNL     1       7.314   5.196  16.588  0.00  0.00    +0.000 C 
ATOM      3  C   UNL     1       6.491   4.347  17.586  0.00  0.00    +0.000 C 
ATOM      4  N   UNL     1       5.059   4.685  17.521  0.00  0.00    +0.000 N 
ATOM      5  C   UNL     1       4.748   6.130  17.526  0.00  0.00    +0.000 C 
ATOM      6  C   UNL     1       5.645   6.894  16.517  0.00  0.00    +0.000 C 
ENDROOT
BRANCH   4   7
ATOM      7  C   UNL     1       4.133   3.834  18.131  0.00  0.00    +0.000 A 
ATOM      8  C   UNL     1       3.024   3.290  17.463  0.00  0.00    +0.000 A 
ATOM      9  C   UNL     1       2.063   2.522  18.135  0.00  0.00    +0.000 A 
ATOM     10  C   UNL     1       2.188   2.281  19.498  0.00  0.00    +0.000 A 
ATOM     11  C   UNL     1       3.283   2.792  20.183  0.00  0.00    +0.000 A 
ATOM     12  C   UNL     1       4.241   3.553  19.502  0.00  0.00    +0.000 A 
ENDBRANCH   4   7
BRANCH   1  13
ATOM     13  C   UNL     1       7.607   7.271  17.888  0.00  0.00    +0.000 C 
BRANCH  13  16
ATOM     14  C   UNL     1       8.337   9.667  18.685  0.00  0.00    +0.000 C 
ATOM     15  C   UNL     1       7.535   9.801  17.414  0.00  0.00    +0.000 C 
ATOM     16  C   UNL     1       8.354   8.557  17.649  0.00  0.00    +0.000 C 
BRANCH  14  20
ATOM     17  C   UNL     1      11.841  12.113  19.444  0.00  0.00    +0.000 A 
ATOM     18  C   UNL     1      10.988  11.762  20.486  0.00  0.00    +0.000 A 
ATOM     19  C   UNL     1       9.837  11.012  20.224  0.00  0.00    +0.000 A 
ATOM     20  C   UNL     1       9.506  10.596  18.923  0.00  0.00    +0.000 A 
ATOM     21  C   UNL     1      10.364  10.995  17.891  0.00  0.00    +0.000 A 
ATOM     22  C   UNL     1      11.524  11.741  18.141  0.00  0.00    +0.000 A 
ENDBRANCH  14  20
ENDBRANCH  13  16
ENDBRANCH   1  13
TORSDOF 4
ENDMDL
MODEL 8
REMARK VINA RESULT:      -7.4      4.008      7.160
REMARK  Name = 
REMARK  4 active torsions:
REMARK  status: ('A' for Active; 'I' for Inactive)
REMARK    1  A    between atoms: C_4  and  C_5
REMARK    2  A    between atoms: C_7  and  C_8
REMARK    3  A    between atoms: C_8  and  N_9
REMARK    4  A    between atoms: N_12  and  C_13
REMARK                            x       y       z     vdW  Elec       q    Type
REMARK                         _______ _______ _______ _____ _____    ______ ____
ROOT
ATOM      1  N   UNL     1       6.428   5.974  18.458  0.00  0.00    +0.000 NA
ATOM      2  C   UNL     1       7.453   4.991  18.045  0.00  0.00    +0.000 C 
ATOM      3  C   UNL     1       7.185   4.249  16.714  0.00  0.00    +0.000 C 
ATOM      4  N   UNL     1       6.885   5.195  15.626  0.00  0.00    +0.000 N 
ATOM      5  C   UNL     1       5.907   6.252  15.958  0.00  0.00    +0.000 C 
ATOM      6  C   UNL     1       6.245   6.912  17.321  0.00  0.00    +0.000 C 
ENDROOT
BRANCH   4   7
ATOM      7  C   UNL     1       6.901   4.737  14.305  0.00  0.00    +0.000 A 
ATOM      8  C   UNL     1       7.741   5.267  13.312  0.00  0.00    +0.000 A 
ATOM      9  C   UNL     1       7.656   4.849  11.976  0.00  0.00    +0.000 A 
ATOM     10  C   UNL     1       6.724   3.890  11.601  0.00  0.00    +0.000 A 
ATOM     11  C   UNL     1       5.890   3.336  12.564  0.00  0.00    +0.000 A 
ATOM     12  C   UNL     1       5.986   3.754  13.896  0.00  0.00    +0.000 A 
ENDBRANCH   4   7
BRANCH   1  13
ATOM     13  C   UNL     1       5.145   5.367  18.829  0.00  0.00    +0.000 C 
BRANCH  13  16
ATOM     14  C   UNL     1       2.830   6.468  19.411  0.00  0.00    +0.000 C 
ATOM     15  C   UNL     1       2.635   5.495  18.274  0.00  0.00    +0.000 C 
ATOM     16  C   UNL     1       3.958   6.202  18.429  0.00  0.00    +0.000 C 
BRANCH  14  20
ATOM     17  C   UNL     1       0.327  10.013  19.372  0.00  0.00    +0.000 A 
ATOM     18  C   UNL     1       0.961   9.586  18.210  0.00  0.00    +0.000 A 
ATOM     19  C   UNL     1       1.802   8.469  18.243  0.00  0.00    +0.000 A 
ATOM     20  C   UNL     1       2.034   7.753  19.430  0.00  0.00    +0.000 A 
ATOM     21  C   UNL     1       1.412   8.229  20.590  0.00  0.00    +0.000 A 
ATOM     22  C   UNL     1       0.561   9.342  20.569  0.00  0.00    +0.000 A 
ENDBRANCH  14  20
ENDBRANCH  13  16
ENDBRANCH   1  13
TORSDOF 4
ENDMDL
MODEL 9
REMARK VINA RESULT:      -7.4      0.822      1.364
REMARK  Name = 
REMARK  4 active torsions:
REMARK  status: ('A' for Active; 'I' for Inactive)
REMARK    1  A    between atoms: C_4  and  C_5
REMARK    2  A    between atoms: C_7  and  C_8
REMARK    3  A    between atoms: C_8  and  N_9
REMARK    4  A    between atoms: N_12  and  C_13
REMARK                            x       y       z     vdW  Elec       q    Type
REMARK                         _______ _______ _______ _____ _____    ______ ____
ROOT
ATOM      1  N   UNL     1       6.632   6.151  17.394  0.00  0.00    +0.000 NA
ATOM      2  C   UNL     1       6.441   4.685  17.438  0.00  0.00    +0.000 C 
ATOM      3  C   UNL     1       5.369   4.169  18.427  0.00  0.00    +0.000 C 
ATOM      4  N   UNL     1       4.086   4.868  18.237  0.00  0.00    +0.000 N 
ATOM      5  C   UNL     1       4.177   6.339  18.127  0.00  0.00    +0.000 C 
ATOM      6  C   UNL     1       5.298   6.753  17.138  0.00  0.00    +0.000 C 
ENDROOT
BRANCH   4   7
ATOM      7  C   UNL     1       2.935   4.345  18.832  0.00  0.00    +0.000 A 
ATOM      8  C   UNL     1       2.467   4.744  20.095  0.00  0.00    +0.000 A 
ATOM      9  C   UNL     1       1.365   4.125  20.702  0.00  0.00    +0.000 A 
ATOM     10  C   UNL     1       0.705   3.085  20.058  0.00  0.00    +0.000 A 
ATOM     11  C   UNL     1       1.135   2.679  18.801  0.00  0.00    +0.000 A 
ATOM     12  C   UNL     1       2.231   3.308  18.200  0.00  0.00    +0.000 A 
ENDBRANCH   4   7
BRANCH   1  13
ATOM     13  C   UNL     1       7.215   6.707  18.620  0.00  0.00    +0.000 C 
BRANCH  13  16
ATOM     14  C   UNL     1       8.080   9.183  18.452  0.00  0.00    +0.000 C 
ATOM     15  C   UNL     1       8.229   8.523  17.103  0.00  0.00    +0.000 C 
ATOM     16  C   UNL     1       8.326   7.687  18.354  0.00  0.00    +0.000 C 
BRANCH  14  20
ATOM     17  C   UNL     1      10.922  12.213  19.710  0.00  0.00    +0.000 A 
ATOM     18  C   UNL     1      10.819  11.858  18.369  0.00  0.00    +0.000 A 
ATOM     19  C   UNL     1       9.933  10.848  17.980  0.00  0.00    +0.000 A 
ATOM     20  C   UNL     1       9.131  10.167  18.913  0.00  0.00    +0.000 A 
ATOM     21  C   UNL     1       9.284  10.521  20.258  0.00  0.00    +0.000 A 
ATOM     22  C   UNL     1      10.163  11.536  20.661  0.00  0.00    +0.000 A 
ENDBRANCH  14  20
ENDBRANCH  13  16
ENDBRANCH   1  13
TORSDOF 4
ENDMDL
