MODEL 1
REMARK VINA RESULT:      -8.4      0.000      0.000
REMARK  Name = 
REMARK  5 active torsions:
REMARK  status: ('A' for Active; 'I' for Inactive)
REMARK    1  A    between atoms: C_1  and  C_2
REMARK    2  A    between atoms: C_3  and  C_4
REMARK    3  A    between atoms: C_4  and  C_5
REMARK    4  A    between atoms: C_5  and  N_6
REMARK    5  A    between atoms: N_20  and  C_21
REMARK                            x       y       z     vdW  Elec       q    Type
REMARK                         _______ _______ _______ _____ _____    ______ ____
ROOT
ATOM      1  N   UNL     1       2.036   8.479  19.344  0.00  0.00    +0.000 NA
ATOM      2  C   UNL     1       1.208   8.738  20.529  0.00  0.00    +0.000 C 
ATOM      3  C   UNL     1      -0.195   9.247  20.194  0.00  0.00    +0.000 C 
ATOM      4  C   UNL     1      -0.193  10.435  19.209  0.00  0.00    +0.000 C 
ATOM      5  C   UNL     1       0.837  10.264  18.077  0.00  0.00    +0.000 C 
ATOM      6  C   UNL     1       2.170   9.714  18.565  0.00  0.00    +0.000 C 
ATOM      7  C   UNL     1      -0.068  11.791  19.919  0.00  0.00    +0.000 C 
ATOM      8  C   UNL     1      -1.503  12.216  20.182  0.00  0.00    +0.000 C 
ATOM      9  N   UNL     1      -2.282  11.586  19.138  0.00  0.00    +0.000 N 
ATOM     10  C   UNL     1      -3.606  11.933  18.899  0.00  0.00    +0.000 A 
ATOM     11  C   UNL     1      -4.233  11.372  17.686  0.00  0.00    +0.000 A 
ATOM     12  C   UNL     1      -5.540  11.565  17.519  0.00  0.00    +0.000 A 
ATOM     13  C   UNL     1      -6.311  12.358  18.489  0.00  0.00    +0.000 A 
ATOM     14  O   UNL     1      -7.522  12.469  18.328  0.00  0.00    +0.000 OA
ATOM     15  N   UNL     1      -5.570  12.958  19.501  0.00  0.00    +0.000 N 
ATOM     16  C   UNL     1      -6.241  13.805  20.468  0.00  0.00    +0.000 C 
ATOM     17  N   UNL     1      -4.224  12.719  19.728  0.00  0.00    +0.000 NA
ATOM     18  C   UNL     1      -1.574  10.510  18.581  0.00  0.00    +0.000 C 
ATOM     19  O   UNL     1      -1.985   9.683  17.779  0.00  0.00    +0.000 OA
ENDROOT
BRANCH   1  20
ATOM     20  C   UNL     1       1.583   7.285  18.580  0.00  0.00    +0.000 C 
BRANCH  20  21
ATOM     21  C   UNL     1       2.575   6.111  18.704  0.00  0.00    +0.000 C 
BRANCH  21  24
ATOM     22  C   UNL     1       2.983   3.484  17.375  0.00  0.00    +0.000 C 
ATOM     23  C   UNL     1       3.902   4.654  17.127  0.00  0.00    +0.000 A 
ATOM     24  C   UNL     1       3.731   5.929  17.737  0.00  0.00    +0.000 A 
ATOM     25  C   UNL     1       4.656   6.961  17.454  0.00  0.00    +0.000 A 
ATOM     26  C   UNL     1       5.735   6.746  16.587  0.00  0.00    +0.000 A 
ATOM     27  C   UNL     1       5.871   5.496  16.017  0.00  0.00    +0.000 A 
ATOM     28  C   UNL     1       4.987   4.470  16.273  0.00  0.00    +0.000 A 
ATOM     29  C   UNL     1       5.418   3.266  15.532  0.00  0.00    +0.000 C 
ATOM     30  O   UNL     1       6.601   3.703  14.831  0.00  0.00    +0.000 OA
ATOM     31  C   UNL     1       6.898   5.011  15.101  0.00  0.00    +0.000 C 
ATOM     32  O   UNL     1       7.836   5.644  14.659  0.00  0.00    +0.000 OA
ENDBRANCH  21  24
ENDBRANCH  20  21
ENDBRANCH   1  20
TORSDOF 3
ENDMDL
MODEL 2
REMARK VINA RESULT:      -8.4      3.146     11.053
REMARK  Name = 
REMARK  5 active torsions:
REMARK  status: ('A' for Active; 'I' for Inactive)
REMARK    1  A    between atoms: C_1  and  C_2
REMARK    2  A    between atoms: C_3  and  C_4
REMARK    3  A    between atoms: C_4  and  C_5
REMARK    4  A    between atoms: C_5  and  N_6
REMARK    5  A    between atoms: N_20  and  C_21
REMARK                            x       y       z     vdW  Elec       q    Type
REMARK                         _______ _______ _______ _____ _____    ______ ____
ROOT
ATOM      1  N   UNL     1      -0.311  12.618  19.551  0.00  0.00    +0.000 NA
ATOM      2  C   UNL     1      -0.673  11.704  18.461  0.00  0.00    +0.000 C 
ATOM      3  C   UNL     1      -0.274  10.252  18.723  0.00  0.00    +0.000 C 
ATOM      4  C   UNL     1       1.200  10.093  19.154  0.00  0.00    +0.000 C 
ATOM      5  C   UNL     1       1.649  11.188  20.139  0.00  0.00    +0.000 C 
ATOM      6  C   UNL     1       1.140  12.572  19.761  0.00  0.00    +0.000 C 
ATOM      7  C   UNL     1       2.153   9.949  17.957  0.00  0.00    +0.000 C 
ATOM      8  C   UNL     1       2.229   8.451  17.710  0.00  0.00    +0.000 C 
ATOM      9  N   UNL     1       1.976   7.842  18.999  0.00  0.00    +0.000 N 
ATOM     10  C   UNL     1       2.202   6.490  19.227  0.00  0.00    +0.000 A 
ATOM     11  C   UNL     1       2.101   6.026  20.625  0.00  0.00    +0.000 A 
ATOM     12  C   UNL     1       2.161   4.714  20.848  0.00  0.00    +0.000 A 
ATOM     13  C   UNL     1       2.374   3.774  19.736  0.00  0.00    +0.000 A 
ATOM     14  O   UNL     1       2.371   2.571  19.974  0.00  0.00    +0.000 OA
ATOM     15  N   UNL     1       2.608   4.353  18.494  0.00  0.00    +0.000 N 
ATOM     16  C   UNL     1       2.886   3.502  17.354  0.00  0.00    +0.000 C 
ATOM     17  N   UNL     1       2.489   5.708  18.231  0.00  0.00    +0.000 NA
ATOM     18  C   UNL     1       1.330   8.750  19.851  0.00  0.00    +0.000 C 
ATOM     19  O   UNL     1       0.852   8.525  20.955  0.00  0.00    +0.000 OA
ENDROOT
BRANCH   1  20
ATOM     20  C   UNL     1      -1.140  12.414  20.769  0.00  0.00    +0.000 C 
BRANCH  20  21
ATOM     21  C   UNL     1      -2.126  13.577  20.997  0.00  0.00    +0.000 C 
BRANCH  21  24
ATOM     22  C   UNL     1      -4.492  12.422  19.617  0.00  0.00    +0.000 C 
ATOM     23  C   UNL     1      -4.541  12.847  21.063  0.00  0.00    +0.000 A 
ATOM     24  C   UNL     1      -3.426  13.393  21.760  0.00  0.00    +0.000 A 
ATOM     25  C   UNL     1      -3.574  13.778  23.113  0.00  0.00    +0.000 A 
ATOM     26  C   UNL     1      -4.800  13.631  23.774  0.00  0.00    +0.000 A 
ATOM     27  C   UNL     1      -5.860  13.101  23.067  0.00  0.00    +0.000 A 
ATOM     28  C   UNL     1      -5.748  12.717  21.748  0.00  0.00    +0.000 A 
ATOM     29  C   UNL     1      -7.055  12.213  21.279  0.00  0.00    +0.000 C 
ATOM     30  O   UNL     1      -7.902  12.329  22.441  0.00  0.00    +0.000 OA
ATOM     31  C   UNL     1      -7.229  12.855  23.510  0.00  0.00    +0.000 C 
ATOM     32  O   UNL     1      -7.686  13.073  24.615  0.00  0.00    +0.000 OA
ENDBRANCH  21  24
ENDBRANCH  20  21
ENDBRANCH   1  20
TORSDOF 3
ENDMDL
MODEL 3
REMARK VINA RESULT:      -8.4      3.653      4.886
REMARK  Name = 
REMARK  5 active torsions:
REMARK  status: ('A' for Active; 'I' for Inactive)
REMARK    1  A    between atoms: C_1  and  C_2
REMARK    2  A    between atoms: C_3  and  C_4
REMARK    3  A    between atoms: C_4  and  C_5
REMARK    4  A    between atoms: C_5  and  N_6
REMARK    5  A    between atoms: N_20  and  C_21
REMARK                            x       y       z     vdW  Elec       q    Type
REMARK                         _______ _______ _______ _____ _____    ______ ____
ROOT
ATOM      1  N   UNL     1       0.107   9.139  20.783  0.00  0.00    +0.000 NA
ATOM      2  C   UNL     1      -0.812   9.705  19.788  0.00  0.00    +0.000 C 
ATOM      3  C   UNL     1      -0.373  11.070  19.258  0.00  0.00    +0.000 C 
ATOM      4  C   UNL     1      -0.030  12.077  20.378  0.00  0.00    +0.000 C 
ATOM      5  C   UNL     1       0.753  11.430  21.536  0.00  0.00    +0.000 C 
ATOM      6  C   UNL     1       0.217  10.058  21.921  0.00  0.00    +0.000 C 
ATOM      7  C   UNL     1      -1.258  12.862  20.863  0.00  0.00    +0.000 C 
ATOM      8  C   UNL     1      -1.292  14.098  19.979  0.00  0.00    +0.000 C 
ATOM      9  N   UNL     1       0.085  14.329  19.600  0.00  0.00    +0.000 N 
ATOM     10  C   UNL     1       0.489  15.511  18.990  0.00  0.00    +0.000 A 
ATOM     11  C   UNL     1       1.944  15.715  18.832  0.00  0.00    +0.000 A 
ATOM     12  C   UNL     1       2.348  16.763  18.117  0.00  0.00    +0.000 A 
ATOM     13  C   UNL     1       1.370  17.708  17.553  0.00  0.00    +0.000 A 
ATOM     14  O   UNL     1       1.779  18.631  16.857  0.00  0.00    +0.000 OA
ATOM     15  N   UNL     1       0.044  17.486  17.906  0.00  0.00    +0.000 N 
ATOM     16  C   UNL     1      -0.978  18.402  17.443  0.00  0.00    +0.000 C 
ATOM     17  N   UNL     1      -0.402  16.369  18.596  0.00  0.00    +0.000 NA
ATOM     18  C   UNL     1       0.843  13.159  19.768  0.00  0.00    +0.000 C 
ATOM     19  O   UNL     1       1.998  12.963  19.418  0.00  0.00    +0.000 OA
ENDROOT
BRANCH   1  20
ATOM     20  C   UNL     1       1.398   8.701  20.187  0.00  0.00    +0.000 C 
BRANCH  20  21
ATOM     21  C   UNL     1       1.682   7.211  20.461  0.00  0.00    +0.000 C 
BRANCH  21  24
ATOM     22  C   UNL     1       1.451   4.253  20.635  0.00  0.00    +0.000 C 
ATOM     23  C   UNL     1       2.301   4.925  19.587  0.00  0.00    +0.000 A 
ATOM     24  C   UNL     1       2.427   6.338  19.466  0.00  0.00    +0.000 A 
ATOM     25  C   UNL     1       3.263   6.875  18.459  0.00  0.00    +0.000 A 
ATOM     26  C   UNL     1       3.966   6.039  17.584  0.00  0.00    +0.000 A 
ATOM     27  C   UNL     1       3.823   4.675  17.732  0.00  0.00    +0.000 A 
ATOM     28  C   UNL     1       3.017   4.121  18.703  0.00  0.00    +0.000 A 
ATOM     29  C   UNL     1       3.095   2.648  18.611  0.00  0.00    +0.000 C 
ATOM     30  O   UNL     1       3.993   2.422  17.505  0.00  0.00    +0.000 OA
ATOM     31  C   UNL     1       4.445   3.597  16.969  0.00  0.00    +0.000 C 
ATOM     32  O   UNL     1       5.213   3.716  16.036  0.00  0.00    +0.000 OA
ENDBRANCH  21  24
ENDBRANCH  20  21
ENDBRANCH   1  20
TORSDOF 3
ENDMDL
MODEL 4
REMARK VINA RESULT:      -8.4      3.601      5.179
REMARK  Name = 
REMARK  5 active torsions:
REMARK  status: ('A' for Active; 'I' for Inactive)
REMARK    1  A    between atoms: C_1  and  C_2
REMARK    2  A    between atoms: C_3  and  C_4
REMARK    3  A    between atoms: C_4  and  C_5
REMARK    4  A    between atoms: C_5  and  N_6
REMARK    5  A    between atoms: N_20  and  C_21
REMARK                            x       y       z     vdW  Elec       q    Type
REMARK                         _______ _______ _______ _____ _____    ______ ____
ROOT
ATOM      1  N   UNL     1      -0.154   8.737  21.581  0.00  0.00    +0.000 NA
ATOM      2  C   UNL     1      -0.669   9.205  20.289  0.00  0.00    +0.000 C 
ATOM      3  C   UNL     1      -0.207  10.615  19.920  0.00  0.00    +0.000 C 
ATOM      4  C   UNL     1      -0.432  11.645  21.048  0.00  0.00    +0.000 C 
ATOM      5  C   UNL     1      -0.095  11.080  22.441  0.00  0.00    +0.000 C 
ATOM      6  C   UNL     1      -0.590   9.655  22.639  0.00  0.00    +0.000 C 
ATOM      7  C   UNL     1      -1.828  12.284  20.993  0.00  0.00    +0.000 C 
ATOM      8  C   UNL     1      -1.648  13.516  20.121  0.00  0.00    +0.000 C 
ATOM      9  N   UNL     1      -0.264  13.902  20.293  0.00  0.00    +0.000 N 
ATOM     10  C   UNL     1       0.218  15.126  19.844  0.00  0.00    +0.000 A 
ATOM     11  C   UNL     1       1.589  15.491  20.252  0.00  0.00    +0.000 A 
ATOM     12  C   UNL     1       2.125  16.583  19.710  0.00  0.00    +0.000 A 
ATOM     13  C   UNL     1       1.349  17.418  18.780  0.00  0.00    +0.000 A 
ATOM     14  O   UNL     1       1.895  18.386  18.261  0.00  0.00    +0.000 OA
ATOM     15  N   UNL     1       0.021  17.047  18.602  0.00  0.00    +0.000 N 
ATOM     16  C   UNL     1      -0.833  17.847  17.747  0.00  0.00    +0.000 C 
ATOM     17  N   UNL     1      -0.537  15.882  19.106  0.00  0.00    +0.000 NA
ATOM     18  C   UNL     1       0.489  12.822  20.782  0.00  0.00    +0.000 C 
ATOM     19  O   UNL     1       1.703  12.759  20.912  0.00  0.00    +0.000 OA
ENDROOT
BRANCH   1  20
ATOM     20  C   UNL     1       1.306   8.450  21.545  0.00  0.00    +0.000 C 
BRANCH  20  21
ATOM     21  C   UNL     1       1.783   8.065  20.130  0.00  0.00    +0.000 C 
BRANCH  21  24
ATOM     22  C   UNL     1       3.401   7.582  17.684  0.00  0.00    +0.000 C 
ATOM     23  C   UNL     1       2.987   6.459  18.600  0.00  0.00    +0.000 A 
ATOM     24  C   UNL     1       2.222   6.654  19.785  0.00  0.00    +0.000 A 
ATOM     25  C   UNL     1       1.867   5.533  20.573  0.00  0.00    +0.000 A 
ATOM     26  C   UNL     1       2.255   4.239  20.202  0.00  0.00    +0.000 A 
ATOM     27  C   UNL     1       2.993   4.088  19.046  0.00  0.00    +0.000 A 
ATOM     28  C   UNL     1       3.354   5.159  18.258  0.00  0.00    +0.000 A 
ATOM     29  C   UNL     1       4.115   4.665  17.092  0.00  0.00    +0.000 C 
ATOM     30  O   UNL     1       4.166   3.238  17.298  0.00  0.00    +0.000 OA
ATOM     31  C   UNL     1       3.508   2.865  18.438  0.00  0.00    +0.000 C 
ATOM     32  O   UNL     1       3.381   1.734  18.861  0.00  0.00    +0.000 OA
ENDBRANCH  21  24
ENDBRANCH  20  21
ENDBRANCH   1  20
TORSDOF 3
ENDMDL
MODEL 5
REMARK VINA RESULT:      -8.3      2.545      3.513
REMARK  Name = 
REMARK  5 active torsions:
REMARK  status: ('A' for Active; 'I' for Inactive)
REMARK    1  A    between atoms: C_1  and  C_2
REMARK    2  A    between atoms: C_3  and  C_4
REMARK    3  A    between atoms: C_4  and  C_5
REMARK    4  A    between atoms: C_5  and  N_6
REMARK    5  A    between atoms: N_20  and  C_21
REMARK                            x       y       z     vdW  Elec       q    Type
REMARK                         _______ _______ _______ _____ _____    ______ ____
ROOT
ATOM      1  N   UNL     1       2.023  10.429  18.926  0.00  0.00    +0.000 NA
ATOM      2  C   UNL     1       1.521  10.291  20.298  0.00  0.00    +0.000 C 
ATOM      3  C   UNL     1       0.023  10.569  20.432  0.00  0.00    +0.000 C 
ATOM      4  C   UNL     1      -0.410  11.900  19.779  0.00  0.00    +0.000 C 
ATOM      5  C   UNL     1       0.287  12.152  18.429  0.00  0.00    +0.000 C 
ATOM      6  C   UNL     1       1.765  11.791  18.448  0.00  0.00    +0.000 C 
ATOM      7  C   UNL     1      -0.287  13.095  20.738  0.00  0.00    +0.000 C 
ATOM      8  C   UNL     1      -1.642  13.172  21.423  0.00  0.00    +0.000 C 
ATOM      9  N   UNL     1      -2.579  12.612  20.473  0.00  0.00    +0.000 N 
ATOM     10  C   UNL     1      -3.953  12.732  20.641  0.00  0.00    +0.000 A 
ATOM     11  C   UNL     1      -4.802  12.299  19.512  0.00  0.00    +0.000 A 
ATOM     12  C   UNL     1      -6.118  12.261  19.707  0.00  0.00    +0.000 A 
ATOM     13  C   UNL     1      -6.700  12.689  20.990  0.00  0.00    +0.000 A 
ATOM     14  O   UNL     1      -7.912  12.589  21.148  0.00  0.00    +0.000 OA
ATOM     15  N   UNL     1      -5.803  13.219  21.910  0.00  0.00    +0.000 N 
ATOM     16  C   UNL     1      -6.298  13.719  23.178  0.00  0.00    +0.000 C 
ATOM     17  N   UNL     1      -4.426  13.210  21.751  0.00  0.00    +0.000 NA
ATOM     18  C   UNL     1      -1.906  11.821  19.529  0.00  0.00    +0.000 C 
ATOM     19  O   UNL     1      -2.399  11.097  18.676  0.00  0.00    +0.000 OA
ENDROOT
BRANCH   1  20
ATOM     20  C   UNL     1       1.552   9.337  18.032  0.00  0.00    +0.000 C 
BRANCH  20  21
ATOM     21  C   UNL     1       2.595   8.211  17.897  0.00  0.00    +0.000 C 
BRANCH  21  24
ATOM     22  C   UNL     1       4.242   5.840  17.187  0.00  0.00    +0.000 C 
ATOM     23  C   UNL     1       3.373   5.867  18.419  0.00  0.00    +0.000 A 
ATOM     24  C   UNL     1       2.580   6.988  18.796  0.00  0.00    +0.000 A 
ATOM     25  C   UNL     1       1.783   6.911  19.963  0.00  0.00    +0.000 A 
ATOM     26  C   UNL     1       1.763   5.751  20.747  0.00  0.00    +0.000 A 
ATOM     27  C   UNL     1       2.542   4.683  20.350  0.00  0.00    +0.000 A 
ATOM     28  C   UNL     1       3.328   4.727  19.219  0.00  0.00    +0.000 A 
ATOM     29  C   UNL     1       4.016   3.429  19.060  0.00  0.00    +0.000 C 
ATOM     30  O   UNL     1       3.567   2.663  20.197  0.00  0.00    +0.000 OA
ATOM     31  C   UNL     1       2.692   3.373  20.973  0.00  0.00    +0.000 C 
ATOM     32  O   UNL     1       2.148   2.984  21.988  0.00  0.00    +0.000 OA
ENDBRANCH  21  24
ENDBRANCH  20  21
ENDBRANCH   1  20
TORSDOF 3
ENDMDL
MODEL 6
REMARK VINA RESULT:      -8.1      1.944      2.379
REMARK  Name = 
REMARK  5 active torsions:
REMARK  status: ('A' for Active; 'I' for Inactive)
REMARK    1  A    between atoms: C_1  and  C_2
REMARK    2  A    between atoms: C_3  and  C_4
REMARK    3  A    between atoms: C_4  and  C_5
REMARK    4  A    between atoms: C_5  and  N_6
REMARK    5  A    between atoms: N_20  and  C_21
REMARK                            x       y       z     vdW  Elec       q    Type
REMARK                         _______ _______ _______ _____ _____    ______ ____
ROOT
ATOM      1  N   UNL     1       1.810   9.987  19.016  0.00  0.00    +0.000 NA
ATOM      2  C   UNL     1       1.198   9.576  20.285  0.00  0.00    +0.000 C 
ATOM      3  C   UNL     1      -0.259  10.015  20.431  0.00  0.00    +0.000 C 
ATOM      4  C   UNL     1      -0.476  11.515  20.135  0.00  0.00    +0.000 C 
ATOM      5  C   UNL     1       0.342  12.003  18.924  0.00  0.00    +0.000 C 
ATOM      6  C   UNL     1       1.759  11.448  18.903  0.00  0.00    +0.000 C 
ATOM      7  C   UNL     1      -0.275  12.397  21.376  0.00  0.00    +0.000 C 
ATOM      8  C   UNL     1      -1.655  12.485  22.007  0.00  0.00    +0.000 C 
ATOM      9  N   UNL     1      -2.584  12.321  20.910  0.00  0.00    +0.000 N 
ATOM     10  C   UNL     1      -3.941  12.583  21.052  0.00  0.00    +0.000 A 
ATOM     11  C   UNL     1      -4.754  12.574  19.819  0.00  0.00    +0.000 A 
ATOM     12  C   UNL     1      -6.075  12.671  19.948  0.00  0.00    +0.000 A 
ATOM     13  C   UNL     1      -6.689  12.834  21.276  0.00  0.00    +0.000 A 
ATOM     14  O   UNL     1      -7.913  12.867  21.358  0.00  0.00    +0.000 OA
ATOM     15  N   UNL     1      -5.802  12.983  22.336  0.00  0.00    +0.000 N 
ATOM     16  C   UNL     1      -6.320  13.207  23.671  0.00  0.00    +0.000 C 
ATOM     17  N   UNL     1      -4.429  12.824  22.231  0.00  0.00    +0.000 NA
ATOM     18  C   UNL     1      -1.948  11.710  19.818  0.00  0.00    +0.000 C 
ATOM     19  O   UNL     1      -2.466  11.303  18.786  0.00  0.00    +0.000 OA
ENDROOT
BRANCH   1  20
ATOM     20  C   UNL     1       1.272   9.235  17.850  0.00  0.00    +0.000 C 
BRANCH  20  21
ATOM     21  C   UNL     1       1.462   7.713  18.008  0.00  0.00    +0.000 C 
BRANCH  21  24
ATOM     22  C   UNL     1       2.105   5.388  19.743  0.00  0.00    +0.000 C 
ATOM     23  C   UNL     1       3.105   5.955  18.768  0.00  0.00    +0.000 A 
ATOM     24  C   UNL     1       2.829   7.060  17.913  0.00  0.00    +0.000 A 
ATOM     25  C   UNL     1       3.839   7.531  17.043  0.00  0.00    +0.000 A 
ATOM     26  C   UNL     1       5.103   6.929  17.011  0.00  0.00    +0.000 A 
ATOM     27  C   UNL     1       5.336   5.862  17.855  0.00  0.00    +0.000 A 
ATOM     28  C   UNL     1       4.373   5.380  18.714  0.00  0.00    +0.000 A 
ATOM     29  C   UNL     1       4.938   4.255  19.490  0.00  0.00    +0.000 C 
ATOM     30  O   UNL     1       6.285   4.137  18.985  0.00  0.00    +0.000 OA
ATOM     31  C   UNL     1       6.552   5.074  18.025  0.00  0.00    +0.000 C 
ATOM     32  O   UNL     1       7.601   5.217  17.429  0.00  0.00    +0.000 OA
ENDBRANCH  21  24
ENDBRANCH  20  21
ENDBRANCH   1  20
TORSDOF 3
ENDMDL
MODEL 7
REMARK VINA RESULT:      -8.0      3.972      5.208
REMARK  Name = 
REMARK  5 active torsions:
REMARK  status: ('A' for Active; 'I' for Inactive)
REMARK    1  A    between atoms: C_1  and  C_2
REMARK    2  A    between atoms: C_3  and  C_4
REMARK    3  A    between atoms: C_4  and  C_5
REMARK    4  A    between atoms: C_5  and  N_6
REMARK    5  A    between atoms: N_20  and  C_21
REMARK                            x       y       z     vdW  Elec       q    Type
REMARK                         _______ _______ _______ _____ _____    ______ ____
ROOT
ATOM      1  N   UNL     1       1.227   9.882  17.964  0.00  0.00    +0.000 NA
ATOM      2  C   UNL     1       1.904  11.183  18.029  0.00  0.00    +0.000 C 
ATOM      3  C   UNL     1       1.482  12.032  19.230  0.00  0.00    +0.000 C 
ATOM      4  C   UNL     1      -0.049  12.159  19.378  0.00  0.00    +0.000 C 
ATOM      5  C   UNL     1      -0.784  10.835  19.095  0.00  0.00    +0.000 C 
ATOM      6  C   UNL     1      -0.223  10.091  17.891  0.00  0.00    +0.000 C 
ATOM      7  C   UNL     1      -0.624  13.336  18.575  0.00  0.00    +0.000 C 
ATOM      8  C   UNL     1      -0.592  14.508  19.543  0.00  0.00    +0.000 C 
ATOM      9  N   UNL     1      -0.696  13.915  20.858  0.00  0.00    +0.000 N 
ATOM     10  C   UNL     1      -0.944  14.682  21.991  0.00  0.00    +0.000 A 
ATOM     11  C   UNL     1      -1.228  13.950  23.241  0.00  0.00    +0.000 A 
ATOM     12  C   UNL     1      -1.317  14.657  24.366  0.00  0.00    +0.000 A 
ATOM     13  C   UNL     1      -1.187  16.122  24.342  0.00  0.00    +0.000 A 
ATOM     14  O   UNL     1      -1.222  16.733  25.406  0.00  0.00    +0.000 OA
ATOM     15  N   UNL     1      -1.076  16.698  23.082  0.00  0.00    +0.000 N 
ATOM     16  C   UNL     1      -1.002  18.140  22.962  0.00  0.00    +0.000 C 
ATOM     17  N   UNL     1      -0.920  15.977  21.908  0.00  0.00    +0.000 NA
ATOM     18  C   UNL     1      -0.337  12.559  20.815  0.00  0.00    +0.000 C 
ATOM     19  O   UNL     1      -0.183  11.798  21.760  0.00  0.00    +0.000 OA
ENDROOT
BRANCH   1  20
ATOM     20  C   UNL     1       1.687   8.944  19.024  0.00  0.00    +0.000 C 
BRANCH  20  21
ATOM     21  C   UNL     1       2.408   7.716  18.434  0.00  0.00    +0.000 C 
BRANCH  21  24
ATOM     22  C   UNL     1       4.304   5.640  17.472  0.00  0.00    +0.000 C 
ATOM     23  C   UNL     1       3.481   5.450  18.721  0.00  0.00    +0.000 A 
ATOM     24  C   UNL     1       2.571   6.426  19.217  0.00  0.00    +0.000 A 
ATOM     25  C   UNL     1       1.829   6.149  20.389  0.00  0.00    +0.000 A 
ATOM     26  C   UNL     1       1.975   4.931  21.064  0.00  0.00    +0.000 A 
ATOM     27  C   UNL     1       2.864   4.007  20.553  0.00  0.00    +0.000 A 
ATOM     28  C   UNL     1       3.601   4.247  19.413  0.00  0.00    +0.000 A 
ATOM     29  C   UNL     1       4.436   3.063  19.121  0.00  0.00    +0.000 C 
ATOM     30  O   UNL     1       4.120   2.150  20.192  0.00  0.00    +0.000 OA
ATOM     31  C   UNL     1       3.192   2.675  21.050  0.00  0.00    +0.000 C 
ATOM     32  O   UNL     1       2.734   2.133  22.036  0.00  0.00    +0.000 OA
ENDBRANCH  21  24
ENDBRANCH  20  21
ENDBRANCH   1  20
TORSDOF 3
ENDMDL
MODEL 8
REMARK VINA RESULT:      -7.9      2.747      3.387
REMARK  Name = 
REMARK  5 active torsions:
REMARK  status: ('A' for Active; 'I' for Inactive)
REMARK    1  A    between atoms: C_1  and  C_2
REMARK    2  A    between atoms: C_3  and  C_4
REMARK    3  A    between atoms: C_4  and  C_5
REMARK    4  A    between atoms: C_5  and  N_6
REMARK    5  A    between atoms: N_20  and  C_21
REMARK                            x       y       z     vdW  Elec       q    Type
REMARK                         _______ _______ _______ _____ _____    ______ ____
ROOT
ATOM      1  N   UNL     1       1.455   9.448  18.150  0.00  0.00    +0.000 NA
ATOM      2  C   UNL     1       1.910  10.816  18.421  0.00  0.00    +0.000 C 
ATOM      3  C   UNL     1       1.143  11.502  19.553  0.00  0.00    +0.000 C 
ATOM      4  C   UNL     1      -0.390  11.415  19.391  0.00  0.00    +0.000 C 
ATOM      5  C   UNL     1      -0.855  10.033  18.893  0.00  0.00    +0.000 C 
ATOM      6  C   UNL     1       0.033   9.470  17.793  0.00  0.00    +0.000 C 
ATOM      7  C   UNL     1      -0.961  12.567  18.550  0.00  0.00    +0.000 C 
ATOM      8  C   UNL     1      -1.289  13.651  19.564  0.00  0.00    +0.000 C 
ATOM      9  N   UNL     1      -1.562  12.945  20.797  0.00  0.00    +0.000 N 
ATOM     10  C   UNL     1      -2.135  13.578  21.894  0.00  0.00    +0.000 A 
ATOM     11  C   UNL     1      -2.549  12.716  23.019  0.00  0.00    +0.000 A 
ATOM     12  C   UNL     1      -2.958  13.312  24.137  0.00  0.00    +0.000 A 
ATOM     13  C   UNL     1      -3.039  14.779  24.218  0.00  0.00    +0.000 A 
ATOM     14  O   UNL     1      -3.370  15.292  25.283  0.00  0.00    +0.000 OA
ATOM     15  N   UNL     1      -2.769  15.464  23.039  0.00  0.00    +0.000 N 
ATOM     16  C   UNL     1      -2.883  16.908  23.014  0.00  0.00    +0.000 C 
ATOM     17  N   UNL     1      -2.284  14.868  21.886  0.00  0.00    +0.000 NA
ATOM     18  C   UNL     1      -1.008  11.655  20.756  0.00  0.00    +0.000 C 
ATOM     19  O   UNL     1      -0.934  10.847  21.672  0.00  0.00    +0.000 OA
ENDROOT
BRANCH   1  20
ATOM     20  C   UNL     1       1.829   8.495  19.230  0.00  0.00    +0.000 C 
BRANCH  20  21
ATOM     21  C   UNL     1       1.960   7.052  18.707  0.00  0.00    +0.000 C 
BRANCH  21  24
ATOM     22  C   UNL     1       2.305   4.164  18.093  0.00  0.00    +0.000 C 
ATOM     23  C   UNL     1       3.303   5.200  17.640  0.00  0.00    +0.000 A 
ATOM     24  C   UNL     1       3.164   6.592  17.906  0.00  0.00    +0.000 A 
ATOM     25  C   UNL     1       4.163   7.486  17.454  0.00  0.00    +0.000 A 
ATOM     26  C   UNL     1       5.283   7.022  16.752  0.00  0.00    +0.000 A 
ATOM     27  C   UNL     1       5.385   5.666  16.515  0.00  0.00    +0.000 A 
ATOM     28  C   UNL     1       4.429   4.770  16.943  0.00  0.00    +0.000 A 
ATOM     29  C   UNL     1       4.840   3.405  16.552  0.00  0.00    +0.000 C 
ATOM     30  O   UNL     1       6.089   3.609  15.860  0.00  0.00    +0.000 OA
ATOM     31  C   UNL     1       6.441   4.931  15.826  0.00  0.00    +0.000 C 
ATOM     32  O   UNL     1       7.440   5.398  15.318  0.00  0.00    +0.000 OA
ENDBRANCH  21  24
ENDBRANCH  20  21
ENDBRANCH   1  20
TORSDOF 3
ENDMDL
MODEL 9
REMARK VINA RESULT:      -7.9      3.422      4.850
REMARK  Name = 
REMARK  5 active torsions:
REMARK  status: ('A' for Active; 'I' for Inactive)
REMARK    1  A    between atoms: C_1  and  C_2
REMARK    2  A    between atoms: C_3  and  C_4
REMARK    3  A    between atoms: C_4  and  C_5
REMARK    4  A    between atoms: C_5  and  N_6
REMARK    5  A    between atoms: N_20  and  C_21
REMARK                            x       y       z     vdW  Elec       q    Type
REMARK                         _______ _______ _______ _____ _____    ______ ____
ROOT
ATOM      1  N   UNL     1       0.068   8.677  21.238  0.00  0.00    +0.000 NA
ATOM      2  C   UNL     1      -0.645   9.178  20.057  0.00  0.00    +0.000 C 
ATOM      3  C   UNL     1      -0.156  10.548  19.584  0.00  0.00    +0.000 C 
ATOM      4  C   UNL     1      -0.088  11.595  20.717  0.00  0.00    +0.000 C 
ATOM      5  C   UNL     1       0.462  11.010  22.031  0.00  0.00    +0.000 C 
ATOM      6  C   UNL     1      -0.092   9.628  22.343  0.00  0.00    +0.000 C 
ATOM      7  C   UNL     1      -1.417  12.340  20.913  0.00  0.00    +0.000 C 
ATOM      8  C   UNL     1      -1.313  13.551  20.001  0.00  0.00    +0.000 C 
ATOM      9  N   UNL     1       0.104  13.830  19.905  0.00  0.00    +0.000 N 
ATOM     10  C   UNL     1       0.582  15.013  19.353  0.00  0.00    +0.000 A 
ATOM     11  C   UNL     1       2.030  15.274  19.490  0.00  0.00    +0.000 A 
ATOM     12  C   UNL     1       2.534  16.320  18.839  0.00  0.00    +0.000 A 
ATOM     13  C   UNL     1       1.661  17.208  18.056  0.00  0.00    +0.000 A 
ATOM     14  O   UNL     1       2.171  18.130  17.428  0.00  0.00    +0.000 OA
ATOM     15  N   UNL     1       0.299  16.939  18.136  0.00  0.00    +0.000 N 
ATOM     16  C   UNL     1      -0.638  17.800  17.443  0.00  0.00    +0.000 C 
ATOM     17  N   UNL     1      -0.239  15.823  18.756  0.00  0.00    +0.000 NA
ATOM     18  C   UNL     1       0.852  12.698  20.263  0.00  0.00    +0.000 C 
ATOM     19  O   UNL     1       2.061  12.542  20.164  0.00  0.00    +0.000 OA
ENDROOT
BRANCH   1  20
ATOM     20  C   UNL     1       1.469   8.278  20.934  0.00  0.00    +0.000 C 
BRANCH  20  21
ATOM     21  C   UNL     1       1.538   6.924  20.202  0.00  0.00    +0.000 C 
BRANCH  21  24
ATOM     22  C   UNL     1       2.315   8.262  17.664  0.00  0.00    +0.000 C 
ATOM     23  C   UNL     1       3.119   7.128  18.245  0.00  0.00    +0.000 A 
ATOM     24  C   UNL     1       2.784   6.471  19.463  0.00  0.00    +0.000 A 
ATOM     25  C   UNL     1       3.592   5.403  19.920  0.00  0.00    +0.000 A 
ATOM     26  C   UNL     1       4.713   4.984  19.192  0.00  0.00    +0.000 A 
ATOM     27  C   UNL     1       5.006   5.642  18.014  0.00  0.00    +0.000 A 
ATOM     28  C   UNL     1       4.238   6.685  17.543  0.00  0.00    +0.000 A 
ATOM     29  C   UNL     1       4.801   7.156  16.260  0.00  0.00    +0.000 C 
ATOM     30  O   UNL     1       5.950   6.308  16.060  0.00  0.00    +0.000 OA
ATOM     31  C   UNL     1       6.095   5.400  17.073  0.00  0.00    +0.000 C 
ATOM     32  O   UNL     1       6.965   4.558  17.169  0.00  0.00    +0.000 OA
ENDBRANCH  21  24
ENDBRANCH  20  21
ENDBRANCH   1  20
TORSDOF 3
ENDMDL
