MODEL 1
REMARK VINA RESULT:      -8.8      0.000      0.000
REMARK  Name = 
REMARK  8 active torsions:
REMARK  status: ('A' for Active; 'I' for Inactive)
REMARK    1  A    between atoms: C_1  and  C_2
REMARK    2  A    between atoms: C_5  and  C_6
REMARK    3  A    between atoms: C_6  and  C_19
REMARK    4  A    between atoms: C_7  and  C_8
REMARK    5  A    between atoms: N_10  and  C_11
REMARK    6  A    between atoms: C_11  and  C_12
REMARK    7  A    between atoms: C_12  and  C_13
REMARK    8  A    between atoms: C_27  and  C_28
REMARK                            x       y       z     vdW  Elec       q    Type
REMARK                         _______ _______ _______ _____ _____    ______ ____
ROOT
ATOM      1  C   UNL     1       2.789   6.571  19.093  0.00  0.00    +0.000 C 
ATOM      2  C   UNL     1       4.101   6.731  18.814  0.00  0.00    +0.000 C 
ENDROOT
BRANCH   1   7
ATOM      3  C   UNL     1      -0.424  11.389  19.656  0.00  0.00    +0.000 C 
ATOM      4  C   UNL     1       0.393  10.129  19.542  0.00  0.00    +0.000 A 
ATOM      5  C   UNL     1       0.941   9.776  18.301  0.00  0.00    +0.000 A 
ATOM      6  C   UNL     1       1.720   8.623  18.164  0.00  0.00    +0.000 A 
ATOM      7  C   UNL     1       1.970   7.797  19.265  0.00  0.00    +0.000 A 
ATOM      8  C   UNL     1       1.410   8.135  20.503  0.00  0.00    +0.000 A 
ATOM      9  C   UNL     1       0.618   9.291  20.653  0.00  0.00    +0.000 A 
ATOM     10  C   UNL     1       0.016   9.609  21.996  0.00  0.00    +0.000 C 
ENDBRANCH   1   7
BRANCH   1  11
ATOM     11  C   UNL     1       2.202   5.217  19.195  0.00  0.00    +0.000 A 
ATOM     12  C   UNL     1       1.741   4.545  18.061  0.00  0.00    +0.000 A 
ATOM     13  C   UNL     1       1.226   3.268  18.216  0.00  0.00    +0.000 A 
ATOM     14  N   UNL     1       1.130   2.633  19.404  0.00  0.00    +0.000 NA
ATOM     15  C   UNL     1       1.589   3.309  20.475  0.00  0.00    +0.000 A 
ATOM     16 CL   UNL     1       1.475   2.456  21.960  0.00  0.00    +0.000 Cl
ATOM     17  C   UNL     1       2.124   4.583  20.435  0.00  0.00    +0.000 A 
ENDBRANCH   1  11
BRANCH   2  18
ATOM     18  C   UNL     1       4.984   5.605  18.415  0.00  0.00    +0.000 C 
ATOM     19  O   UNL     1       5.584   4.940  19.252  0.00  0.00    +0.000 OA
ATOM     20  N   UNL     1       5.035   5.362  17.060  0.00  0.00    +0.000 N 
ATOM     21  H   UNL     1       4.543   5.967  16.415  0.00  0.00    +0.000 HD
BRANCH  20  22
ATOM     22  C   UNL     1       5.884   4.289  16.567  0.00  0.00    +0.000 C 
BRANCH  22  23
ATOM     23  C   UNL     1       7.110   4.755  15.778  0.00  0.00    +0.000 C 
BRANCH  23  24
ATOM     24  C   UNL     1       6.927   4.525  14.292  0.00  0.00    +0.000 A 
ATOM     25  C   UNL     1       5.971   3.612  13.826  0.00  0.00    +0.000 A 
ATOM     26  C   UNL     1       5.839   3.357  12.457  0.00  0.00    +0.000 A 
ATOM     27  C   UNL     1       6.662   4.009  11.544  0.00  0.00    +0.000 A 
ATOM     28  C   UNL     1       7.615   4.919  11.993  0.00  0.00    +0.000 A 
ATOM     29  C   UNL     1       7.748   5.177  13.361  0.00  0.00    +0.000 A 
ENDBRANCH  23  24
ENDBRANCH  22  23
ENDBRANCH  20  22
ENDBRANCH   2  18
TORSDOF 6
ENDMDL
MODEL 2
REMARK VINA RESULT:      -8.7      0.918      1.274
REMARK  Name = 
REMARK  8 active torsions:
REMARK  status: ('A' for Active; 'I' for Inactive)
REMARK    1  A    between atoms: C_1  and  C_2
REMARK    2  A    between atoms: C_5  and  C_6
REMARK    3  A    between atoms: C_6  and  C_19
REMARK    4  A    between atoms: C_7  and  C_8
REMARK    5  A    between atoms: N_10  and  C_11
REMARK    6  A    between atoms: C_11  and  C_12
REMARK    7  A    between atoms: C_12  and  C_13
REMARK    8  A    between atoms: C_27  and  C_28
REMARK                            x       y       z     vdW  Elec       q    Type
REMARK                         _______ _______ _______ _____ _____    ______ ____
ROOT
ATOM      1  C   UNL     1       2.735   6.561  19.444  0.00  0.00    +0.000 C 
ATOM      2  C   UNL     1       3.915   6.717  18.806  0.00  0.00    +0.000 C 
ENDROOT
BRANCH   1   7
ATOM      3  C   UNL     1      -0.570  11.310  20.064  0.00  0.00    +0.000 C 
ATOM      4  C   UNL     1       0.269  10.065  19.934  0.00  0.00    +0.000 A 
ATOM      5  C   UNL     1       0.890   9.781  18.710  0.00  0.00    +0.000 A 
ATOM      6  C   UNL     1       1.691   8.645  18.560  0.00  0.00    +0.000 A 
ATOM      7  C   UNL     1       1.890   7.767  19.631  0.00  0.00    +0.000 A 
ATOM      8  C   UNL     1       1.259   8.038  20.851  0.00  0.00    +0.000 A 
ATOM      9  C   UNL     1       0.443   9.176  21.014  0.00  0.00    +0.000 A 
ATOM     10  C   UNL     1      -0.236   9.420  22.335  0.00  0.00    +0.000 C 
ENDBRANCH   1   7
BRANCH   1  11
ATOM     11  C   UNL     1       2.304   5.225  19.913  0.00  0.00    +0.000 A 
ATOM     12  C   UNL     1       2.526   4.819  21.230  0.00  0.00    +0.000 A 
ATOM     13  C   UNL     1       2.076   3.567  21.619  0.00  0.00    +0.000 A 
ATOM     14  N   UNL     1       1.441   2.707  20.794  0.00  0.00    +0.000 NA
ATOM     15  C   UNL     1       1.239   3.134  19.533  0.00  0.00    +0.000 A 
ATOM     16 CL   UNL     1       0.404   2.021  18.527  0.00  0.00    +0.000 Cl
ATOM     17  C   UNL     1       1.643   4.361  19.040  0.00  0.00    +0.000 A 
ENDBRANCH   1  11
BRANCH   2  18
ATOM     18  C   UNL     1       4.755   5.572  18.372  0.00  0.00    +0.000 C 
ATOM     19  O   UNL     1       5.495   4.992  19.158  0.00  0.00    +0.000 OA
ATOM     20  N   UNL     1       4.600   5.209  17.052  0.00  0.00    +0.000 N 
ATOM     21  H   UNL     1       3.998   5.747  16.443  0.00  0.00    +0.000 HD
BRANCH  20  22
ATOM     22  C   UNL     1       5.390   4.106  16.525  0.00  0.00    +0.000 C 
BRANCH  22  23
ATOM     23  C   UNL     1       6.781   4.499  16.024  0.00  0.00    +0.000 C 
BRANCH  23  24
ATOM     24  C   UNL     1       6.849   4.467  14.511  0.00  0.00    +0.000 A 
ATOM     25  C   UNL     1       6.084   3.544  13.785  0.00  0.00    +0.000 A 
ATOM     26  C   UNL     1       6.188   3.475  12.391  0.00  0.00    +0.000 A 
ATOM     27  C   UNL     1       7.057   4.325  11.714  0.00  0.00    +0.000 A 
ATOM     28  C   UNL     1       7.821   5.247  12.423  0.00  0.00    +0.000 A 
ATOM     29  C   UNL     1       7.719   5.319  13.815  0.00  0.00    +0.000 A 
ENDBRANCH  23  24
ENDBRANCH  22  23
ENDBRANCH  20  22
ENDBRANCH   2  18
TORSDOF 6
ENDMDL
MODEL 3
REMARK VINA RESULT:      -8.7      1.021      1.288
REMARK  Name = 
REMARK  8 active torsions:
REMARK  status: ('A' for Active; 'I' for Inactive)
REMARK    1  A    between atoms: C_1  and  C_2
REMARK    2  A    between atoms: C_5  and  C_6
REMARK    3  A    between atoms: C_6  and  C_19
REMARK    4  A    between atoms: C_7  and  C_8
REMARK    5  A    between atoms: N_10  and  C_11
REMARK    6  A    between atoms: C_11  and  C_12
REMARK    7  A    between atoms: C_12  and  C_13
REMARK    8  A    between atoms: C_27  and  C_28
REMARK                            x       y       z     vdW  Elec       q    Type
REMARK                         _______ _______ _______ _____ _____    ______ ____
ROOT
ATOM      1  C   UNL     1       3.133   6.451  18.434  0.00  0.00    +0.000 C 
ATOM      2  C   UNL     1       4.330   6.629  17.835  0.00  0.00    +0.000 C 
ENDROOT
BRANCH   1   7
ATOM      3  C   UNL     1       0.018  11.230  19.585  0.00  0.00    +0.000 C 
ATOM      4  C   UNL     1       0.811   9.976  19.318  0.00  0.00    +0.000 A 
ATOM      5  C   UNL     1       1.303   9.737  18.027  0.00  0.00    +0.000 A 
ATOM      6  C   UNL     1       2.058   8.594  17.749  0.00  0.00    +0.000 A 
ATOM      7  C   UNL     1       2.339   7.664  18.755  0.00  0.00    +0.000 A 
ATOM      8  C   UNL     1       1.835   7.889  20.043  0.00  0.00    +0.000 A 
ATOM      9  C   UNL     1       1.067   9.034  20.335  0.00  0.00    +0.000 A 
ATOM     10  C   UNL     1       0.525   9.229  21.725  0.00  0.00    +0.000 C 
ENDBRANCH   1   7
BRANCH   1  11
ATOM     11  C   UNL     1       2.633   5.090  18.729  0.00  0.00    +0.000 A 
ATOM     12  C   UNL     1       1.942   4.353  17.766  0.00  0.00    +0.000 A 
ATOM     13  C   UNL     1       1.522   3.073  18.090  0.00  0.00    +0.000 A 
ATOM     14  N   UNL     1       1.733   2.494  19.292  0.00  0.00    +0.000 NA
ATOM     15  C   UNL     1       2.408   3.232  20.195  0.00  0.00    +0.000 A 
ATOM     16 CL   UNL     1       2.678   2.449  21.698  0.00  0.00    +0.000 Cl
ATOM     17  C   UNL     1       2.873   4.515  19.977  0.00  0.00    +0.000 A 
ENDBRANCH   1  11
BRANCH   2  18
ATOM     18  C   UNL     1       5.126   5.507  17.275  0.00  0.00    +0.000 C 
ATOM     19  O   UNL     1       5.807   4.787  17.997  0.00  0.00    +0.000 OA
ATOM     20  N   UNL     1       5.002   5.333  15.915  0.00  0.00    +0.000 N 
ATOM     21  H   UNL     1       4.451   5.981  15.366  0.00  0.00    +0.000 HD
BRANCH  20  22
ATOM     22  C   UNL     1       5.754   4.269  15.267  0.00  0.00    +0.000 C 
BRANCH  22  23
ATOM     23  C   UNL     1       6.524   4.700  14.016  0.00  0.00    +0.000 C 
BRANCH  23  24
ATOM     24  C   UNL     1       6.286   3.742  12.868  0.00  0.00    +0.000 A 
ATOM     25  C   UNL     1       4.981   3.420  12.469  0.00  0.00    +0.000 A 
ATOM     26  C   UNL     1       4.759   2.492  11.445  0.00  0.00    +0.000 A 
ATOM     27  C   UNL     1       5.837   1.878  10.815  0.00  0.00    +0.000 A 
ATOM     28  C   UNL     1       7.138   2.190  11.200  0.00  0.00    +0.000 A 
ATOM     29  C   UNL     1       7.363   3.118  12.221  0.00  0.00    +0.000 A 
ENDBRANCH  23  24
ENDBRANCH  22  23
ENDBRANCH  20  22
ENDBRANCH   2  18
TORSDOF 6
ENDMDL
MODEL 4
REMARK VINA RESULT:      -8.6      1.582      2.116
REMARK  Name = 
REMARK  8 active torsions:
REMARK  status: ('A' for Active; 'I' for Inactive)
REMARK    1  A    between atoms: C_1  and  C_2
REMARK    2  A    between atoms: C_5  and  C_6
REMARK    3  A    between atoms: C_6  and  C_19
REMARK    4  A    between atoms: C_7  and  C_8
REMARK    5  A    between atoms: N_10  and  C_11
REMARK    6  A    between atoms: C_11  and  C_12
REMARK    7  A    between atoms: C_12  and  C_13
REMARK    8  A    between atoms: C_27  and  C_28
REMARK                            x       y       z     vdW  Elec       q    Type
REMARK                         _______ _______ _______ _____ _____    ______ ____
ROOT
ATOM      1  C   UNL     1       3.449   6.275  17.964  0.00  0.00    +0.000 C 
ATOM      2  C   UNL     1       4.320   6.514  16.959  0.00  0.00    +0.000 C 
ENDROOT
BRANCH   1   7
ATOM      3  C   UNL     1       0.290  10.797  19.816  0.00  0.00    +0.000 C 
ATOM      4  C   UNL     1       1.096   9.606  19.366  0.00  0.00    +0.000 A 
ATOM      5  C   UNL     1       1.524   9.531  18.033  0.00  0.00    +0.000 A 
ATOM      6  C   UNL     1       2.290   8.450  17.587  0.00  0.00    +0.000 A 
ATOM      7  C   UNL     1       2.646   7.419  18.463  0.00  0.00    +0.000 A 
ATOM      8  C   UNL     1       2.206   7.481  19.791  0.00  0.00    +0.000 A 
ATOM      9  C   UNL     1       1.428   8.562  20.252  0.00  0.00    +0.000 A 
ATOM     10  C   UNL     1       0.957   8.580  21.682  0.00  0.00    +0.000 C 
ENDBRANCH   1   7
BRANCH   1  11
ATOM     11  C   UNL     1       3.297   4.912  18.519  0.00  0.00    +0.000 A 
ATOM     12  C   UNL     1       4.322   4.318  19.258  0.00  0.00    +0.000 A 
ATOM     13  C   UNL     1       4.112   3.050  19.775  0.00  0.00    +0.000 A 
ATOM     14  N   UNL     1       2.974   2.344  19.600  0.00  0.00    +0.000 NA
ATOM     15  C   UNL     1       2.005   2.951  18.887  0.00  0.00    +0.000 A 
ATOM     16 CL   UNL     1       0.566   2.031  18.711  0.00  0.00    +0.000 Cl
ATOM     17  C   UNL     1       2.107   4.211  18.328  0.00  0.00    +0.000 A 
ENDBRANCH   1  11
BRANCH   2  18
ATOM     18  C   UNL     1       5.028   5.431  16.230  0.00  0.00    +0.000 C 
ATOM     19  O   UNL     1       4.480   4.360  15.994  0.00  0.00    +0.000 OA
ATOM     20  N   UNL     1       6.305   5.746  15.824  0.00  0.00    +0.000 N 
ATOM     21  H   UNL     1       6.715   6.636  16.078  0.00  0.00    +0.000 HD
BRANCH  20  22
ATOM     22  C   UNL     1       7.088   4.746  15.115  0.00  0.00    +0.000 C 
BRANCH  22  23
ATOM     23  C   UNL     1       7.270   5.019  13.620  0.00  0.00    +0.000 C 
BRANCH  23  24
ATOM     24  C   UNL     1       6.561   3.976  12.781  0.00  0.00    +0.000 A 
ATOM     25  C   UNL     1       7.295   3.018  12.067  0.00  0.00    +0.000 A 
ATOM     26  C   UNL     1       6.644   2.089  11.247  0.00  0.00    +0.000 A 
ATOM     27  C   UNL     1       5.258   2.112  11.132  0.00  0.00    +0.000 A 
ATOM     28  C   UNL     1       4.517   3.057  11.837  0.00  0.00    +0.000 A 
ATOM     29  C   UNL     1       5.164   3.985  12.658  0.00  0.00    +0.000 A 
ENDBRANCH  23  24
ENDBRANCH  22  23
ENDBRANCH  20  22
ENDBRANCH   2  18
TORSDOF 6
ENDMDL
MODEL 5
REMARK VINA RESULT:      -8.5      1.446      1.876
REMARK  Name = 
REMARK  8 active torsions:
REMARK  status: ('A' for Active; 'I' for Inactive)
REMARK    1  A    between atoms: C_1  and  C_2
REMARK    2  A    between atoms: C_5  and  C_6
REMARK    3  A    between atoms: C_6  and  C_19
REMARK    4  A    between atoms: C_7  and  C_8
REMARK    5  A    between atoms: N_10  and  C_11
REMARK    6  A    between atoms: C_11  and  C_12
REMARK    7  A    between atoms: C_12  and  C_13
REMARK    8  A    between atoms: C_27  and  C_28
REMARK                            x       y       z     vdW  Elec       q    Type
REMARK                         _______ _______ _______ _____ _____    ______ ____
ROOT
ATOM      1  C   UNL     1       3.100   6.860  18.493  0.00  0.00    +0.000 C 
ATOM      2  C   UNL     1       4.106   7.436  17.799  0.00  0.00    +0.000 C 
ENDROOT
BRANCH   1   7
ATOM      3  C   UNL     1      -0.551  10.319  21.420  0.00  0.00    +0.000 C 
ATOM      4  C   UNL     1       0.401   9.451  20.638  0.00  0.00    +0.000 A 
ATOM      5  C   UNL     1       0.942   8.308  21.242  0.00  0.00    +0.000 A 
ATOM      6  C   UNL     1       1.813   7.471  20.539  0.00  0.00    +0.000 A 
ATOM      7  C   UNL     1       2.164   7.757  19.215  0.00  0.00    +0.000 A 
ATOM      8  C   UNL     1       1.640   8.908  18.613  0.00  0.00    +0.000 A 
ATOM      9  C   UNL     1       0.765   9.763  19.313  0.00  0.00    +0.000 A 
ATOM     10  C   UNL     1       0.241  11.002  18.637  0.00  0.00    +0.000 C 
ENDBRANCH   1   7
BRANCH   1  11
ATOM     11  C   UNL     1       2.937   5.389  18.502  0.00  0.00    +0.000 A 
ATOM     12  C   UNL     1       2.019   4.762  17.657  0.00  0.00    +0.000 A 
ATOM     13  C   UNL     1       1.930   3.380  17.691  0.00  0.00    +0.000 A 
ATOM     14  N   UNL     1       2.674   2.597  18.502  0.00  0.00    +0.000 NA
ATOM     15  C   UNL     1       3.553   3.236  19.299  0.00  0.00    +0.000 A 
ATOM     16 CL   UNL     1       4.496   2.203  20.293  0.00  0.00    +0.000 Cl
ATOM     17  C   UNL     1       3.725   4.606  19.345  0.00  0.00    +0.000 A 
ENDBRANCH   1  11
BRANCH   2  18
ATOM     18  C   UNL     1       4.983   6.677  16.871  0.00  0.00    +0.000 C 
ATOM     19  O   UNL     1       4.892   6.814  15.656  0.00  0.00    +0.000 OA
ATOM     20  N   UNL     1       5.905   5.859  17.485  0.00  0.00    +0.000 N 
ATOM     21  H   UNL     1       5.910   5.763  18.492  0.00  0.00    +0.000 HD
BRANCH  20  22
ATOM     22  C   UNL     1       6.801   5.062  16.661  0.00  0.00    +0.000 C 
BRANCH  22  23
ATOM     23  C   UNL     1       6.109   3.987  15.820  0.00  0.00    +0.000 C 
BRANCH  23  24
ATOM     24  C   UNL     1       6.452   4.133  14.351  0.00  0.00    +0.000 A 
ATOM     25  C   UNL     1       5.848   3.305  13.395  0.00  0.00    +0.000 A 
ATOM     26  C   UNL     1       6.205   3.401  12.045  0.00  0.00    +0.000 A 
ATOM     27  C   UNL     1       7.167   4.322  11.642  0.00  0.00    +0.000 A 
ATOM     28  C   UNL     1       7.772   5.151  12.581  0.00  0.00    +0.000 A 
ATOM     29  C   UNL     1       7.417   5.059  13.931  0.00  0.00    +0.000 A 
ENDBRANCH  23  24
ENDBRANCH  22  23
ENDBRANCH  20  22
ENDBRANCH   2  18
TORSDOF 6
ENDMDL
MODEL 6
REMARK VINA RESULT:      -8.3      1.192      1.244
REMARK  Name = 
REMARK  8 active torsions:
REMARK  status: ('A' for Active; 'I' for Inactive)
REMARK    1  A    between atoms: C_1  and  C_2
REMARK    2  A    between atoms: C_5  and  C_6
REMARK    3  A    between atoms: C_6  and  C_19
REMARK    4  A    between atoms: C_7  and  C_8
REMARK    5  A    between atoms: N_10  and  C_11
REMARK    6  A    between atoms: C_11  and  C_12
REMARK    7  A    between atoms: C_12  and  C_13
REMARK    8  A    between atoms: C_27  and  C_28
REMARK                            x       y       z     vdW  Elec       q    Type
REMARK                         _______ _______ _______ _____ _____    ______ ____
ROOT
ATOM      1  C   UNL     1       2.806   7.136  18.455  0.00  0.00    +0.000 C 
ATOM      2  C   UNL     1       3.882   7.566  17.762  0.00  0.00    +0.000 C 
ENDROOT
BRANCH   1   7
ATOM      3  C   UNL     1      -0.713  11.202  20.678  0.00  0.00    +0.000 C 
ATOM      4  C   UNL     1       0.192  10.128  20.133  0.00  0.00    +0.000 A 
ATOM      5  C   UNL     1       0.476  10.101  18.761  0.00  0.00    +0.000 A 
ATOM      6  C   UNL     1       1.327   9.130  18.225  0.00  0.00    +0.000 A 
ATOM      7  C   UNL     1       1.915   8.164  19.049  0.00  0.00    +0.000 A 
ATOM      8  C   UNL     1       1.621   8.176  20.418  0.00  0.00    +0.000 A 
ATOM      9  C   UNL     1       0.760   9.146  20.970  0.00  0.00    +0.000 A 
ATOM     10  C   UNL     1       0.452   9.112  22.443  0.00  0.00    +0.000 C 
ENDBRANCH   1   7
BRANCH   1  11
ATOM     11  C   UNL     1       2.526   5.689  18.588  0.00  0.00    +0.000 A 
ATOM     12  C   UNL     1       1.959   4.966  17.536  0.00  0.00    +0.000 A 
ATOM     13  C   UNL     1       1.745   3.608  17.709  0.00  0.00    +0.000 A 
ATOM     14  N   UNL     1       2.043   2.938  18.843  0.00  0.00    +0.000 NA
ATOM     15  C   UNL     1       2.594   3.665  19.834  0.00  0.00    +0.000 A 
ATOM     16 CL   UNL     1       2.983   2.770  21.246  0.00  0.00    +0.000 Cl
ATOM     17  C   UNL     1       2.852   5.022  19.769  0.00  0.00    +0.000 A 
ENDBRANCH   1  11
BRANCH   2  18
ATOM     18  C   UNL     1       4.732   6.660  16.948  0.00  0.00    +0.000 C 
ATOM     19  O   UNL     1       4.791   6.769  15.729  0.00  0.00    +0.000 OA
ATOM     20  N   UNL     1       5.455   5.740  17.673  0.00  0.00    +0.000 N 
ATOM     21  H   UNL     1       5.340   5.677  18.676  0.00  0.00    +0.000 HD
BRANCH  20  22
ATOM     22  C   UNL     1       6.308   4.796  16.966  0.00  0.00    +0.000 C 
BRANCH  22  23
ATOM     23  C   UNL     1       5.577   3.901  15.963  0.00  0.00    +0.000 C 
BRANCH  23  24
ATOM     24  C   UNL     1       6.124   4.085  14.563  0.00  0.00    +0.000 A 
ATOM     25  C   UNL     1       5.560   3.391  13.483  0.00  0.00    +0.000 A 
ATOM     26  C   UNL     1       6.099   3.516  12.197  0.00  0.00    +0.000 A 
ATOM     27  C   UNL     1       7.206   4.332  11.982  0.00  0.00    +0.000 A 
ATOM     28  C   UNL     1       7.774   5.028  13.045  0.00  0.00    +0.000 A 
ATOM     29  C   UNL     1       7.237   4.906  14.330  0.00  0.00    +0.000 A 
ENDBRANCH  23  24
ENDBRANCH  22  23
ENDBRANCH  20  22
ENDBRANCH   2  18
TORSDOF 6
ENDMDL
MODEL 7
REMARK VINA RESULT:      -8.2      0.583      1.593
REMARK  Name = 
REMARK  8 active torsions:
REMARK  status: ('A' for Active; 'I' for Inactive)
REMARK    1  A    between atoms: C_1  and  C_2
REMARK    2  A    between atoms: C_5  and  C_6
REMARK    3  A    between atoms: C_6  and  C_19
REMARK    4  A    between atoms: C_7  and  C_8
REMARK    5  A    between atoms: N_10  and  C_11
REMARK    6  A    between atoms: C_11  and  C_12
REMARK    7  A    between atoms: C_12  and  C_13
REMARK    8  A    between atoms: C_27  and  C_28
REMARK                            x       y       z     vdW  Elec       q    Type
REMARK                         _______ _______ _______ _____ _____    ______ ____
ROOT
ATOM      1  C   UNL     1       2.650   6.442  19.484  0.00  0.00    +0.000 C 
ATOM      2  C   UNL     1       3.925   6.631  19.079  0.00  0.00    +0.000 C 
ENDROOT
BRANCH   1   7
ATOM      3  C   UNL     1      -0.438  11.117  21.053  0.00  0.00    +0.000 C 
ATOM      4  C   UNL     1       0.376   9.926  20.619  0.00  0.00    +0.000 A 
ATOM      5  C   UNL     1       0.614   8.887  21.529  0.00  0.00    +0.000 A 
ATOM      6  C   UNL     1       1.349   7.759  21.153  0.00  0.00    +0.000 A 
ATOM      7  C   UNL     1       1.863   7.643  19.857  0.00  0.00    +0.000 A 
ATOM      8  C   UNL     1       1.643   8.686  18.948  0.00  0.00    +0.000 A 
ATOM      9  C   UNL     1       0.909   9.832  19.317  0.00  0.00    +0.000 A 
ATOM     10  C   UNL     1       0.714  10.941  18.318  0.00  0.00    +0.000 C 
ENDBRANCH   1   7
BRANCH   1  11
ATOM     11  C   UNL     1       2.068   5.082  19.525  0.00  0.00    +0.000 A 
ATOM     12  C   UNL     1       1.624   4.454  18.360  0.00  0.00    +0.000 A 
ATOM     13  C   UNL     1       1.113   3.170  18.457  0.00  0.00    +0.000 A 
ATOM     14  N   UNL     1       1.008   2.487  19.617  0.00  0.00    +0.000 NA
ATOM     15  C   UNL     1       1.451   3.121  20.720  0.00  0.00    +0.000 A 
ATOM     16 CL   UNL     1       1.325   2.208  22.168  0.00  0.00    +0.000 Cl
ATOM     17  C   UNL     1       1.980   4.398  20.738  0.00  0.00    +0.000 A 
ENDBRANCH   1  11
BRANCH   2  18
ATOM     18  C   UNL     1       4.751   5.550  18.484  0.00  0.00    +0.000 C 
ATOM     19  O   UNL     1       5.504   4.872  19.174  0.00  0.00    +0.000 OA
ATOM     20  N   UNL     1       4.570   5.362  17.132  0.00  0.00    +0.000 N 
ATOM     21  H   UNL     1       3.958   5.975  16.610  0.00  0.00    +0.000 HD
BRANCH  20  22
ATOM     22  C   UNL     1       5.345   4.335  16.452  0.00  0.00    +0.000 C 
BRANCH  22  23
ATOM     23  C   UNL     1       6.716   4.796  15.952  0.00  0.00    +0.000 C 
BRANCH  23  24
ATOM     24  C   UNL     1       6.858   4.580  14.459  0.00  0.00    +0.000 A 
ATOM     25  C   UNL     1       7.724   5.383  13.704  0.00  0.00    +0.000 A 
ATOM     26  C   UNL     1       7.814   5.222  12.317  0.00  0.00    +0.000 A 
ATOM     27  C   UNL     1       7.039   4.261  11.674  0.00  0.00    +0.000 A 
ATOM     28  C   UNL     1       6.176   3.456  12.413  0.00  0.00    +0.000 A 
ATOM     29  C   UNL     1       6.085   3.613  13.799  0.00  0.00    +0.000 A 
ENDBRANCH  23  24
ENDBRANCH  22  23
ENDBRANCH  20  22
ENDBRANCH   2  18
TORSDOF 6
ENDMDL
MODEL 8
REMARK VINA RESULT:      -8.2      1.737      2.659
REMARK  Name = 
REMARK  8 active torsions:
REMARK  status: ('A' for Active; 'I' for Inactive)
REMARK    1  A    between atoms: C_1  and  C_2
REMARK    2  A    between atoms: C_5  and  C_6
REMARK    3  A    between atoms: C_6  and  C_19
REMARK    4  A    between atoms: C_7  and  C_8
REMARK    5  A    between atoms: N_10  and  C_11
REMARK    6  A    between atoms: C_11  and  C_12
REMARK    7  A    between atoms: C_12  and  C_13
REMARK    8  A    between atoms: C_27  and  C_28
REMARK                            x       y       z     vdW  Elec       q    Type
REMARK                         _______ _______ _______ _____ _____    ______ ____
ROOT
ATOM      1  C   UNL     1       4.137   5.781  18.219  0.00  0.00    +0.000 C 
ATOM      2  C   UNL     1       5.229   6.247  17.575  0.00  0.00    +0.000 C 
ENDROOT
BRANCH   1   7
ATOM      3  C   UNL     1       0.295   9.632  20.285  0.00  0.00    +0.000 C 
ATOM      4  C   UNL     1       1.304   8.661  19.727  0.00  0.00    +0.000 A 
ATOM      5  C   UNL     1       1.612   7.501  20.450  0.00  0.00    +0.000 A 
ATOM      6  C   UNL     1       2.529   6.570  19.953  0.00  0.00    +0.000 A 
ATOM      7  C   UNL     1       3.158   6.777  18.720  0.00  0.00    +0.000 A 
ATOM      8  C   UNL     1       2.867   7.944  18.002  0.00  0.00    +0.000 A 
ATOM      9  C   UNL     1       1.949   8.893  18.495  0.00  0.00    +0.000 A 
ATOM     10  C   UNL     1       1.679  10.145  17.704  0.00  0.00    +0.000 C 
ENDBRANCH   1   7
BRANCH   1  11
ATOM     11  C   UNL     1       3.927   4.325  18.388  0.00  0.00    +0.000 A 
ATOM     12  C   UNL     1       3.167   3.597  17.471  0.00  0.00    +0.000 A 
ATOM     13  C   UNL     1       3.028   2.233  17.666  0.00  0.00    +0.000 A 
ATOM     14  N   UNL     1       3.577   1.561  18.700  0.00  0.00    +0.000 NA
ATOM     15  C   UNL     1       4.310   2.294  19.562  0.00  0.00    +0.000 A 
ATOM     16 CL   UNL     1       5.013   1.397  20.845  0.00  0.00    +0.000 Cl
ATOM     17  C   UNL     1       4.515   3.657  19.462  0.00  0.00    +0.000 A 
ENDBRANCH   1  11
BRANCH   2  18
ATOM     18  C   UNL     1       6.174   5.364  16.846  0.00  0.00    +0.000 C 
ATOM     19  O   UNL     1       6.889   4.567  17.443  0.00  0.00    +0.000 OA
ATOM     20  N   UNL     1       6.147   5.493  15.475  0.00  0.00    +0.000 N 
ATOM     21  H   UNL     1       5.558   6.192  15.041  0.00  0.00    +0.000 HD
BRANCH  20  22
ATOM     22  C   UNL     1       7.047   4.681  14.671  0.00  0.00    +0.000 C 
BRANCH  22  23
ATOM     23  C   UNL     1       6.984   4.956  13.167  0.00  0.00    +0.000 C 
BRANCH  23  24
ATOM     24  C   UNL     1       6.567   3.718  12.399  0.00  0.00    +0.000 A 
ATOM     25  C   UNL     1       7.533   2.866  11.845  0.00  0.00    +0.000 A 
ATOM     26  C   UNL     1       7.150   1.753  11.089  0.00  0.00    +0.000 A 
ATOM     27  C   UNL     1       5.801   1.485  10.877  0.00  0.00    +0.000 A 
ATOM     28  C   UNL     1       4.832   2.323  11.422  0.00  0.00    +0.000 A 
ATOM     29  C   UNL     1       5.211   3.434  12.180  0.00  0.00    +0.000 A 
ENDBRANCH  23  24
ENDBRANCH  22  23
ENDBRANCH  20  22
ENDBRANCH   2  18
TORSDOF 6
ENDMDL
MODEL 9
REMARK VINA RESULT:      -8.2      1.051      1.815
REMARK  Name = 
REMARK  8 active torsions:
REMARK  status: ('A' for Active; 'I' for Inactive)
REMARK    1  A    between atoms: C_1  and  C_2
REMARK    2  A    between atoms: C_5  and  C_6
REMARK    3  A    between atoms: C_6  and  C_19
REMARK    4  A    between atoms: C_7  and  C_8
REMARK    5  A    between atoms: N_10  and  C_11
REMARK    6  A    between atoms: C_11  and  C_12
REMARK    7  A    between atoms: C_12  and  C_13
REMARK    8  A    between atoms: C_27  and  C_28
REMARK                            x       y       z     vdW  Elec       q    Type
REMARK                         _______ _______ _______ _____ _____    ______ ____
ROOT
ATOM      1  C   UNL     1       2.634   6.476  19.785  0.00  0.00    +0.000 C 
ATOM      2  C   UNL     1       3.795   6.705  19.134  0.00  0.00    +0.000 C 
ENDROOT
BRANCH   1   7
ATOM      3  C   UNL     1      -0.758  11.026  21.070  0.00  0.00    +0.000 C 
ATOM      4  C   UNL     1       0.139   9.869  20.712  0.00  0.00    +0.000 A 
ATOM      5  C   UNL     1       0.258   8.792  21.601  0.00  0.00    +0.000 A 
ATOM      6  C   UNL     1       1.065   7.693  21.292  0.00  0.00    +0.000 A 
ATOM      7  C   UNL     1       1.773   7.646  20.086  0.00  0.00    +0.000 A 
ATOM      8  C   UNL     1       1.671   8.728  19.201  0.00  0.00    +0.000 A 
ATOM      9  C   UNL     1       0.865   9.844  19.504  0.00  0.00    +0.000 A 
ATOM     10  C   UNL     1       0.800  10.996  18.537  0.00  0.00    +0.000 C 
ENDBRANCH   1   7
BRANCH   1  11
ATOM     11  C   UNL     1       2.238   5.098  20.155  0.00  0.00    +0.000 A 
ATOM     12  C   UNL     1       2.508   4.590  21.427  0.00  0.00    +0.000 A 
ATOM     13  C   UNL     1       2.090   3.303  21.726  0.00  0.00    +0.000 A 
ATOM     14  N   UNL     1       1.443   2.501  20.853  0.00  0.00    +0.000 NA
ATOM     15  C   UNL     1       1.195   3.026  19.637  0.00  0.00    +0.000 A 
ATOM     16 CL   UNL     1       0.346   1.984  18.570  0.00  0.00    +0.000 Cl
ATOM     17  C   UNL     1       1.564   4.296  19.235  0.00  0.00    +0.000 A 
ENDBRANCH   1  11
BRANCH   2  18
ATOM     18  C   UNL     1       4.644   5.614  18.590  0.00  0.00    +0.000 C 
ATOM     19  O   UNL     1       5.327   4.912  19.327  0.00  0.00    +0.000 OA
ATOM     20  N   UNL     1       4.566   5.446  17.226  0.00  0.00    +0.000 N 
ATOM     21  H   UNL     1       4.010   6.079  16.665  0.00  0.00    +0.000 HD
BRANCH  20  22
ATOM     22  C   UNL     1       5.372   4.413  16.594  0.00  0.00    +0.000 C 
BRANCH  22  23
ATOM     23  C   UNL     1       6.668   4.915  15.952  0.00  0.00    +0.000 C 
BRANCH  23  24
ATOM     24  C   UNL     1       6.694   4.622  14.467  0.00  0.00    +0.000 A 
ATOM     25  C   UNL     1       5.792   3.706  13.906  0.00  0.00    +0.000 A 
ATOM     26  C   UNL     1       5.852   3.392  12.544  0.00  0.00    +0.000 A 
ATOM     27  C   UNL     1       6.813   3.988  11.733  0.00  0.00    +0.000 A 
ATOM     28  C   UNL     1       7.713   4.900  12.276  0.00  0.00    +0.000 A 
ATOM     29  C   UNL     1       7.655   5.217  13.637  0.00  0.00    +0.000 A 
ENDBRANCH  23  24
ENDBRANCH  22  23
ENDBRANCH  20  22
ENDBRANCH   2  18
TORSDOF 6
ENDMDL
