MODEL 1
REMARK VINA RESULT:      -6.3      0.000      0.000
REMARK  Name = 
REMARK  6 active torsions:
REMARK  status: ('A' for Active; 'I' for Inactive)
REMARK    1  A    between atoms: C_1  and  N_2
REMARK    2  A    between atoms: N_2  and  C_3
REMARK    3  A    between atoms: N_2  and  C_11
REMARK    4  A    between atoms: C_3  and  C_4
REMARK    5  A    between atoms: N_9  and  C_10
REMARK    6  A    between atoms: C_14  and  C_15
REMARK                            x       y       z     vdW  Elec       q    Type
REMARK                         _______ _______ _______ _____ _____    ______ ____
ROOT
ATOM      1  C   UNL     1       3.006   7.916  17.363  0.00  0.00    +0.000 C 
ATOM      2  N   UNL     1       3.844   6.833  17.866  0.00  0.00    +0.000 N 
ENDROOT
BRANCH   2   3
ATOM      3  C   UNL     1       3.317   5.916  18.759  0.00  0.00    +0.000 A 
ATOM      4  C   UNL     1       2.352   6.287  19.708  0.00  0.00    +0.000 A 
ATOM      5  C   UNL     1       1.850   5.371  20.635  0.00  0.00    +0.000 A 
ATOM      6  C   UNL     1       2.319   4.071  20.587  0.00  0.00    +0.000 A 
ATOM      7  N   UNL     1       3.223   3.641  19.682  0.00  0.00    +0.000 NA
ATOM      8  C   UNL     1       3.689   4.565  18.802  0.00  0.00    +0.000 A 
BRANCH   6   9
ATOM      9  C   UNL     1       1.857   3.094  21.530  0.00  0.00    +0.000 C 
ATOM     10  N   UNL     1       1.527   2.312  22.323  0.00  0.00    +0.000 NA
ENDBRANCH   6   9
ENDBRANCH   2   3
BRANCH   2  11
ATOM     11  C   UNL     1       5.268   6.885  17.527  0.00  0.00    +0.000 C 
BRANCH  11  12
ATOM     12  C   UNL     1       5.742   5.841  16.558  0.00  0.00    +0.000 A 
ATOM     13  C   UNL     1       5.266   5.514  15.296  0.00  0.00    +0.000 A 
ATOM     14  C   UNL     1       6.128   4.543  14.762  0.00  0.00    +0.000 A 
ATOM     15 BR   UNL     1       5.969   3.813  13.046  0.00  0.00    +0.000 Br
ATOM     16  C   UNL     1       7.088   4.253  15.695  0.00  0.00    +0.000 A 
ATOM     17  N   UNL     1       6.821   5.013  16.805  0.00  0.00    +0.000 N 
ATOM     18  C   UNL     1       7.573   4.936  18.040  0.00  0.00    +0.000 C 
ENDBRANCH  11  12
ENDBRANCH   2  11
TORSDOF 4
ENDMDL
MODEL 2
REMARK VINA RESULT:      -6.2      2.689      6.486
REMARK  Name = 
REMARK  6 active torsions:
REMARK  status: ('A' for Active; 'I' for Inactive)
REMARK    1  A    between atoms: C_1  and  N_2
REMARK    2  A    between atoms: N_2  and  C_3
REMARK    3  A    between atoms: N_2  and  C_11
REMARK    4  A    between atoms: C_3  and  C_4
REMARK    5  A    between atoms: N_9  and  C_10
REMARK    6  A    between atoms: C_14  and  C_15
REMARK                            x       y       z     vdW  Elec       q    Type
REMARK                         _______ _______ _______ _____ _____    ______ ____
ROOT
ATOM      1  C   UNL     1       6.671   5.295  19.288  0.00  0.00    +0.000 C 
ATOM      2  N   UNL     1       5.681   4.814  18.331  0.00  0.00    +0.000 N 
ENDROOT
BRANCH   2   3
ATOM      3  C   UNL     1       5.994   4.769  16.984  0.00  0.00    +0.000 A 
ATOM      4  C   UNL     1       5.169   4.111  16.059  0.00  0.00    +0.000 A 
ATOM      5  C   UNL     1       5.506   4.032  14.706  0.00  0.00    +0.000 A 
ATOM      6  C   UNL     1       6.678   4.637  14.290  0.00  0.00    +0.000 A 
ATOM      7  N   UNL     1       7.501   5.311  15.120  0.00  0.00    +0.000 NA
ATOM      8  C   UNL     1       7.138   5.359  16.428  0.00  0.00    +0.000 A 
BRANCH   6   9
ATOM      9  C   UNL     1       7.087   4.566  12.916  0.00  0.00    +0.000 C 
ATOM     10  N   UNL     1       7.403   4.458  11.804  0.00  0.00    +0.000 NA
ENDBRANCH   6   9
ENDBRANCH   2   3
BRANCH   2  11
ATOM     11  C   UNL     1       4.330   4.569  18.842  0.00  0.00    +0.000 C 
BRANCH  11  12
ATOM     12  C   UNL     1       3.463   5.786  18.988  0.00  0.00    +0.000 A 
ATOM     13  C   UNL     1       3.416   6.945  18.225  0.00  0.00    +0.000 A 
ATOM     14  C   UNL     1       2.355   7.725  18.711  0.00  0.00    +0.000 A 
ATOM     15 BR   UNL     1       1.820   9.362  17.979  0.00  0.00    +0.000 Br
ATOM     16  C   UNL     1       1.790   7.074  19.776  0.00  0.00    +0.000 A 
ATOM     17  N   UNL     1       2.498   5.916  19.969  0.00  0.00    +0.000 N 
ATOM     18  C   UNL     1       2.251   4.986  21.052  0.00  0.00    +0.000 C 
ENDBRANCH  11  12
ENDBRANCH   2  11
TORSDOF 4
ENDMDL
MODEL 3
REMARK VINA RESULT:      -6.0      2.870      6.502
REMARK  Name = 
REMARK  6 active torsions:
REMARK  status: ('A' for Active; 'I' for Inactive)
REMARK    1  A    between atoms: C_1  and  N_2
REMARK    2  A    between atoms: N_2  and  C_3
REMARK    3  A    between atoms: N_2  and  C_11
REMARK    4  A    between atoms: C_3  and  C_4
REMARK    5  A    between atoms: N_9  and  C_10
REMARK    6  A    between atoms: C_14  and  C_15
REMARK                            x       y       z     vdW  Elec       q    Type
REMARK                         _______ _______ _______ _____ _____    ______ ____
ROOT
ATOM      1  C   UNL     1       6.642   5.640  19.189  0.00  0.00    +0.000 C 
ATOM      2  N   UNL     1       5.588   5.767  18.188  0.00  0.00    +0.000 N 
ENDROOT
BRANCH   2   3
ATOM      3  C   UNL     1       5.808   5.313  16.899  0.00  0.00    +0.000 A 
ATOM      4  C   UNL     1       4.882   4.488  16.243  0.00  0.00    +0.000 A 
ATOM      5  C   UNL     1       5.123   3.997  14.958  0.00  0.00    +0.000 A 
ATOM      6  C   UNL     1       6.302   4.358  14.333  0.00  0.00    +0.000 A 
ATOM      7  N   UNL     1       7.221   5.171  14.894  0.00  0.00    +0.000 NA
ATOM      8  C   UNL     1       6.950   5.622  16.147  0.00  0.00    +0.000 A 
BRANCH   6   9
ATOM      9  C   UNL     1       6.614   3.864  13.022  0.00  0.00    +0.000 C 
ATOM     10  N   UNL     1       6.919   3.469  11.973  0.00  0.00    +0.000 NA
ENDBRANCH   6   9
ENDBRANCH   2   3
BRANCH   2  11
ATOM     11  C   UNL     1       4.404   6.542  18.567  0.00  0.00    +0.000 C 
BRANCH  11  12
ATOM     12  C   UNL     1       3.376   5.801  19.373  0.00  0.00    +0.000 A 
ATOM     13  C   UNL     1       3.295   4.451  19.691  0.00  0.00    +0.000 A 
ATOM     14  C   UNL     1       2.205   4.291  20.561  0.00  0.00    +0.000 A 
ATOM     15 BR   UNL     1       1.703   2.667  21.343  0.00  0.00    +0.000 Br
ATOM     16  C   UNL     1       1.606   5.511  20.738  0.00  0.00    +0.000 A 
ATOM     17  N   UNL     1       2.297   6.418  19.975  0.00  0.00    +0.000 N 
ATOM     18  C   UNL     1       1.924   7.811  19.839  0.00  0.00    +0.000 C 
ENDBRANCH  11  12
ENDBRANCH   2  11
TORSDOF 4
ENDMDL
MODEL 4
REMARK VINA RESULT:      -6.0      2.004      3.739
REMARK  Name = 
REMARK  6 active torsions:
REMARK  status: ('A' for Active; 'I' for Inactive)
REMARK    1  A    between atoms: C_1  and  N_2
REMARK    2  A    between atoms: N_2  and  C_3
REMARK    3  A    between atoms: N_2  and  C_11
REMARK    4  A    between atoms: C_3  and  C_4
REMARK    5  A    between atoms: N_9  and  C_10
REMARK    6  A    between atoms: C_14  and  C_15
REMARK                            x       y       z     vdW  Elec       q    Type
REMARK                         _______ _______ _______ _____ _____    ______ ____
ROOT
ATOM      1  C   UNL     1       2.522   3.429  18.846  0.00  0.00    +0.000 C 
ATOM      2  N   UNL     1       3.383   4.581  19.093  0.00  0.00    +0.000 N 
ENDROOT
BRANCH   2   3
ATOM      3  C   UNL     1       2.843   5.856  19.076  0.00  0.00    +0.000 A 
ATOM      4  C   UNL     1       2.879   6.653  17.922  0.00  0.00    +0.000 A 
ATOM      5  C   UNL     1       2.370   7.954  17.916  0.00  0.00    +0.000 A 
ATOM      6  C   UNL     1       1.810   8.439  19.083  0.00  0.00    +0.000 A 
ATOM      7  N   UNL     1       1.717   7.716  20.219  0.00  0.00    +0.000 NA
ATOM      8  C   UNL     1       2.228   6.458  20.182  0.00  0.00    +0.000 A 
BRANCH   6   9
ATOM      9  C   UNL     1       1.294   9.777  19.143  0.00  0.00    +0.000 C 
ATOM     10  N   UNL     1       0.889  10.861  19.244  0.00  0.00    +0.000 NA
ENDBRANCH   6   9
ENDBRANCH   2   3
BRANCH   2  11
ATOM     11  C   UNL     1       4.823   4.328  19.169  0.00  0.00    +0.000 C 
BRANCH  11  12
ATOM     12  C   UNL     1       5.561   4.386  17.863  0.00  0.00    +0.000 A 
ATOM     13  C   UNL     1       5.196   3.909  16.611  0.00  0.00    +0.000 A 
ATOM     14  C   UNL     1       6.186   4.317  15.703  0.00  0.00    +0.000 A 
ATOM     15 BR   UNL     1       6.134   3.989  13.861  0.00  0.00    +0.000 Br
ATOM     16  C   UNL     1       7.157   4.993  16.392  0.00  0.00    +0.000 A 
ATOM     17  N   UNL     1       6.793   4.992  17.715  0.00  0.00    +0.000 N 
ATOM     18  C   UNL     1       7.604   5.550  18.778  0.00  0.00    +0.000 C 
ENDBRANCH  11  12
ENDBRANCH   2  11
TORSDOF 4
ENDMDL
MODEL 5
REMARK VINA RESULT:      -6.0      2.316      3.690
REMARK  Name = 
REMARK  6 active torsions:
REMARK  status: ('A' for Active; 'I' for Inactive)
REMARK    1  A    between atoms: C_1  and  N_2
REMARK    2  A    between atoms: N_2  and  C_3
REMARK    3  A    between atoms: N_2  and  C_11
REMARK    4  A    between atoms: C_3  and  C_4
REMARK    5  A    between atoms: N_9  and  C_10
REMARK    6  A    between atoms: C_14  and  C_15
REMARK                            x       y       z     vdW  Elec       q    Type
REMARK                         _______ _______ _______ _____ _____    ______ ____
ROOT
ATOM      1  C   UNL     1       3.380   5.027  17.861  0.00  0.00    +0.000 C 
ATOM      2  N   UNL     1       3.749   6.437  17.903  0.00  0.00    +0.000 N 
ENDROOT
BRANCH   2   3
ATOM      3  C   UNL     1       2.856   7.364  18.413  0.00  0.00    +0.000 A 
ATOM      4  C   UNL     1       2.426   8.463  17.654  0.00  0.00    +0.000 A 
ATOM      5  C   UNL     1       1.556   9.420  18.183  0.00  0.00    +0.000 A 
ATOM      6  C   UNL     1       1.112   9.251  19.481  0.00  0.00    +0.000 A 
ATOM      7  N   UNL     1       1.463   8.203  20.255  0.00  0.00    +0.000 NA
ATOM      8  C   UNL     1       2.314   7.298  19.704  0.00  0.00    +0.000 A 
BRANCH   6   9
ATOM      9  C   UNL     1       0.237  10.215  20.084  0.00  0.00    +0.000 C 
ATOM     10  N   UNL     1      -0.510  10.976  20.543  0.00  0.00    +0.000 NA
ENDBRANCH   6   9
ENDBRANCH   2   3
BRANCH   2  11
ATOM     11  C   UNL     1       4.993   6.818  17.229  0.00  0.00    +0.000 C 
BRANCH  11  12
ATOM     12  C   UNL     1       5.586   5.774  16.327  0.00  0.00    +0.000 A 
ATOM     13  C   UNL     1       5.212   5.384  15.048  0.00  0.00    +0.000 A 
ATOM     14  C   UNL     1       6.159   4.449  14.602  0.00  0.00    +0.000 A 
ATOM     15 BR   UNL     1       6.152   3.662  12.904  0.00  0.00    +0.000 Br
ATOM     16  C   UNL     1       7.070   4.241  15.603  0.00  0.00    +0.000 A 
ATOM     17  N   UNL     1       6.689   5.017  16.669  0.00  0.00    +0.000 N 
ATOM     18  C   UNL     1       7.362   5.018  17.951  0.00  0.00    +0.000 C 
ENDBRANCH  11  12
ENDBRANCH   2  11
TORSDOF 4
ENDMDL
MODEL 6
REMARK VINA RESULT:      -6.0      3.121      6.399
REMARK  Name = 
REMARK  6 active torsions:
REMARK  status: ('A' for Active; 'I' for Inactive)
REMARK    1  A    between atoms: C_1  and  N_2
REMARK    2  A    between atoms: N_2  and  C_3
REMARK    3  A    between atoms: N_2  and  C_11
REMARK    4  A    between atoms: C_3  and  C_4
REMARK    5  A    between atoms: N_9  and  C_10
REMARK    6  A    between atoms: C_14  and  C_15
REMARK                            x       y       z     vdW  Elec       q    Type
REMARK                         _______ _______ _______ _____ _____    ______ ____
ROOT
ATOM      1  C   UNL     1       5.168   3.675  16.182  0.00  0.00    +0.000 C 
ATOM      2  N   UNL     1       5.301   4.325  17.481  0.00  0.00    +0.000 N 
ENDROOT
BRANCH   2   3
ATOM      3  C   UNL     1       6.083   5.460  17.603  0.00  0.00    +0.000 A 
ATOM      4  C   UNL     1       7.180   5.506  18.476  0.00  0.00    +0.000 A 
ATOM      5  C   UNL     1       7.945   6.665  18.628  0.00  0.00    +0.000 A 
ATOM      6  C   UNL     1       7.602   7.775  17.879  0.00  0.00    +0.000 A 
ATOM      7  N   UNL     1       6.579   7.790  16.999  0.00  0.00    +0.000 NA
ATOM      8  C   UNL     1       5.858   6.644  16.886  0.00  0.00    +0.000 A 
BRANCH   6   9
ATOM      9  C   UNL     1       8.337   9.000  18.012  0.00  0.00    +0.000 C 
ATOM     10  N   UNL     1       8.963   9.968  18.155  0.00  0.00    +0.000 NA
ENDBRANCH   6   9
ENDBRANCH   2   3
BRANCH   2  11
ATOM     11  C   UNL     1       4.732   3.624  18.635  0.00  0.00    +0.000 C 
BRANCH  11  12
ATOM     12  C   UNL     1       3.597   4.325  19.323  0.00  0.00    +0.000 A 
ATOM     13  C   UNL     1       3.461   5.658  19.688  0.00  0.00    +0.000 A 
ATOM     14  C   UNL     1       2.164   5.821  20.201  0.00  0.00    +0.000 A 
ATOM     15 BR   UNL     1       1.449   7.454  20.772  0.00  0.00    +0.000 Br
ATOM     16  C   UNL     1       1.534   4.605  20.188  0.00  0.00    +0.000 A 
ATOM     17  N   UNL     1       2.428   3.688  19.695  0.00  0.00    +0.000 N 
ATOM     18  C   UNL     1       2.160   2.268  19.595  0.00  0.00    +0.000 C 
ENDBRANCH  11  12
ENDBRANCH   2  11
TORSDOF 4
ENDMDL
MODEL 7
REMARK VINA RESULT:      -5.9      2.938      6.483
REMARK  Name = 
REMARK  6 active torsions:
REMARK  status: ('A' for Active; 'I' for Inactive)
REMARK    1  A    between atoms: C_1  and  N_2
REMARK    2  A    between atoms: N_2  and  C_3
REMARK    3  A    between atoms: N_2  and  C_11
REMARK    4  A    between atoms: C_3  and  C_4
REMARK    5  A    between atoms: N_9  and  C_10
REMARK    6  A    between atoms: C_14  and  C_15
REMARK                            x       y       z     vdW  Elec       q    Type
REMARK                         _______ _______ _______ _____ _____    ______ ____
ROOT
ATOM      1  C   UNL     1       6.649   5.454  19.280  0.00  0.00    +0.000 C 
ATOM      2  N   UNL     1       5.600   5.582  18.275  0.00  0.00    +0.000 N 
ENDROOT
BRANCH   2   3
ATOM      3  C   UNL     1       5.809   5.088  16.999  0.00  0.00    +0.000 A 
ATOM      4  C   UNL     1       6.961   5.412  16.266  0.00  0.00    +0.000 A 
ATOM      5  C   UNL     1       7.153   4.946  14.963  0.00  0.00    +0.000 A 
ATOM      6  C   UNL     1       6.179   4.135  14.411  0.00  0.00    +0.000 A 
ATOM      7  N   UNL     1       5.063   3.760  15.071  0.00  0.00    +0.000 NA
ATOM      8  C   UNL     1       4.913   4.240  16.333  0.00  0.00    +0.000 A 
BRANCH   6   9
ATOM      9  C   UNL     1       6.311   3.646  13.068  0.00  0.00    +0.000 C 
ATOM     10  N   UNL     1       6.382   3.214  11.993  0.00  0.00    +0.000 NA
ENDBRANCH   6   9
ENDBRANCH   2   3
BRANCH   2  11
ATOM     11  C   UNL     1       4.436   6.398  18.631  0.00  0.00    +0.000 C 
BRANCH  11  12
ATOM     12  C   UNL     1       3.381   5.702  19.440  0.00  0.00    +0.000 A 
ATOM     13  C   UNL     1       3.266   4.364  19.794  0.00  0.00    +0.000 A 
ATOM     14  C   UNL     1       2.159   4.251  20.650  0.00  0.00    +0.000 A 
ATOM     15 BR   UNL     1       1.611   2.660  21.469  0.00  0.00    +0.000 Br
ATOM     16  C   UNL     1       1.585   5.487  20.784  0.00  0.00    +0.000 A 
ATOM     17  N   UNL     1       2.306   6.359  20.008  0.00  0.00    +0.000 N 
ATOM     18  C   UNL     1       1.966   7.755  19.827  0.00  0.00    +0.000 C 
ENDBRANCH  11  12
ENDBRANCH   2  11
TORSDOF 4
ENDMDL
MODEL 8
REMARK VINA RESULT:      -5.8      1.929      3.733
REMARK  Name = 
REMARK  6 active torsions:
REMARK  status: ('A' for Active; 'I' for Inactive)
REMARK    1  A    between atoms: C_1  and  N_2
REMARK    2  A    between atoms: N_2  and  C_3
REMARK    3  A    between atoms: N_2  and  C_11
REMARK    4  A    between atoms: C_3  and  C_4
REMARK    5  A    between atoms: N_9  and  C_10
REMARK    6  A    between atoms: C_14  and  C_15
REMARK                            x       y       z     vdW  Elec       q    Type
REMARK                         _______ _______ _______ _____ _____    ______ ____
ROOT
ATOM      1  C   UNL     1       2.562   3.550  19.114  0.00  0.00    +0.000 C 
ATOM      2  N   UNL     1       3.443   4.705  19.247  0.00  0.00    +0.000 N 
ENDROOT
BRANCH   2   3
ATOM      3  C   UNL     1       2.915   5.983  19.167  0.00  0.00    +0.000 A 
ATOM      4  C   UNL     1       2.255   6.574  20.254  0.00  0.00    +0.000 A 
ATOM      5  C   UNL     1       1.687   7.847  20.160  0.00  0.00    +0.000 A 
ATOM      6  C   UNL     1       1.805   8.526  18.961  0.00  0.00    +0.000 A 
ATOM      7  N   UNL     1       2.451   8.028  17.887  0.00  0.00    +0.000 NA
ATOM      8  C   UNL     1       2.984   6.785  18.019  0.00  0.00    +0.000 A 
BRANCH   6   9
ATOM      9  C   UNL     1       1.220   9.826  18.799  0.00  0.00    +0.000 C 
ATOM     10  N   UNL     1       0.712  10.866  18.706  0.00  0.00    +0.000 NA
ENDBRANCH   6   9
ENDBRANCH   2   3
BRANCH   2  11
ATOM     11  C   UNL     1       4.883   4.440  19.282  0.00  0.00    +0.000 C 
BRANCH  11  12
ATOM     12  C   UNL     1       5.582   4.489  17.954  0.00  0.00    +0.000 A 
ATOM     13  C   UNL     1       5.208   3.954  16.729  0.00  0.00    +0.000 A 
ATOM     14  C   UNL     1       6.153   4.378  15.781  0.00  0.00    +0.000 A 
ATOM     15 BR   UNL     1       6.069   3.986  13.953  0.00  0.00    +0.000 Br
ATOM     16  C   UNL     1       7.108   5.123  16.421  0.00  0.00    +0.000 A 
ATOM     17  N   UNL     1       6.780   5.149  17.753  0.00  0.00    +0.000 N 
ATOM     18  C   UNL     1       7.590   5.780  18.774  0.00  0.00    +0.000 C 
ENDBRANCH  11  12
ENDBRANCH   2  11
TORSDOF 4
ENDMDL
MODEL 9
REMARK VINA RESULT:      -5.8      2.939      6.876
REMARK  Name = 
REMARK  6 active torsions:
REMARK  status: ('A' for Active; 'I' for Inactive)
REMARK    1  A    between atoms: C_1  and  N_2
REMARK    2  A    between atoms: N_2  and  C_3
REMARK    3  A    between atoms: N_2  and  C_11
REMARK    4  A    between atoms: C_3  and  C_4
REMARK    5  A    between atoms: N_9  and  C_10
REMARK    6  A    between atoms: C_14  and  C_15
REMARK                            x       y       z     vdW  Elec       q    Type
REMARK                         _______ _______ _______ _____ _____    ______ ____
ROOT
ATOM      1  C   UNL     1       5.257   3.688  19.117  0.00  0.00    +0.000 C 
ATOM      2  N   UNL     1       4.602   4.010  17.854  0.00  0.00    +0.000 N 
ENDROOT
BRANCH   2   3
ATOM      3  C   UNL     1       5.366   4.383  16.761  0.00  0.00    +0.000 A 
ATOM      4  C   UNL     1       5.118   3.865  15.481  0.00  0.00    +0.000 A 
ATOM      5  C   UNL     1       5.914   4.210  14.386  0.00  0.00    +0.000 A 
ATOM      6  C   UNL     1       6.956   5.095  14.591  0.00  0.00    +0.000 A 
ATOM      7  N   UNL     1       7.231   5.652  15.789  0.00  0.00    +0.000 NA
ATOM      8  C   UNL     1       6.436   5.286  16.827  0.00  0.00    +0.000 A 
BRANCH   6   9
ATOM      9  C   UNL     1       7.822   5.466  13.509  0.00  0.00    +0.000 C 
ATOM     10  N   UNL     1       8.514   5.817  12.645  0.00  0.00    +0.000 NA
ENDBRANCH   6   9
ENDBRANCH   2   3
BRANCH   2  11
ATOM     11  C   UNL     1       3.140   4.094  17.868  0.00  0.00    +0.000 C 
BRANCH  11  12
ATOM     12  C   UNL     1       2.547   4.887  18.996  0.00  0.00    +0.000 A 
ATOM     13  C   UNL     1       2.538   6.259  19.213  0.00  0.00    +0.000 A 
ATOM     14  C   UNL     1       1.756   6.496  20.354  0.00  0.00    +0.000 A 
ATOM     15 BR   UNL     1       1.366   8.195  21.037  0.00  0.00    +0.000 Br
ATOM     16  C   UNL     1       1.331   5.292  20.849  0.00  0.00    +0.000 A 
ATOM     17  N   UNL     1       1.854   4.313  20.043  0.00  0.00    +0.000 N 
ATOM     18  C   UNL     1       1.691   2.894  20.283  0.00  0.00    +0.000 C 
ENDBRANCH  11  12
ENDBRANCH   2  11
TORSDOF 4
ENDMDL
