MODEL 1
REMARK VINA RESULT:      -8.6      0.000      0.000
REMARK  Name = 
REMARK  12 active torsions:
REMARK  status: ('A' for Active; 'I' for Inactive)
REMARK    1  A    between atoms: C_2  and  C_3
REMARK    2  A    between atoms: C_3  and  C_4
REMARK    3  A    between atoms: C_4  and  C_5
REMARK    4  A    between atoms: C_8  and  O_9
REMARK    5  A    between atoms: C_10  and  O_11
REMARK    6  A    between atoms: N_13  and  CA_14
REMARK    7  A    between atoms: CA_14  and  C_15
REMARK    8  A    between atoms: CA_14  and  C_24
REMARK    9  A    between atoms: C_15  and  C_16
REMARK   10  A    between atoms: C_19  and  O_20
REMARK   11  A    between atoms: C_21  and  O_22
REMARK   12  A    between atoms: C_24  and  OXT_26
REMARK                            x       y       z     vdW  Elec       q    Type
REMARK                         _______ _______ _______ _____ _____    ______ ____
ROOT
ATOM      1  O   UNL     1       8.269   7.123  18.671  0.00  0.00    +0.000 OA
ATOM      2  C   UNL     1       7.853   7.937  17.856  0.00  0.00    +0.000 C 
ATOM      3  N   UNL     1       6.867   7.605  16.953  0.00  0.00    +0.000 N 
ATOM      4  H   UNL     1       6.593   8.278  16.243  0.00  0.00    +0.000 HD
ENDROOT
BRANCH   2   5
ATOM      5  C   UNL     1       8.232   9.402  17.893  0.00  0.00    +0.000 C 
BRANCH   5   6
ATOM      6  C   UNL     1       8.987   9.729  19.181  0.00  0.00    +0.000 C 
BRANCH   6   7
ATOM      7  C   UNL     1       9.863  10.949  19.032  0.00  0.00    +0.000 A 
ATOM      8  C   UNL     1      10.771  11.306  20.045  0.00  0.00    +0.000 A 
ATOM      9  C   UNL     1      11.584  12.436  19.910  0.00  0.00    +0.000 A 
ATOM     10  C   UNL     1      11.485  13.210  18.761  0.00  0.00    +0.000 A 
ATOM     11  C   UNL     1      10.585  12.864  17.758  0.00  0.00    +0.000 A 
ATOM     12  C   UNL     1       9.773  11.744  17.882  0.00  0.00    +0.000 A 
BRANCH  10  13
ATOM     13  O   UNL     1      12.251  14.326  18.570  0.00  0.00    +0.000 OA
ATOM     14  H   UNL     1      11.689  15.014  18.173  0.00  0.00    +0.000 HD
ENDBRANCH  10  13
BRANCH  11  15
ATOM     15  O   UNL     1      10.491  13.630  16.631  0.00  0.00    +0.000 OA
ATOM     16  H   UNL     1      10.522  12.984  15.896  0.00  0.00    +0.000 HD
ENDBRANCH  11  15
ENDBRANCH   6   7
ENDBRANCH   5   6
ENDBRANCH   2   5
BRANCH   3  17
ATOM     17  CA  UNL     1       6.353   6.225  16.836  0.00  0.00    +0.000 C 
BRANCH  17  18
ATOM     18  C   UNL     1       7.374   5.222  16.270  0.00  0.00    +0.000 C 
ATOM     19  O   UNL     1       7.885   4.319  16.908  0.00  0.00    +0.000 OA
BRANCH  18  20
ATOM     20  OXT UNL     1       7.596   5.351  14.935  0.00  0.00    +0.000 OA
ATOM     21  HXT UNL     1       7.806   4.487  14.536  0.00  0.00    +0.000 HD
ENDBRANCH  18  20
ENDBRANCH  17  18
BRANCH  17  22
ATOM     22  C   UNL     1       5.689   5.702  18.125  0.00  0.00    +0.000 C 
BRANCH  22  23
ATOM     23  C   UNL     1       4.401   4.918  18.009  0.00  0.00    +0.000 A 
ATOM     24  C   UNL     1       3.160   5.580  17.943  0.00  0.00    +0.000 A 
ATOM     25  C   UNL     1       1.955   4.871  17.982  0.00  0.00    +0.000 A 
ATOM     26  C   UNL     1       1.989   3.488  18.077  0.00  0.00    +0.000 A 
ATOM     27  C   UNL     1       3.208   2.820  18.111  0.00  0.00    +0.000 A 
ATOM     28  C   UNL     1       4.411   3.518  18.080  0.00  0.00    +0.000 A 
BRANCH  26  29
ATOM     29  O   UNL     1       0.850   2.736  18.166  0.00  0.00    +0.000 OA
ATOM     30  H   UNL     1       0.938   2.146  18.935  0.00  0.00    +0.000 HD
ENDBRANCH  26  29
BRANCH  27  31
ATOM     31  O   UNL     1       3.238   1.457  18.207  0.00  0.00    +0.000 OA
ATOM     32  H   UNL     1       2.589   1.153  17.540  0.00  0.00    +0.000 HD
ENDBRANCH  27  31
ENDBRANCH  22  23
ENDBRANCH  17  22
ENDBRANCH   3  17
TORSDOF 12
ENDMDL
MODEL 2
REMARK VINA RESULT:      -8.6      4.094      7.044
REMARK  Name = 
REMARK  12 active torsions:
REMARK  status: ('A' for Active; 'I' for Inactive)
REMARK    1  A    between atoms: C_2  and  C_3
REMARK    2  A    between atoms: C_3  and  C_4
REMARK    3  A    between atoms: C_4  and  C_5
REMARK    4  A    between atoms: C_8  and  O_9
REMARK    5  A    between atoms: C_10  and  O_11
REMARK    6  A    between atoms: N_13  and  CA_14
REMARK    7  A    between atoms: CA_14  and  C_15
REMARK    8  A    between atoms: CA_14  and  C_24
REMARK    9  A    between atoms: C_15  and  C_16
REMARK   10  A    between atoms: C_19  and  O_20
REMARK   11  A    between atoms: C_21  and  O_22
REMARK   12  A    between atoms: C_24  and  OXT_26
REMARK                            x       y       z     vdW  Elec       q    Type
REMARK                         _______ _______ _______ _____ _____    ______ ____
ROOT
ATOM      1  O   UNL     1       2.040   3.199  17.602  0.00  0.00    +0.000 OA
ATOM      2  C   UNL     1       3.129   3.546  18.046  0.00  0.00    +0.000 C 
ATOM      3  N   UNL     1       3.237   4.159  19.274  0.00  0.00    +0.000 N 
ATOM      4  H   UNL     1       4.142   4.500  19.584  0.00  0.00    +0.000 HD
ENDROOT
BRANCH   2   5
ATOM      5  C   UNL     1       4.440   3.165  17.392  0.00  0.00    +0.000 C 
BRANCH   5   6
ATOM      6  C   UNL     1       4.928   4.287  16.475  0.00  0.00    +0.000 C 
BRANCH   6   7
ATOM      7  C   UNL     1       5.930   5.184  17.160  0.00  0.00    +0.000 A 
ATOM      8  C   UNL     1       6.365   6.371  16.545  0.00  0.00    +0.000 A 
ATOM      9  C   UNL     1       7.294   7.205  17.176  0.00  0.00    +0.000 A 
ATOM     10  C   UNL     1       7.789   6.847  18.424  0.00  0.00    +0.000 A 
ATOM     11  C   UNL     1       7.365   5.671  19.035  0.00  0.00    +0.000 A 
ATOM     12  C   UNL     1       6.444   4.837  18.417  0.00  0.00    +0.000 A 
BRANCH  10  13
ATOM     13  O   UNL     1       8.698   7.619  19.092  0.00  0.00    +0.000 OA
ATOM     14  H   UNL     1       8.366   8.533  19.108  0.00  0.00    +0.000 HD
ENDBRANCH  10  13
BRANCH  11  15
ATOM     15  O   UNL     1       7.856   5.324  20.261  0.00  0.00    +0.000 OA
ATOM     16  H   UNL     1       8.325   6.126  20.571  0.00  0.00    +0.000 HD
ENDBRANCH  11  15
ENDBRANCH   6   7
ENDBRANCH   5   6
ENDBRANCH   2   5
BRANCH   3  17
ATOM     17  CA  UNL     1       2.046   4.542  20.060  0.00  0.00    +0.000 C 
BRANCH  17  18
ATOM     18  C   UNL     1       1.618   3.495  21.102  0.00  0.00    +0.000 C 
ATOM     19  O   UNL     1       2.162   3.328  22.180  0.00  0.00    +0.000 OA
BRANCH  18  20
ATOM     20  OXT UNL     1       0.488   2.815  20.774  0.00  0.00    +0.000 OA
ATOM     21  HXT UNL     1       0.650   2.221  20.021  0.00  0.00    +0.000 HD
ENDBRANCH  18  20
ENDBRANCH  17  18
BRANCH  17  22
ATOM     22  C   UNL     1       2.137   5.955  20.669  0.00  0.00    +0.000 C 
BRANCH  22  23
ATOM     23  C   UNL     1       1.985   7.150  19.755  0.00  0.00    +0.000 A 
ATOM     24  C   UNL     1       2.587   7.163  18.483  0.00  0.00    +0.000 A 
ATOM     25  C   UNL     1       2.577   8.314  17.686  0.00  0.00    +0.000 A 
ATOM     26  C   UNL     1       1.953   9.457  18.160  0.00  0.00    +0.000 A 
ATOM     27  C   UNL     1       1.327   9.448  19.402  0.00  0.00    +0.000 A 
ATOM     28  C   UNL     1       1.337   8.310  20.203  0.00  0.00    +0.000 A 
BRANCH  26  29
ATOM     29  O   UNL     1       1.946  10.629  17.454  0.00  0.00    +0.000 OA
ATOM     30  H   UNL     1       2.824  10.740  17.048  0.00  0.00    +0.000 HD
ENDBRANCH  26  29
BRANCH  27  31
ATOM     31  O   UNL     1       0.714  10.577  19.867  0.00  0.00    +0.000 OA
ATOM     32  H   UNL     1       0.465  11.068  19.056  0.00  0.00    +0.000 HD
ENDBRANCH  27  31
ENDBRANCH  22  23
ENDBRANCH  17  22
ENDBRANCH   3  17
TORSDOF 12
ENDMDL
MODEL 3
REMARK VINA RESULT:      -8.1      0.923      1.418
REMARK  Name = 
REMARK  12 active torsions:
REMARK  status: ('A' for Active; 'I' for Inactive)
REMARK    1  A    between atoms: C_2  and  C_3
REMARK    2  A    between atoms: C_3  and  C_4
REMARK    3  A    between atoms: C_4  and  C_5
REMARK    4  A    between atoms: C_8  and  O_9
REMARK    5  A    between atoms: C_10  and  O_11
REMARK    6  A    between atoms: N_13  and  CA_14
REMARK    7  A    between atoms: CA_14  and  C_15
REMARK    8  A    between atoms: CA_14  and  C_24
REMARK    9  A    between atoms: C_15  and  C_16
REMARK   10  A    between atoms: C_19  and  O_20
REMARK   11  A    between atoms: C_21  and  O_22
REMARK   12  A    between atoms: C_24  and  OXT_26
REMARK                            x       y       z     vdW  Elec       q    Type
REMARK                         _______ _______ _______ _____ _____    ______ ____
ROOT
ATOM      1  O   UNL     1       8.193   7.030  18.695  0.00  0.00    +0.000 OA
ATOM      2  C   UNL     1       7.830   7.829  17.840  0.00  0.00    +0.000 C 
ATOM      3  N   UNL     1       6.860   7.501  16.920  0.00  0.00    +0.000 N 
ATOM      4  H   UNL     1       6.631   8.157  16.179  0.00  0.00    +0.000 HD
ENDROOT
BRANCH   2   5
ATOM      5  C   UNL     1       8.260   9.280  17.839  0.00  0.00    +0.000 C 
BRANCH   5   6
ATOM      6  C   UNL     1       9.023   9.615  19.121  0.00  0.00    +0.000 C 
BRANCH   6   7
ATOM      7  C   UNL     1       9.596  11.011  19.092  0.00  0.00    +0.000 A 
ATOM      8  C   UNL     1      10.013  11.589  17.880  0.00  0.00    +0.000 A 
ATOM      9  C   UNL     1      10.545  12.882  17.849  0.00  0.00    +0.000 A 
ATOM     10  C   UNL     1      10.661  13.596  19.035  0.00  0.00    +0.000 A 
ATOM     11  C   UNL     1      10.254  13.028  20.238  0.00  0.00    +0.000 A 
ATOM     12  C   UNL     1       9.725  11.745  20.279  0.00  0.00    +0.000 A 
BRANCH  10  13
ATOM     13  O   UNL     1      11.172  14.863  19.072  0.00  0.00    +0.000 OA
ATOM     14  H   UNL     1      12.083  14.812  19.412  0.00  0.00    +0.000 HD
ENDBRANCH  10  13
BRANCH  11  15
ATOM     15  O   UNL     1      10.371  13.734  21.401  0.00  0.00    +0.000 OA
ATOM     16  H   UNL     1       9.655  13.385  21.970  0.00  0.00    +0.000 HD
ENDBRANCH  11  15
ENDBRANCH   6   7
ENDBRANCH   5   6
ENDBRANCH   2   5
BRANCH   3  17
ATOM     17  CA  UNL     1       6.300   6.136  16.834  0.00  0.00    +0.000 C 
BRANCH  17  18
ATOM     18  C   UNL     1       7.311   5.072  16.373  0.00  0.00    +0.000 C 
ATOM     19  O   UNL     1       7.896   4.303  17.116  0.00  0.00    +0.000 OA
BRANCH  18  20
ATOM     20  OXT UNL     1       7.434   4.972  15.023  0.00  0.00    +0.000 OA
ATOM     21  HXT UNL     1       6.571   4.787  14.612  0.00  0.00    +0.000 HD
ENDBRANCH  18  20
ENDBRANCH  17  18
BRANCH  17  22
ATOM     22  C   UNL     1       5.545   5.697  18.104  0.00  0.00    +0.000 C 
BRANCH  22  23
ATOM     23  C   UNL     1       4.436   4.678  17.972  0.00  0.00    +0.000 A 
ATOM     24  C   UNL     1       3.115   5.083  17.707  0.00  0.00    +0.000 A 
ATOM     25  C   UNL     1       2.056   4.168  17.724  0.00  0.00    +0.000 A 
ATOM     26  C   UNL     1       2.321   2.835  18.001  0.00  0.00    +0.000 A 
ATOM     27  C   UNL     1       3.627   2.416  18.234  0.00  0.00    +0.000 A 
ATOM     28  C   UNL     1       4.684   3.321  18.224  0.00  0.00    +0.000 A 
BRANCH  26  29
ATOM     29  O   UNL     1       1.329   1.897  18.079  0.00  0.00    +0.000 OA
ATOM     30  H   UNL     1       1.582   1.249  18.761  0.00  0.00    +0.000 HD
ENDBRANCH  26  29
BRANCH  27  31
ATOM     31  O   UNL     1       3.884   1.102  18.507  0.00  0.00    +0.000 OA
ATOM     32  H   UNL     1       3.097   0.800  19.005  0.00  0.00    +0.000 HD
ENDBRANCH  27  31
ENDBRANCH  22  23
ENDBRANCH  17  22
ENDBRANCH   3  17
TORSDOF 12
ENDMDL
MODEL 4
REMARK VINA RESULT:      -8.1      5.300      6.482
REMARK  Name = 
REMARK  12 active torsions:
REMARK  status: ('A' for Active; 'I' for Inactive)
REMARK    1  A    between atoms: C_2  and  C_3
REMARK    2  A    between atoms: C_3  and  C_4
REMARK    3  A    between atoms: C_4  and  C_5
REMARK    4  A    between atoms: C_8  and  O_9
REMARK    5  A    between atoms: C_10  and  O_11
REMARK    6  A    between atoms: N_13  and  CA_14
REMARK    7  A    between atoms: CA_14  and  C_15
REMARK    8  A    between atoms: CA_14  and  C_24
REMARK    9  A    between atoms: C_15  and  C_16
REMARK   10  A    between atoms: C_19  and  O_20
REMARK   11  A    between atoms: C_21  and  O_22
REMARK   12  A    between atoms: C_24  and  OXT_26
REMARK                            x       y       z     vdW  Elec       q    Type
REMARK                         _______ _______ _______ _____ _____    ______ ____
ROOT
ATOM      1  O   UNL     1       5.323   6.905  15.645  0.00  0.00    +0.000 OA
ATOM      2  C   UNL     1       4.653   6.687  16.648  0.00  0.00    +0.000 C 
ATOM      3  N   UNL     1       4.714   5.475  17.299  0.00  0.00    +0.000 N 
ATOM      4  H   UNL     1       4.094   5.298  18.084  0.00  0.00    +0.000 HD
ENDROOT
BRANCH   2   5
ATOM      5  C   UNL     1       3.866   7.767  17.359  0.00  0.00    +0.000 C 
BRANCH   5   6
ATOM      6  C   UNL     1       2.777   7.149  18.236  0.00  0.00    +0.000 C 
BRANCH   6   7
ATOM      7  C   UNL     1       1.906   8.198  18.883  0.00  0.00    +0.000 A 
ATOM      8  C   UNL     1       1.623   8.142  20.260  0.00  0.00    +0.000 A 
ATOM      9  C   UNL     1       0.816   9.113  20.864  0.00  0.00    +0.000 A 
ATOM     10  C   UNL     1       0.291  10.138  20.087  0.00  0.00    +0.000 A 
ATOM     11  C   UNL     1       0.565  10.195  18.724  0.00  0.00    +0.000 A 
ATOM     12  C   UNL     1       1.364   9.237  18.115  0.00  0.00    +0.000 A 
BRANCH  10  13
ATOM     13  O   UNL     1      -0.504  11.115  20.617  0.00  0.00    +0.000 OA
ATOM     14  H   UNL     1      -1.302  11.187  20.066  0.00  0.00    +0.000 HD
ENDBRANCH  10  13
BRANCH  11  15
ATOM     15  O   UNL     1       0.045  11.205  17.965  0.00  0.00    +0.000 OA
ATOM     16  H   UNL     1      -0.350  10.750  17.194  0.00  0.00    +0.000 HD
ENDBRANCH  11  15
ENDBRANCH   6   7
ENDBRANCH   5   6
ENDBRANCH   2   5
BRANCH   3  17
ATOM     17  CA  UNL     1       5.488   4.339  16.757  0.00  0.00    +0.000 C 
BRANCH  17  18
ATOM     18  C   UNL     1       6.968   4.332  17.177  0.00  0.00    +0.000 C 
ATOM     19  O   UNL     1       7.904   4.527  16.421  0.00  0.00    +0.000 OA
BRANCH  18  20
ATOM     20  OXT UNL     1       7.164   4.193  18.514  0.00  0.00    +0.000 OA
ATOM     21  HXT UNL     1       7.958   4.681  18.798  0.00  0.00    +0.000 HD
ENDBRANCH  18  20
ENDBRANCH  17  18
BRANCH  17  22
ATOM     22  C   UNL     1       4.819   2.970  16.987  0.00  0.00    +0.000 C 
BRANCH  22  23
ATOM     23  C   UNL     1       3.675   2.879  17.972  0.00  0.00    +0.000 A 
ATOM     24  C   UNL     1       2.353   3.140  17.565  0.00  0.00    +0.000 A 
ATOM     25  C   UNL     1       1.306   3.201  18.492  0.00  0.00    +0.000 A 
ATOM     26  C   UNL     1       1.580   2.991  19.835  0.00  0.00    +0.000 A 
ATOM     27  C   UNL     1       2.877   2.701  20.246  0.00  0.00    +0.000 A 
ATOM     28  C   UNL     1       3.925   2.644  19.332  0.00  0.00    +0.000 A 
BRANCH  26  29
ATOM     29  O   UNL     1       0.614   3.081  20.798  0.00  0.00    +0.000 OA
ATOM     30  H   UNL     1       0.942   3.673  21.499  0.00  0.00    +0.000 HD
ENDBRANCH  26  29
BRANCH  27  31
ATOM     31  O   UNL     1       3.144   2.495  21.570  0.00  0.00    +0.000 OA
ATOM     32  H   UNL     1       2.873   1.568  21.730  0.00  0.00    +0.000 HD
ENDBRANCH  27  31
ENDBRANCH  22  23
ENDBRANCH  17  22
ENDBRANCH   3  17
TORSDOF 12
ENDMDL
MODEL 5
REMARK VINA RESULT:      -8.0      0.997      1.811
REMARK  Name = 
REMARK  12 active torsions:
REMARK  status: ('A' for Active; 'I' for Inactive)
REMARK    1  A    between atoms: C_2  and  C_3
REMARK    2  A    between atoms: C_3  and  C_4
REMARK    3  A    between atoms: C_4  and  C_5
REMARK    4  A    between atoms: C_8  and  O_9
REMARK    5  A    between atoms: C_10  and  O_11
REMARK    6  A    between atoms: N_13  and  CA_14
REMARK    7  A    between atoms: CA_14  and  C_15
REMARK    8  A    between atoms: CA_14  and  C_24
REMARK    9  A    between atoms: C_15  and  C_16
REMARK   10  A    between atoms: C_19  and  O_20
REMARK   11  A    between atoms: C_21  and  O_22
REMARK   12  A    between atoms: C_24  and  OXT_26
REMARK                            x       y       z     vdW  Elec       q    Type
REMARK                         _______ _______ _______ _____ _____    ______ ____
ROOT
ATOM      1  O   UNL     1       8.188   6.898  18.763  0.00  0.00    +0.000 OA
ATOM      2  C   UNL     1       7.795   7.670  17.896  0.00  0.00    +0.000 C 
ATOM      3  N   UNL     1       6.756   7.334  17.056  0.00  0.00    +0.000 N 
ATOM      4  H   UNL     1       6.501   7.963  16.301  0.00  0.00    +0.000 HD
ENDROOT
BRANCH   2   5
ATOM      5  C   UNL     1       8.272   9.103  17.797  0.00  0.00    +0.000 C 
BRANCH   5   6
ATOM      6  C   UNL     1       8.954   9.533  19.096  0.00  0.00    +0.000 C 
BRANCH   6   7
ATOM      7  C   UNL     1       9.638  10.871  18.961  0.00  0.00    +0.000 A 
ATOM      8  C   UNL     1      10.132  11.301  17.717  0.00  0.00    +0.000 A 
ATOM      9  C   UNL     1      10.767  12.541  17.588  0.00  0.00    +0.000 A 
ATOM     10  C   UNL     1      10.909  13.349  18.709  0.00  0.00    +0.000 A 
ATOM     11  C   UNL     1      10.427  12.927  19.944  0.00  0.00    +0.000 A 
ATOM     12  C   UNL     1       9.795  11.698  20.082  0.00  0.00    +0.000 A 
BRANCH  10  13
ATOM     13  O   UNL     1      11.520  14.571  18.650  0.00  0.00    +0.000 OA
ATOM     14  H   UNL     1      11.607  14.910  19.557  0.00  0.00    +0.000 HD
ENDBRANCH  10  13
BRANCH  11  15
ATOM     15  O   UNL     1      10.571  13.726  21.043  0.00  0.00    +0.000 OA
ATOM     16  H   UNL     1      11.293  14.341  20.802  0.00  0.00    +0.000 HD
ENDBRANCH  11  15
ENDBRANCH   6   7
ENDBRANCH   5   6
ENDBRANCH   2   5
BRANCH   3  17
ATOM     17  CA  UNL     1       6.148   5.988  17.073  0.00  0.00    +0.000 C 
BRANCH  17  18
ATOM     18  C   UNL     1       7.001   4.906  16.388  0.00  0.00    +0.000 C 
ATOM     19  O   UNL     1       7.975   4.373  16.888  0.00  0.00    +0.000 OA
BRANCH  18  20
ATOM     20  OXT UNL     1       6.514   4.494  15.188  0.00  0.00    +0.000 OA
ATOM     21  HXT UNL     1       6.956   4.962  14.458  0.00  0.00    +0.000 HD
ENDBRANCH  18  20
ENDBRANCH  17  18
BRANCH  17  22
ATOM     22  C   UNL     1       5.671   5.543  18.470  0.00  0.00    +0.000 C 
BRANCH  22  23
ATOM     23  C   UNL     1       4.523   4.563  18.566  0.00  0.00    +0.000 A 
ATOM     24  C   UNL     1       4.688   3.323  19.211  0.00  0.00    +0.000 A 
ATOM     25  C   UNL     1       3.683   2.349  19.182  0.00  0.00    +0.000 A 
ATOM     26  C   UNL     1       2.499   2.621  18.512  0.00  0.00    +0.000 A 
ATOM     27  C   UNL     1       2.311   3.855  17.898  0.00  0.00    +0.000 A 
ATOM     28  C   UNL     1       3.308   4.826  17.917  0.00  0.00    +0.000 A 
BRANCH  26  29
ATOM     29  O   UNL     1       1.495   1.699  18.406  0.00  0.00    +0.000 OA
ATOM     30  H   UNL     1       0.686   2.091  18.781  0.00  0.00    +0.000 HD
ENDBRANCH  26  29
BRANCH  27  31
ATOM     31  O   UNL     1       1.144   4.119  17.238  0.00  0.00    +0.000 OA
ATOM     32  H   UNL     1       1.128   5.095  17.156  0.00  0.00    +0.000 HD
ENDBRANCH  27  31
ENDBRANCH  22  23
ENDBRANCH  17  22
ENDBRANCH   3  17
TORSDOF 12
ENDMDL
MODEL 6
REMARK VINA RESULT:      -8.0      5.321      6.717
REMARK  Name = 
REMARK  12 active torsions:
REMARK  status: ('A' for Active; 'I' for Inactive)
REMARK    1  A    between atoms: C_2  and  C_3
REMARK    2  A    between atoms: C_3  and  C_4
REMARK    3  A    between atoms: C_4  and  C_5
REMARK    4  A    between atoms: C_8  and  O_9
REMARK    5  A    between atoms: C_10  and  O_11
REMARK    6  A    between atoms: N_13  and  CA_14
REMARK    7  A    between atoms: CA_14  and  C_15
REMARK    8  A    between atoms: CA_14  and  C_24
REMARK    9  A    between atoms: C_15  and  C_16
REMARK   10  A    between atoms: C_19  and  O_20
REMARK   11  A    between atoms: C_21  and  O_22
REMARK   12  A    between atoms: C_24  and  OXT_26
REMARK                            x       y       z     vdW  Elec       q    Type
REMARK                         _______ _______ _______ _____ _____    ______ ____
ROOT
ATOM      1  O   UNL     1       5.013   6.892  15.604  0.00  0.00    +0.000 OA
ATOM      2  C   UNL     1       4.527   6.790  16.725  0.00  0.00    +0.000 C 
ATOM      3  N   UNL     1       4.843   5.731  17.547  0.00  0.00    +0.000 N 
ATOM      4  H   UNL     1       4.370   5.634  18.440  0.00  0.00    +0.000 HD
ENDROOT
BRANCH   2   5
ATOM      5  C   UNL     1       3.710   7.890  17.368  0.00  0.00    +0.000 C 
BRANCH   5   6
ATOM      6  C   UNL     1       2.756   7.310  18.412  0.00  0.00    +0.000 C 
BRANCH   6   7
ATOM      7  C   UNL     1       1.801   8.349  18.947  0.00  0.00    +0.000 A 
ATOM      8  C   UNL     1       1.245   9.317  18.093  0.00  0.00    +0.000 A 
ATOM      9  C   UNL     1       0.359  10.281  18.586  0.00  0.00    +0.000 A 
ATOM     10  C   UNL     1       0.034  10.276  19.936  0.00  0.00    +0.000 A 
ATOM     11  C   UNL     1       0.585   9.323  20.787  0.00  0.00    +0.000 A 
ATOM     12  C   UNL     1       1.465   8.362  20.308  0.00  0.00    +0.000 A 
BRANCH  10  13
ATOM     13  O   UNL     1      -0.824  11.192  20.479  0.00  0.00    +0.000 OA
ATOM     14  H   UNL     1      -1.565  11.316  19.860  0.00  0.00    +0.000 HD
ENDBRANCH  10  13
BRANCH  11  15
ATOM     15  O   UNL     1       0.262   9.324  22.114  0.00  0.00    +0.000 OA
ATOM     16  H   UNL     1       0.343  10.262  22.383  0.00  0.00    +0.000 HD
ENDBRANCH  11  15
ENDBRANCH   6   7
ENDBRANCH   5   6
ENDBRANCH   2   5
BRANCH   3  17
ATOM     17  CA  UNL     1       5.679   4.606  17.079  0.00  0.00    +0.000 C 
BRANCH  17  18
ATOM     18  C   UNL     1       7.056   4.522  17.760  0.00  0.00    +0.000 C 
ATOM     19  O   UNL     1       8.096   4.248  17.188  0.00  0.00    +0.000 OA
BRANCH  18  20
ATOM     20  OXT UNL     1       7.051   4.892  19.068  0.00  0.00    +0.000 OA
ATOM     21  HXT UNL     1       6.790   5.825  19.161  0.00  0.00    +0.000 HD
ENDBRANCH  18  20
ENDBRANCH  17  18
BRANCH  17  22
ATOM     22  C   UNL     1       4.949   3.248  17.091  0.00  0.00    +0.000 C 
BRANCH  22  23
ATOM     23  C   UNL     1       3.770   3.068  18.021  0.00  0.00    +0.000 A 
ATOM     24  C   UNL     1       2.457   3.297  17.569  0.00  0.00    +0.000 A 
ATOM     25  C   UNL     1       1.370   3.275  18.450  0.00  0.00    +0.000 A 
ATOM     26  C   UNL     1       1.596   3.012  19.793  0.00  0.00    +0.000 A 
ATOM     27  C   UNL     1       2.885   2.752  20.246  0.00  0.00    +0.000 A 
ATOM     28  C   UNL     1       3.972   2.779  19.378  0.00  0.00    +0.000 A 
BRANCH  26  29
ATOM     29  O   UNL     1       0.587   3.021  20.716  0.00  0.00    +0.000 OA
ATOM     30  H   UNL     1       0.602   2.167  21.185  0.00  0.00    +0.000 HD
ENDBRANCH  26  29
BRANCH  27  31
ATOM     31  O   UNL     1       3.105   2.495  21.571  0.00  0.00    +0.000 OA
ATOM     32  H   UNL     1       2.433   1.820  21.800  0.00  0.00    +0.000 HD
ENDBRANCH  27  31
ENDBRANCH  22  23
ENDBRANCH  17  22
ENDBRANCH   3  17
TORSDOF 12
ENDMDL
MODEL 7
REMARK VINA RESULT:      -8.0      4.841      8.306
REMARK  Name = 
REMARK  12 active torsions:
REMARK  status: ('A' for Active; 'I' for Inactive)
REMARK    1  A    between atoms: C_2  and  C_3
REMARK    2  A    between atoms: C_3  and  C_4
REMARK    3  A    between atoms: C_4  and  C_5
REMARK    4  A    between atoms: C_8  and  O_9
REMARK    5  A    between atoms: C_10  and  O_11
REMARK    6  A    between atoms: N_13  and  CA_14
REMARK    7  A    between atoms: CA_14  and  C_15
REMARK    8  A    between atoms: CA_14  and  C_24
REMARK    9  A    between atoms: C_15  and  C_16
REMARK   10  A    between atoms: C_19  and  O_20
REMARK   11  A    between atoms: C_21  and  O_22
REMARK   12  A    between atoms: C_24  and  OXT_26
REMARK                            x       y       z     vdW  Elec       q    Type
REMARK                         _______ _______ _______ _____ _____    ______ ____
ROOT
ATOM      1  O   UNL     1       2.181   7.498  19.998  0.00  0.00    +0.000 OA
ATOM      2  C   UNL     1       2.301   7.415  18.781  0.00  0.00    +0.000 C 
ATOM      3  N   UNL     1       2.480   6.197  18.162  0.00  0.00    +0.000 N 
ATOM      4  H   UNL     1       2.648   6.167  17.161  0.00  0.00    +0.000 HD
ENDROOT
BRANCH   2   5
ATOM      5  C   UNL     1       2.072   8.588  17.853  0.00  0.00    +0.000 C 
BRANCH   5   6
ATOM      6  C   UNL     1       1.805   9.862  18.653  0.00  0.00    +0.000 C 
BRANCH   6   7
ATOM      7  C   UNL     1       0.439  10.436  18.367  0.00  0.00    +0.000 A 
ATOM      8  C   UNL     1      -0.544   9.660  17.727  0.00  0.00    +0.000 A 
ATOM      9  C   UNL     1      -1.812  10.189  17.460  0.00  0.00    +0.000 A 
ATOM     10  C   UNL     1      -2.093  11.498  17.832  0.00  0.00    +0.000 A 
ATOM     11  C   UNL     1      -1.122  12.271  18.461  0.00  0.00    +0.000 A 
ATOM     12  C   UNL     1       0.138  11.756  18.731  0.00  0.00    +0.000 A 
BRANCH  10  13
ATOM     13  O   UNL     1      -3.311  12.072  17.599  0.00  0.00    +0.000 OA
ATOM     14  H   UNL     1      -3.253  12.577  16.769  0.00  0.00    +0.000 HD
ENDBRANCH  10  13
BRANCH  11  15
ATOM     15  O   UNL     1      -1.404  13.558  18.824  0.00  0.00    +0.000 OA
ATOM     16  H   UNL     1      -2.378  13.624  18.746  0.00  0.00    +0.000 HD
ENDBRANCH  11  15
ENDBRANCH   6   7
ENDBRANCH   5   6
ENDBRANCH   2   5
BRANCH   3  17
ATOM     17  CA  UNL     1       2.662   4.952  18.935  0.00  0.00    +0.000 C 
BRANCH  17  18
ATOM     18  C   UNL     1       1.601   3.875  18.647  0.00  0.00    +0.000 C 
ATOM     19  O   UNL     1       0.914   3.335  19.497  0.00  0.00    +0.000 OA
BRANCH  18  20
ATOM     20  OXT UNL     1       1.400   3.634  17.325  0.00  0.00    +0.000 OA
ATOM     21  HXT UNL     1       2.250   3.555  16.856  0.00  0.00    +0.000 HD
ENDBRANCH  18  20
ENDBRANCH  17  18
BRANCH  17  22
ATOM     22  C   UNL     1       4.093   4.382  18.860  0.00  0.00    +0.000 C 
BRANCH  22  23
ATOM     23  C   UNL     1       4.940   4.709  17.650  0.00  0.00    +0.000 A 
ATOM     24  C   UNL     1       4.873   3.917  16.490  0.00  0.00    +0.000 A 
ATOM     25  C   UNL     1       5.752   4.118  15.419  0.00  0.00    +0.000 A 
ATOM     26  C   UNL     1       6.699   5.127  15.506  0.00  0.00    +0.000 A 
ATOM     27  C   UNL     1       6.755   5.938  16.635  0.00  0.00    +0.000 A 
ATOM     28  C   UNL     1       5.890   5.740  17.706  0.00  0.00    +0.000 A 
BRANCH  26  29
ATOM     29  O   UNL     1       7.618   5.349  14.517  0.00  0.00    +0.000 OA
ATOM     30  H   UNL     1       7.919   6.273  14.589  0.00  0.00    +0.000 HD
ENDBRANCH  26  29
BRANCH  27  31
ATOM     31  O   UNL     1       7.692   6.930  16.717  0.00  0.00    +0.000 OA
ATOM     32  H   UNL     1       8.530   6.457  16.898  0.00  0.00    +0.000 HD
ENDBRANCH  27  31
ENDBRANCH  22  23
ENDBRANCH  17  22
ENDBRANCH   3  17
TORSDOF 12
ENDMDL
MODEL 8
REMARK VINA RESULT:      -8.0      2.852      3.663
REMARK  Name = 
REMARK  12 active torsions:
REMARK  status: ('A' for Active; 'I' for Inactive)
REMARK    1  A    between atoms: C_2  and  C_3
REMARK    2  A    between atoms: C_3  and  C_4
REMARK    3  A    between atoms: C_4  and  C_5
REMARK    4  A    between atoms: C_8  and  O_9
REMARK    5  A    between atoms: C_10  and  O_11
REMARK    6  A    between atoms: N_13  and  CA_14
REMARK    7  A    between atoms: CA_14  and  C_15
REMARK    8  A    between atoms: CA_14  and  C_24
REMARK    9  A    between atoms: C_15  and  C_16
REMARK   10  A    between atoms: C_19  and  O_20
REMARK   11  A    between atoms: C_21  and  O_22
REMARK   12  A    between atoms: C_24  and  OXT_26
REMARK                            x       y       z     vdW  Elec       q    Type
REMARK                         _______ _______ _______ _____ _____    ______ ____
ROOT
ATOM      1  O   UNL     1       7.874   6.727  16.508  0.00  0.00    +0.000 OA
ATOM      2  C   UNL     1       7.191   7.486  17.186  0.00  0.00    +0.000 C 
ATOM      3  N   UNL     1       6.028   7.056  17.786  0.00  0.00    +0.000 N 
ATOM      4  H   UNL     1       5.445   7.725  18.281  0.00  0.00    +0.000 HD
ENDROOT
BRANCH   2   5
ATOM      5  C   UNL     1       7.649   8.874  17.578  0.00  0.00    +0.000 C 
BRANCH   5   6
ATOM      6  C   UNL     1       8.707   8.799  18.679  0.00  0.00    +0.000 C 
BRANCH   6   7
ATOM      7  C   UNL     1       9.253  10.160  19.034  0.00  0.00    +0.000 A 
ATOM      8  C   UNL     1       9.715  11.030  18.031  0.00  0.00    +0.000 A 
ATOM      9  C   UNL     1      10.222  12.292  18.356  0.00  0.00    +0.000 A 
ATOM     10  C   UNL     1      10.270  12.681  19.689  0.00  0.00    +0.000 A 
ATOM     11  C   UNL     1       9.818  11.822  20.686  0.00  0.00    +0.000 A 
ATOM     12  C   UNL     1       9.313  10.568  20.374  0.00  0.00    +0.000 A 
BRANCH  10  13
ATOM     13  O   UNL     1      10.754  13.901  20.072  0.00  0.00    +0.000 OA
ATOM     14  H   UNL     1      10.935  14.420  19.269  0.00  0.00    +0.000 HD
ENDBRANCH  10  13
BRANCH  11  15
ATOM     15  O   UNL     1       9.868  12.210  21.995  0.00  0.00    +0.000 OA
ATOM     16  H   UNL     1      10.816  12.147  22.231  0.00  0.00    +0.000 HD
ENDBRANCH  11  15
ENDBRANCH   6   7
ENDBRANCH   5   6
ENDBRANCH   2   5
BRANCH   3  17
ATOM     17  CA  UNL     1       5.481   5.705  17.544  0.00  0.00    +0.000 C 
BRANCH  17  18
ATOM     18  C   UNL     1       6.102   4.610  18.430  0.00  0.00    +0.000 C 
ATOM     19  O   UNL     1       5.528   4.057  19.352  0.00  0.00    +0.000 OA
BRANCH  18  20
ATOM     20  OXT UNL     1       7.339   4.211  18.034  0.00  0.00    +0.000 OA
ATOM     21  HXT UNL     1       7.489   3.277  18.262  0.00  0.00    +0.000 HD
ENDBRANCH  18  20
ENDBRANCH  17  18
BRANCH  17  22
ATOM     22  C   UNL     1       3.941   5.650  17.558  0.00  0.00    +0.000 C 
BRANCH  22  23
ATOM     23  C   UNL     1       3.182   6.768  18.237  0.00  0.00    +0.000 A 
ATOM     24  C   UNL     1       2.699   6.614  19.550  0.00  0.00    +0.000 A 
ATOM     25  C   UNL     1       1.874   7.580  20.139  0.00  0.00    +0.000 A 
ATOM     26  C   UNL     1       1.537   8.712  19.413  0.00  0.00    +0.000 A 
ATOM     27  C   UNL     1       2.035   8.891  18.126  0.00  0.00    +0.000 A 
ATOM     28  C   UNL     1       2.850   7.933  17.531  0.00  0.00    +0.000 A 
BRANCH  26  29
ATOM     29  O   UNL     1       0.699   9.673  19.909  0.00  0.00    +0.000 OA
ATOM     30  H   UNL     1       0.772  10.459  19.339  0.00  0.00    +0.000 HD
ENDBRANCH  26  29
BRANCH  27  31
ATOM     31  O   UNL     1       1.700  10.008  17.413  0.00  0.00    +0.000 OA
ATOM     32  H   UNL     1       2.553  10.334  17.060  0.00  0.00    +0.000 HD
ENDBRANCH  27  31
ENDBRANCH  22  23
ENDBRANCH  17  22
ENDBRANCH   3  17
TORSDOF 12
ENDMDL
MODEL 9
REMARK VINA RESULT:      -8.0      4.633      7.584
REMARK  Name = 
REMARK  12 active torsions:
REMARK  status: ('A' for Active; 'I' for Inactive)
REMARK    1  A    between atoms: C_2  and  C_3
REMARK    2  A    between atoms: C_3  and  C_4
REMARK    3  A    between atoms: C_4  and  C_5
REMARK    4  A    between atoms: C_8  and  O_9
REMARK    5  A    between atoms: C_10  and  O_11
REMARK    6  A    between atoms: N_13  and  CA_14
REMARK    7  A    between atoms: CA_14  and  C_15
REMARK    8  A    between atoms: CA_14  and  C_24
REMARK    9  A    between atoms: C_15  and  C_16
REMARK   10  A    between atoms: C_19  and  O_20
REMARK   11  A    between atoms: C_21  and  O_22
REMARK   12  A    between atoms: C_24  and  OXT_26
REMARK                            x       y       z     vdW  Elec       q    Type
REMARK                         _______ _______ _______ _____ _____    ______ ____
ROOT
ATOM      1  O   UNL     1       0.875   2.847  18.245  0.00  0.00    +0.000 OA
ATOM      2  C   UNL     1       1.917   3.468  18.067  0.00  0.00    +0.000 C 
ATOM      3  N   UNL     1       2.400   4.341  19.017  0.00  0.00    +0.000 N 
ATOM      4  H   UNL     1       3.225   4.895  18.812  0.00  0.00    +0.000 HD
ENDROOT
BRANCH   2   5
ATOM      5  C   UNL     1       2.847   3.194  16.905  0.00  0.00    +0.000 C 
BRANCH   5   6
ATOM      6  C   UNL     1       4.251   2.861  17.408  0.00  0.00    +0.000 C 
BRANCH   6   7
ATOM      7  C   UNL     1       5.212   4.009  17.211  0.00  0.00    +0.000 A 
ATOM      8  C   UNL     1       5.397   4.968  18.222  0.00  0.00    +0.000 A 
ATOM      9  C   UNL     1       6.286   6.033  18.043  0.00  0.00    +0.000 A 
ATOM     10  C   UNL     1       6.989   6.137  16.849  0.00  0.00    +0.000 A 
ATOM     11  C   UNL     1       6.806   5.193  15.844  0.00  0.00    +0.000 A 
ATOM     12  C   UNL     1       5.925   4.132  16.011  0.00  0.00    +0.000 A 
BRANCH  10  13
ATOM     13  O   UNL     1       7.871   7.154  16.613  0.00  0.00    +0.000 OA
ATOM     14  H   UNL     1       8.616   6.795  16.099  0.00  0.00    +0.000 HD
ENDBRANCH  10  13
BRANCH  11  15
ATOM     15  O   UNL     1       7.498   5.301  14.671  0.00  0.00    +0.000 OA
ATOM     16  H   UNL     1       6.828   5.138  13.978  0.00  0.00    +0.000 HD
ENDBRANCH  11  15
ENDBRANCH   6   7
ENDBRANCH   5   6
ENDBRANCH   2   5
BRANCH   3  17
ATOM     17  CA  UNL     1       1.630   4.667  20.235  0.00  0.00    +0.000 C 
BRANCH  17  18
ATOM     18  C   UNL     1       1.711   3.594  21.335  0.00  0.00    +0.000 C 
ATOM     19  O   UNL     1       2.523   3.593  22.243  0.00  0.00    +0.000 OA
BRANCH  18  20
ATOM     20  OXT UNL     1       0.714   2.672  21.284  0.00  0.00    +0.000 OA
ATOM     21  HXT UNL     1       1.026   1.850  20.865  0.00  0.00    +0.000 HD
ENDBRANCH  18  20
ENDBRANCH  17  18
BRANCH  17  22
ATOM     22  C   UNL     1       1.917   6.078  20.788  0.00  0.00    +0.000 C 
BRANCH  22  23
ATOM     23  C   UNL     1       1.831   7.257  19.845  0.00  0.00    +0.000 A 
ATOM     24  C   UNL     1       2.474   7.225  18.594  0.00  0.00    +0.000 A 
ATOM     25  C   UNL     1       2.525   8.358  17.773  0.00  0.00    +0.000 A 
ATOM     26  C   UNL     1       1.919   9.529  18.203  0.00  0.00    +0.000 A 
ATOM     27  C   UNL     1       1.252   9.564  19.423  0.00  0.00    +0.000 A 
ATOM     28  C   UNL     1       1.203   8.444  20.247  0.00  0.00    +0.000 A 
BRANCH  26  29
ATOM     29  O   UNL     1       1.970  10.685  17.473  0.00  0.00    +0.000 OA
ATOM     30  H   UNL     1       2.679  11.241  17.840  0.00  0.00    +0.000 HD
ENDBRANCH  26  29
BRANCH  27  31
ATOM     31  O   UNL     1       0.657  10.720  19.843  0.00  0.00    +0.000 OA
ATOM     32  H   UNL     1       0.995  10.849  20.753  0.00  0.00    +0.000 HD
ENDBRANCH  27  31
ENDBRANCH  22  23
ENDBRANCH  17  22
ENDBRANCH   3  17
TORSDOF 12
ENDMDL
