MODEL 1
REMARK VINA RESULT:      -8.3      0.000      0.000
REMARK  Name = 
REMARK  9 active torsions:
REMARK  status: ('A' for Active; 'I' for Inactive)
REMARK    1  A    between atoms: C_1  and  O_2
REMARK    2  A    between atoms: O_2  and  N_3
REMARK    3  A    between atoms: C_4  and  C_5
REMARK    4  A    between atoms: C_4  and  C_15
REMARK    5  A    between atoms: C_5  and  S_6
REMARK    6  A    between atoms: S_6  and  C_7
REMARK    7  A    between atoms: N_11  and  C_12
REMARK    8  A    between atoms: C_12  and  C_13
REMARK    9  A    between atoms: C_12  and  C_14
REMARK                            x       y       z     vdW  Elec       q    Type
REMARK                         _______ _______ _______ _____ _____    ______ ____
ROOT
ATOM      1  N   UNL     1       6.157   7.091  17.469  0.00  0.00    +0.000 NA
ATOM      2  C   UNL     1       5.937   5.807  17.464  0.00  0.00    +0.000 C 
ENDROOT
BRANCH   2   3
ATOM      3  C   UNL     1       4.661   5.343  18.106  0.00  0.00    +0.000 A 
ATOM      4  C   UNL     1       3.446   5.905  17.679  0.00  0.00    +0.000 A 
ATOM      5  C   UNL     1       2.236   5.485  18.228  0.00  0.00    +0.000 A 
ATOM      6  C   UNL     1       2.231   4.503  19.217  0.00  0.00    +0.000 A 
ATOM      7  C   UNL     1       3.437   3.938  19.643  0.00  0.00    +0.000 A 
ATOM      8  C   UNL     1       4.651   4.368  19.105  0.00  0.00    +0.000 A 
ATOM      9  O   UNL     1       3.505   2.952  20.598  0.00  0.00    +0.000 OA
ATOM     10  C   UNL     1       2.228   2.342  20.809  0.00  0.00    +0.000 C 
ATOM     11  C   UNL     1       1.140   3.397  20.934  0.00  0.00    +0.000 C 
ATOM     12  O   UNL     1       1.008   4.138  19.714  0.00  0.00    +0.000 OA
ENDBRANCH   2   3
BRANCH   1  14
ATOM     13  C   UNL     1       8.031   8.366  17.745  0.00  0.00    +0.000 C 
ATOM     14  O   UNL     1       7.382   7.436  16.887  0.00  0.00    +0.000 OA
ENDBRANCH   1  14
BRANCH   2  15
ATOM     15  C   UNL     1       6.866   4.761  16.831  0.00  0.00    +0.000 C 
BRANCH  15  16
ATOM     16  S   UNL     1       5.989   3.908  15.464  0.00  0.00    +0.000 S 
BRANCH  16  17
ATOM     17  C   UNL     1       6.834   4.508  14.080  0.00  0.00    +0.000 A 
ATOM     18  N   UNL     1       7.701   5.495  14.079  0.00  0.00    +0.000 NA
ATOM     19  N   UNL     1       8.084   5.721  12.779  0.00  0.00    +0.000 NA
ATOM     20  C   UNL     1       7.445   4.860  12.023  0.00  0.00    +0.000 A 
ATOM     21  N   UNL     1       6.674   4.037  12.800  0.00  0.00    +0.000 N 
BRANCH  21  22
ATOM     22  C   UNL     1       5.886   2.916  12.306  0.00  0.00    +0.000 C 
ATOM     23  C   UNL     1       4.586   3.379  11.643  0.00  0.00    +0.000 C 
ATOM     24  C   UNL     1       6.686   2.038  11.336  0.00  0.00    +0.000 C 
ENDBRANCH  21  22
ENDBRANCH  16  17
ENDBRANCH  15  16
ENDBRANCH   2  15
TORSDOF 6
ENDMDL
MODEL 2
REMARK VINA RESULT:      -7.4      0.839      1.546
REMARK  Name = 
REMARK  9 active torsions:
REMARK  status: ('A' for Active; 'I' for Inactive)
REMARK    1  A    between atoms: C_1  and  O_2
REMARK    2  A    between atoms: O_2  and  N_3
REMARK    3  A    between atoms: C_4  and  C_5
REMARK    4  A    between atoms: C_4  and  C_15
REMARK    5  A    between atoms: C_5  and  S_6
REMARK    6  A    between atoms: S_6  and  C_7
REMARK    7  A    between atoms: N_11  and  C_12
REMARK    8  A    between atoms: C_12  and  C_13
REMARK    9  A    between atoms: C_12  and  C_14
REMARK                            x       y       z     vdW  Elec       q    Type
REMARK                         _______ _______ _______ _____ _____    ______ ____
ROOT
ATOM      1  N   UNL     1       6.701   6.555  18.137  0.00  0.00    +0.000 NA
ATOM      2  C   UNL     1       6.440   5.320  17.819  0.00  0.00    +0.000 C 
ENDROOT
BRANCH   2   3
ATOM      3  C   UNL     1       5.283   4.675  18.527  0.00  0.00    +0.000 A 
ATOM      4  C   UNL     1       5.445   3.378  19.042  0.00  0.00    +0.000 A 
ATOM      5  C   UNL     1       4.407   2.751  19.729  0.00  0.00    +0.000 A 
ATOM      6  C   UNL     1       3.193   3.414  19.899  0.00  0.00    +0.000 A 
ATOM      7  C   UNL     1       3.028   4.706  19.392  0.00  0.00    +0.000 A 
ATOM      8  C   UNL     1       4.061   5.330  18.691  0.00  0.00    +0.000 A 
ATOM      9  O   UNL     1       1.867   5.426  19.540  0.00  0.00    +0.000 OA
ATOM     10  C   UNL     1       1.032   4.864  20.557  0.00  0.00    +0.000 C 
ATOM     11  C   UNL     1       0.934   3.355  20.401  0.00  0.00    +0.000 C 
ATOM     12  O   UNL     1       2.215   2.740  20.582  0.00  0.00    +0.000 OA
ENDBRANCH   2   3
BRANCH   1  14
ATOM     13  C   UNL     1       7.859   8.472  17.689  0.00  0.00    +0.000 C 
ATOM     14  O   UNL     1       7.814   7.068  17.463  0.00  0.00    +0.000 OA
ENDBRANCH   1  14
BRANCH   2  15
ATOM     15  C   UNL     1       7.206   4.506  16.766  0.00  0.00    +0.000 C 
BRANCH  15  16
ATOM     16  S   UNL     1       6.051   3.969  15.446  0.00  0.00    +0.000 S 
BRANCH  16  17
ATOM     17  C   UNL     1       6.861   4.529  14.025  0.00  0.00    +0.000 A 
ATOM     18  N   UNL     1       7.749   5.498  13.979  0.00  0.00    +0.000 NA
ATOM     19  N   UNL     1       8.092   5.695  12.664  0.00  0.00    +0.000 NA
ATOM     20  C   UNL     1       7.410   4.836  11.943  0.00  0.00    +0.000 A 
ATOM     21  N   UNL     1       6.649   4.042  12.759  0.00  0.00    +0.000 N 
BRANCH  21  22
ATOM     22  C   UNL     1       5.822   2.931  12.309  0.00  0.00    +0.000 C 
ATOM     23  C   UNL     1       4.537   3.412  11.630  0.00  0.00    +0.000 C 
ATOM     24  C   UNL     1       6.589   1.989  11.373  0.00  0.00    +0.000 C 
ENDBRANCH  21  22
ENDBRANCH  16  17
ENDBRANCH  15  16
ENDBRANCH   2  15
TORSDOF 6
ENDMDL
MODEL 3
REMARK VINA RESULT:      -7.2      3.400      5.824
REMARK  Name = 
REMARK  9 active torsions:
REMARK  status: ('A' for Active; 'I' for Inactive)
REMARK    1  A    between atoms: C_1  and  O_2
REMARK    2  A    between atoms: O_2  and  N_3
REMARK    3  A    between atoms: C_4  and  C_5
REMARK    4  A    between atoms: C_4  and  C_15
REMARK    5  A    between atoms: C_5  and  S_6
REMARK    6  A    between atoms: S_6  and  C_7
REMARK    7  A    between atoms: N_11  and  C_12
REMARK    8  A    between atoms: C_12  and  C_13
REMARK    9  A    between atoms: C_12  and  C_14
REMARK                            x       y       z     vdW  Elec       q    Type
REMARK                         _______ _______ _______ _____ _____    ______ ____
ROOT
ATOM      1  N   UNL     1       2.311   4.617  21.033  0.00  0.00    +0.000 NA
ATOM      2  C   UNL     1       2.558   5.022  19.820  0.00  0.00    +0.000 C 
ENDROOT
BRANCH   2   3
ATOM      3  C   UNL     1       2.241   6.458  19.514  0.00  0.00    +0.000 A 
ATOM      4  C   UNL     1       2.491   6.945  18.221  0.00  0.00    +0.000 A 
ATOM      5  C   UNL     1       2.188   8.263  17.886  0.00  0.00    +0.000 A 
ATOM      6  C   UNL     1       1.637   9.110  18.846  0.00  0.00    +0.000 A 
ATOM      7  C   UNL     1       1.382   8.630  20.134  0.00  0.00    +0.000 A 
ATOM      8  C   UNL     1       1.699   7.314  20.476  0.00  0.00    +0.000 A 
ATOM      9  O   UNL     1       0.823   9.402  21.124  0.00  0.00    +0.000 OA
ATOM     10  C   UNL     1       0.214  10.579  20.584  0.00  0.00    +0.000 C 
ATOM     11  C   UNL     1       1.134  11.248  19.576  0.00  0.00    +0.000 C 
ATOM     12  O   UNL     1       1.364  10.393  18.450  0.00  0.00    +0.000 OA
ENDBRANCH   2   3
BRANCH   1  14
ATOM     13  C   UNL     1       1.421   2.624  21.705  0.00  0.00    +0.000 C 
ATOM     14  O   UNL     1       2.599   3.261  21.223  0.00  0.00    +0.000 OA
ENDBRANCH   1  14
BRANCH   2  15
ATOM     15  C   UNL     1       3.168   4.152  18.712  0.00  0.00    +0.000 C 
BRANCH  15  16
ATOM     16  S   UNL     1       4.966   3.946  19.011  0.00  0.00    +0.000 S 
BRANCH  16  17
ATOM     17  C   UNL     1       5.627   4.376  17.473  0.00  0.00    +0.000 A 
ATOM     18  N   UNL     1       5.391   3.760  16.336  0.00  0.00    +0.000 NA
ATOM     19  N   UNL     1       6.163   4.350  15.366  0.00  0.00    +0.000 NA
ATOM     20  C   UNL     1       6.845   5.317  15.936  0.00  0.00    +0.000 A 
ATOM     21  N   UNL     1       6.509   5.407  17.260  0.00  0.00    +0.000 N 
BRANCH  21  22
ATOM     22  C   UNL     1       7.015   6.413  18.184  0.00  0.00    +0.000 C 
ATOM     23  C   UNL     1       8.048   5.833  19.153  0.00  0.00    +0.000 C 
ATOM     24  C   UNL     1       7.607   7.621  17.446  0.00  0.00    +0.000 C 
ENDBRANCH  21  22
ENDBRANCH  16  17
ENDBRANCH  15  16
ENDBRANCH   2  15
TORSDOF 6
ENDMDL
MODEL 4
REMARK VINA RESULT:      -7.1      3.498      7.744
REMARK  Name = 
REMARK  9 active torsions:
REMARK  status: ('A' for Active; 'I' for Inactive)
REMARK    1  A    between atoms: C_1  and  O_2
REMARK    2  A    between atoms: O_2  and  N_3
REMARK    3  A    between atoms: C_4  and  C_5
REMARK    4  A    between atoms: C_4  and  C_15
REMARK    5  A    between atoms: C_5  and  S_6
REMARK    6  A    between atoms: S_6  and  C_7
REMARK    7  A    between atoms: N_11  and  C_12
REMARK    8  A    between atoms: C_12  and  C_13
REMARK    9  A    between atoms: C_12  and  C_14
REMARK                            x       y       z     vdW  Elec       q    Type
REMARK                         _______ _______ _______ _____ _____    ______ ____
ROOT
ATOM      1  N   UNL     1       2.866   2.568  19.556  0.00  0.00    +0.000 NA
ATOM      2  C   UNL     1       2.903   3.728  18.965  0.00  0.00    +0.000 C 
ENDROOT
BRANCH   2   3
ATOM      3  C   UNL     1       4.113   4.014  18.122  0.00  0.00    +0.000 A 
ATOM      4  C   UNL     1       5.328   4.306  18.763  0.00  0.00    +0.000 A 
ATOM      5  C   UNL     1       6.482   4.552  18.022  0.00  0.00    +0.000 A 
ATOM      6  C   UNL     1       6.428   4.515  16.629  0.00  0.00    +0.000 A 
ATOM      7  C   UNL     1       5.222   4.220  15.987  0.00  0.00    +0.000 A 
ATOM      8  C   UNL     1       4.062   3.989  16.727  0.00  0.00    +0.000 A 
ATOM      9  O   UNL     1       5.101   4.147  14.620  0.00  0.00    +0.000 OA
ATOM     10  C   UNL     1       6.381   4.036  13.989  0.00  0.00    +0.000 C 
ATOM     11  C   UNL     1       7.360   5.040  14.576  0.00  0.00    +0.000 C 
ATOM     12  O   UNL     1       7.598   4.767  15.962  0.00  0.00    +0.000 OA
ENDBRANCH   2   3
BRANCH   1  14
ATOM     13  C   UNL     1       2.103   2.584  21.709  0.00  0.00    +0.000 C 
ATOM     14  O   UNL     1       1.727   2.397  20.350  0.00  0.00    +0.000 OA
ENDBRANCH   1  14
BRANCH   2  15
ATOM     15  C   UNL     1       1.796   4.789  19.048  0.00  0.00    +0.000 C 
BRANCH  15  16
ATOM     16  S   UNL     1       2.322   6.138  20.176  0.00  0.00    +0.000 S 
BRANCH  16  17
ATOM     17  C   UNL     1       2.129   7.529  19.168  0.00  0.00    +0.000 A 
ATOM     18  N   UNL     1       2.652   7.691  17.974  0.00  0.00    +0.000 NA
ATOM     19  N   UNL     1       2.336   8.956  17.540  0.00  0.00    +0.000 NA
ATOM     20  C   UNL     1       1.622   9.530  18.480  0.00  0.00    +0.000 A 
ATOM     21  N   UNL     1       1.421   8.654  19.514  0.00  0.00    +0.000 N 
BRANCH  21  22
ATOM     22  C   UNL     1       0.611   8.926  20.694  0.00  0.00    +0.000 C 
ATOM     23  C   UNL     1       1.473   9.230  21.922  0.00  0.00    +0.000 C 
ATOM     24  C   UNL     1      -0.384  10.068  20.454  0.00  0.00    +0.000 C 
ENDBRANCH  21  22
ENDBRANCH  16  17
ENDBRANCH  15  16
ENDBRANCH   2  15
TORSDOF 6
ENDMDL
MODEL 5
REMARK VINA RESULT:      -7.0      1.032      1.073
REMARK  Name = 
REMARK  9 active torsions:
REMARK  status: ('A' for Active; 'I' for Inactive)
REMARK    1  A    between atoms: C_1  and  O_2
REMARK    2  A    between atoms: O_2  and  N_3
REMARK    3  A    between atoms: C_4  and  C_5
REMARK    4  A    between atoms: C_4  and  C_15
REMARK    5  A    between atoms: C_5  and  S_6
REMARK    6  A    between atoms: S_6  and  C_7
REMARK    7  A    between atoms: N_11  and  C_12
REMARK    8  A    between atoms: C_12  and  C_13
REMARK    9  A    between atoms: C_12  and  C_14
REMARK                            x       y       z     vdW  Elec       q    Type
REMARK                         _______ _______ _______ _____ _____    ______ ____
ROOT
ATOM      1  N   UNL     1       6.390   5.997  18.142  0.00  0.00    +0.000 NA
ATOM      2  C   UNL     1       5.520   5.437  17.351  0.00  0.00    +0.000 C 
ENDROOT
BRANCH   2   3
ATOM      3  C   UNL     1       4.378   4.719  18.010  0.00  0.00    +0.000 A 
ATOM      4  C   UNL     1       3.537   3.917  17.220  0.00  0.00    +0.000 A 
ATOM      5  C   UNL     1       2.481   3.212  17.794  0.00  0.00    +0.000 A 
ATOM      6  C   UNL     1       2.251   3.310  19.165  0.00  0.00    +0.000 A 
ATOM      7  C   UNL     1       3.087   4.102  19.957  0.00  0.00    +0.000 A 
ATOM      8  C   UNL     1       4.136   4.821  19.382  0.00  0.00    +0.000 A 
ATOM      9  O   UNL     1       2.932   4.229  21.317  0.00  0.00    +0.000 OA
ATOM     10  C   UNL     1       2.090   3.197  21.842  0.00  0.00    +0.000 C 
ATOM     11  C   UNL     1       0.847   3.025  20.984  0.00  0.00    +0.000 C 
ATOM     12  O   UNL     1       1.196   2.592  19.664  0.00  0.00    +0.000 OA
ENDBRANCH   2   3
BRANCH   1  14
ATOM     13  C   UNL     1       7.377   8.009  17.704  0.00  0.00    +0.000 C 
ATOM     14  O   UNL     1       7.440   6.610  17.450  0.00  0.00    +0.000 OA
ENDBRANCH   1  14
BRANCH   2  15
ATOM     15  C   UNL     1       5.570   5.488  15.817  0.00  0.00    +0.000 C 
BRANCH  15  16
ATOM     16  S   UNL     1       6.396   3.979  15.179  0.00  0.00    +0.000 S 
BRANCH  16  17
ATOM     17  C   UNL     1       7.081   4.556  13.700  0.00  0.00    +0.000 A 
ATOM     18  N   UNL     1       7.899   5.577  13.579  0.00  0.00    +0.000 NA
ATOM     19  N   UNL     1       8.148   5.765  12.241  0.00  0.00    +0.000 NA
ATOM     20  C   UNL     1       7.480   4.847  11.581  0.00  0.00    +0.000 A 
ATOM     21  N   UNL     1       6.824   4.026  12.459  0.00  0.00    +0.000 N 
BRANCH  21  22
ATOM     22  C   UNL     1       6.044   2.854  12.084  0.00  0.00    +0.000 C 
ATOM     23  C   UNL     1       4.661   3.234  11.547  0.00  0.00    +0.000 C 
ATOM     24  C   UNL     1       6.782   1.979  11.062  0.00  0.00    +0.000 C 
ENDBRANCH  21  22
ENDBRANCH  16  17
ENDBRANCH  15  16
ENDBRANCH   2  15
TORSDOF 6
ENDMDL
MODEL 6
REMARK VINA RESULT:      -6.9      3.443      5.725
REMARK  Name = 
REMARK  9 active torsions:
REMARK  status: ('A' for Active; 'I' for Inactive)
REMARK    1  A    between atoms: C_1  and  O_2
REMARK    2  A    between atoms: O_2  and  N_3
REMARK    3  A    between atoms: C_4  and  C_5
REMARK    4  A    between atoms: C_4  and  C_15
REMARK    5  A    between atoms: C_5  and  S_6
REMARK    6  A    between atoms: S_6  and  C_7
REMARK    7  A    between atoms: N_11  and  C_12
REMARK    8  A    between atoms: C_12  and  C_13
REMARK    9  A    between atoms: C_12  and  C_14
REMARK                            x       y       z     vdW  Elec       q    Type
REMARK                         _______ _______ _______ _____ _____    ______ ____
ROOT
ATOM      1  N   UNL     1       1.339   4.311  19.580  0.00  0.00    +0.000 NA
ATOM      2  C   UNL     1       2.358   5.100  19.762  0.00  0.00    +0.000 C 
ENDROOT
BRANCH   2   3
ATOM      3  C   UNL     1       2.166   6.542  19.387  0.00  0.00    +0.000 A 
ATOM      4  C   UNL     1       2.473   6.946  18.077  0.00  0.00    +0.000 A 
ATOM      5  C   UNL     1       2.285   8.268  17.678  0.00  0.00    +0.000 A 
ATOM      6  C   UNL     1       1.795   9.201  18.591  0.00  0.00    +0.000 A 
ATOM      7  C   UNL     1       1.484   8.803  19.894  0.00  0.00    +0.000 A 
ATOM      8  C   UNL     1       1.686   7.483  20.300  0.00  0.00    +0.000 A 
ATOM      9  O   UNL     1       0.978   9.663  20.839  0.00  0.00    +0.000 OA
ATOM     10  C   UNL     1       0.477  10.860  20.237  0.00  0.00    +0.000 C 
ATOM     11  C   UNL     1       1.462  11.405  19.216  0.00  0.00    +0.000 C 
ATOM     12  O   UNL     1       1.635  10.482  18.134  0.00  0.00    +0.000 OA
ENDBRANCH   2   3
BRANCH   1  14
ATOM     13  C   UNL     1       1.206   2.157  18.831  0.00  0.00    +0.000 C 
ATOM     14  O   UNL     1       1.612   2.981  19.918  0.00  0.00    +0.000 OA
ENDBRANCH   1  14
BRANCH   2  15
ATOM     15  C   UNL     1       3.709   4.666  20.349  0.00  0.00    +0.000 C 
BRANCH  15  16
ATOM     16  S   UNL     1       4.655   3.727  19.089  0.00  0.00    +0.000 S 
BRANCH  16  17
ATOM     17  C   UNL     1       5.947   4.819  18.737  0.00  0.00    +0.000 A 
ATOM     18  N   UNL     1       6.867   5.220  19.586  0.00  0.00    +0.000 NA
ATOM     19  N   UNL     1       7.659   6.144  18.948  0.00  0.00    +0.000 NA
ATOM     20  C   UNL     1       7.205   6.276  17.723  0.00  0.00    +0.000 A 
ATOM     21  N   UNL     1       6.150   5.426  17.522  0.00  0.00    +0.000 N 
BRANCH  21  22
ATOM     22  C   UNL     1       5.447   5.251  16.258  0.00  0.00    +0.000 C 
ATOM     23  C   UNL     1       5.247   6.580  15.525  0.00  0.00    +0.000 C 
ATOM     24  C   UNL     1       6.160   4.248  15.342  0.00  0.00    +0.000 C 
ENDBRANCH  21  22
ENDBRANCH  16  17
ENDBRANCH  15  16
ENDBRANCH   2  15
TORSDOF 6
ENDMDL
MODEL 7
REMARK VINA RESULT:      -6.9      3.403      5.303
REMARK  Name = 
REMARK  9 active torsions:
REMARK  status: ('A' for Active; 'I' for Inactive)
REMARK    1  A    between atoms: C_1  and  O_2
REMARK    2  A    between atoms: O_2  and  N_3
REMARK    3  A    between atoms: C_4  and  C_5
REMARK    4  A    between atoms: C_4  and  C_15
REMARK    5  A    between atoms: C_5  and  S_6
REMARK    6  A    between atoms: S_6  and  C_7
REMARK    7  A    between atoms: N_11  and  C_12
REMARK    8  A    between atoms: C_12  and  C_13
REMARK    9  A    between atoms: C_12  and  C_14
REMARK                            x       y       z     vdW  Elec       q    Type
REMARK                         _______ _______ _______ _____ _____    ______ ____
ROOT
ATOM      1  N   UNL     1       2.092   4.268  17.778  0.00  0.00    +0.000 NA
ATOM      2  C   UNL     1       2.809   4.931  18.639  0.00  0.00    +0.000 C 
ENDROOT
BRANCH   2   3
ATOM      3  C   UNL     1       2.319   6.302  19.007  0.00  0.00    +0.000 A 
ATOM      4  C   UNL     1       1.831   6.519  20.306  0.00  0.00    +0.000 A 
ATOM      5  C   UNL     1       1.390   7.781  20.699  0.00  0.00    +0.000 A 
ATOM      6  C   UNL     1       1.425   8.838  19.791  0.00  0.00    +0.000 A 
ATOM      7  C   UNL     1       1.914   8.629  18.498  0.00  0.00    +0.000 A 
ATOM      8  C   UNL     1       2.342   7.362  18.098  0.00  0.00    +0.000 A 
ATOM      9  O   UNL     1       1.997   9.628  17.558  0.00  0.00    +0.000 OA
ATOM     10  C   UNL     1       1.887  10.921  18.162  0.00  0.00    +0.000 C 
ATOM     11  C   UNL     1       0.738  10.956  19.156  0.00  0.00    +0.000 C 
ATOM     12  O   UNL     1       0.977  10.051  20.242  0.00  0.00    +0.000 OA
ENDBRANCH   2   3
BRANCH   1  14
ATOM     13  C   UNL     1       1.959   2.034  18.232  0.00  0.00    +0.000 C 
ATOM     14  O   UNL     1       2.637   3.019  17.462  0.00  0.00    +0.000 OA
ENDBRANCH   1  14
BRANCH   2  15
ATOM     15  C   UNL     1       4.084   4.401  19.312  0.00  0.00    +0.000 C 
BRANCH  15  16
ATOM     16  S   UNL     1       5.382   5.696  19.276  0.00  0.00    +0.000 S 
BRANCH  16  17
ATOM     17  C   UNL     1       6.536   5.002  18.191  0.00  0.00    +0.000 A 
ATOM     18  N   UNL     1       7.718   4.534  18.523  0.00  0.00    +0.000 NA
ATOM     19  N   UNL     1       8.361   4.149  17.372  0.00  0.00    +0.000 NA
ATOM     20  C   UNL     1       7.549   4.387  16.367  0.00  0.00    +0.000 A 
ATOM     21  N   UNL     1       6.362   4.885  16.834  0.00  0.00    +0.000 N 
BRANCH  21  22
ATOM     22  C   UNL     1       5.202   5.193  16.007  0.00  0.00    +0.000 C 
ATOM     23  C   UNL     1       5.049   6.698  15.776  0.00  0.00    +0.000 C 
ATOM     24  C   UNL     1       5.247   4.456  14.663  0.00  0.00    +0.000 C 
ENDBRANCH  21  22
ENDBRANCH  16  17
ENDBRANCH  15  16
ENDBRANCH   2  15
TORSDOF 6
ENDMDL
MODEL 8
REMARK VINA RESULT:      -6.9      1.200      1.784
REMARK  Name = 
REMARK  9 active torsions:
REMARK  status: ('A' for Active; 'I' for Inactive)
REMARK    1  A    between atoms: C_1  and  O_2
REMARK    2  A    between atoms: O_2  and  N_3
REMARK    3  A    between atoms: C_4  and  C_5
REMARK    4  A    between atoms: C_4  and  C_15
REMARK    5  A    between atoms: C_5  and  S_6
REMARK    6  A    between atoms: S_6  and  C_7
REMARK    7  A    between atoms: N_11  and  C_12
REMARK    8  A    between atoms: C_12  and  C_13
REMARK    9  A    between atoms: C_12  and  C_14
REMARK                            x       y       z     vdW  Elec       q    Type
REMARK                         _______ _______ _______ _____ _____    ______ ____
ROOT
ATOM      1  N   UNL     1       6.595   6.118  18.328  0.00  0.00    +0.000 NA
ATOM      2  C   UNL     1       6.333   4.971  17.770  0.00  0.00    +0.000 C 
ENDROOT
BRANCH   2   3
ATOM      3  C   UNL     1       5.123   4.240  18.276  0.00  0.00    +0.000 A 
ATOM      4  C   UNL     1       5.250   3.431  19.417  0.00  0.00    +0.000 A 
ATOM      5  C   UNL     1       4.148   2.755  19.936  0.00  0.00    +0.000 A 
ATOM      6  C   UNL     1       2.907   2.876  19.313  0.00  0.00    +0.000 A 
ATOM      7  C   UNL     1       2.774   3.684  18.180  0.00  0.00    +0.000 A 
ATOM      8  C   UNL     1       3.880   4.350  17.649  0.00  0.00    +0.000 A 
ATOM      9  O   UNL     1       1.578   3.866  17.527  0.00  0.00    +0.000 OA
ATOM     10  C   UNL     1       0.474   3.455  18.339  0.00  0.00    +0.000 C 
ATOM     11  C   UNL     1       0.750   2.105  18.980  0.00  0.00    +0.000 C 
ATOM     12  O   UNL     1       1.866   2.185  19.875  0.00  0.00    +0.000 OA
ENDBRANCH   2   3
BRANCH   1  14
ATOM     13  C   UNL     1       7.497   8.101  17.640  0.00  0.00    +0.000 C 
ATOM     14  O   UNL     1       7.758   6.715  17.827  0.00  0.00    +0.000 OA
ENDBRANCH   1  14
BRANCH   2  15
ATOM     15  C   UNL     1       7.149   4.344  16.630  0.00  0.00    +0.000 C 
BRANCH  15  16
ATOM     16  S   UNL     1       6.019   3.826  15.280  0.00  0.00    +0.000 S 
BRANCH  16  17
ATOM     17  C   UNL     1       6.839   4.439  13.886  0.00  0.00    +0.000 A 
ATOM     18  N   UNL     1       7.686   5.443  13.874  0.00  0.00    +0.000 NA
ATOM     19  N   UNL     1       8.052   5.673  12.570  0.00  0.00    +0.000 NA
ATOM     20  C   UNL     1       7.423   4.797  11.822  0.00  0.00    +0.000 A 
ATOM     21  N   UNL     1       6.677   3.961  12.609  0.00  0.00    +0.000 N 
BRANCH  21  22
ATOM     22  C   UNL     1       5.907   2.823  12.125  0.00  0.00    +0.000 C 
ATOM     23  C   UNL     1       4.549   3.249  11.561  0.00  0.00    +0.000 C 
ATOM     24  C   UNL     1       6.680   2.013  11.077  0.00  0.00    +0.000 C 
ENDBRANCH  21  22
ENDBRANCH  16  17
ENDBRANCH  15  16
ENDBRANCH   2  15
TORSDOF 6
ENDMDL
MODEL 9
REMARK VINA RESULT:      -6.8      3.476      5.824
REMARK  Name = 
REMARK  9 active torsions:
REMARK  status: ('A' for Active; 'I' for Inactive)
REMARK    1  A    between atoms: C_1  and  O_2
REMARK    2  A    between atoms: O_2  and  N_3
REMARK    3  A    between atoms: C_4  and  C_5
REMARK    4  A    between atoms: C_4  and  C_15
REMARK    5  A    between atoms: C_5  and  S_6
REMARK    6  A    between atoms: S_6  and  C_7
REMARK    7  A    between atoms: N_11  and  C_12
REMARK    8  A    between atoms: C_12  and  C_13
REMARK    9  A    between atoms: C_12  and  C_14
REMARK                            x       y       z     vdW  Elec       q    Type
REMARK                         _______ _______ _______ _____ _____    ______ ____
ROOT
ATOM      1  N   UNL     1       1.320   4.299  20.040  0.00  0.00    +0.000 NA
ATOM      2  C   UNL     1       2.352   5.086  19.944  0.00  0.00    +0.000 C 
ENDROOT
BRANCH   2   3
ATOM      3  C   UNL     1       2.068   6.531  19.646  0.00  0.00    +0.000 A 
ATOM      4  C   UNL     1       2.288   7.008  18.344  0.00  0.00    +0.000 A 
ATOM      5  C   UNL     1       2.014   8.335  18.016  0.00  0.00    +0.000 A 
ATOM      6  C   UNL     1       1.524   9.200  18.993  0.00  0.00    +0.000 A 
ATOM      7  C   UNL     1       1.299   8.728  20.290  0.00  0.00    +0.000 A 
ATOM      8  C   UNL     1       1.587   7.404  20.624  0.00  0.00    +0.000 A 
ATOM      9  O   UNL     1       0.798   9.518  21.297  0.00  0.00    +0.000 OA
ATOM     10  C   UNL     1       0.207  10.713  20.776  0.00  0.00    +0.000 C 
ATOM     11  C   UNL     1       1.112  11.353  19.736  0.00  0.00    +0.000 C 
ATOM     12  O   UNL     1       1.276  10.489  18.605  0.00  0.00    +0.000 OA
ENDBRANCH   2   3
BRANCH   1  14
ATOM     13  C   UNL     1       1.368   2.667  21.638  0.00  0.00    +0.000 C 
ATOM     14  O   UNL     1       1.672   2.966  20.280  0.00  0.00    +0.000 OA
ENDBRANCH   1  14
BRANCH   2  15
ATOM     15  C   UNL     1       3.810   4.648  20.140  0.00  0.00    +0.000 C 
BRANCH  15  16
ATOM     16  S   UNL     1       4.546   4.219  18.514  0.00  0.00    +0.000 S 
BRANCH  16  17
ATOM     17  C   UNL     1       6.069   5.034  18.596  0.00  0.00    +0.000 A 
ATOM     18  N   UNL     1       6.795   5.199  19.679  0.00  0.00    +0.000 NA
ATOM     19  N   UNL     1       7.886   5.965  19.346  0.00  0.00    +0.000 NA
ATOM     20  C   UNL     1       7.799   6.241  18.065  0.00  0.00    +0.000 A 
ATOM     21  N   UNL     1       6.692   5.637  17.531  0.00  0.00    +0.000 N 
BRANCH  21  22
ATOM     22  C   UNL     1       6.322   5.666  16.122  0.00  0.00    +0.000 C 
ATOM     23  C   UNL     1       6.159   4.258  15.545  0.00  0.00    +0.000 C 
ATOM     24  C   UNL     1       5.047   6.483  15.883  0.00  0.00    +0.000 C 
ENDBRANCH  21  22
ENDBRANCH  16  17
ENDBRANCH  15  16
ENDBRANCH   2  15
TORSDOF 6
ENDMDL
