MODEL 1
REMARK VINA RESULT:      -7.4      0.000      0.000
REMARK  Name = 
REMARK  8 active torsions:
REMARK  status: ('A' for Active; 'I' for Inactive)
REMARK    1  A    between atoms: C_2  and  C_3
REMARK    2  A    between atoms: C_2  and  C_9
REMARK    3  A    between atoms: C_3  and  C_4
REMARK    4  A    between atoms: C_4  and  C_5
REMARK    5  A    between atoms: C_5  and  C_6
REMARK    6  A    between atoms: C_6  and  C_7
REMARK    7  A    between atoms: C_7  and  O_8
REMARK    8  A    between atoms: C_12  and  C_13
REMARK                            x       y       z     vdW  Elec       q    Type
REMARK                         _______ _______ _______ _____ _____    ______ ____
ROOT
ATOM      1  C   UNL     1       5.762   4.584  16.041  0.00  0.00    +0.000 A 
ATOM      2  C   UNL     1       4.423   4.251  15.838  0.00  0.00    +0.000 A 
ATOM      3  C   UNL     1       3.597   3.967  16.928  0.00  0.00    +0.000 A 
ATOM      4  C   UNL     1       4.087   3.976  18.248  0.00  0.00    +0.000 A 
ATOM      5  C   UNL     1       5.432   4.344  18.431  0.00  0.00    +0.000 A 
ATOM      6  C   UNL     1       6.259   4.651  17.347  0.00  0.00    +0.000 A 
ENDROOT
BRANCH   4   7
ATOM      7  C   UNL     1       3.225   3.584  19.384  0.00  0.00    +0.000 A 
ATOM      8  C   UNL     1       1.937   4.144  19.524  0.00  0.00    +0.000 A 
ATOM      9  C   UNL     1       1.102   3.798  20.588  0.00  0.00    +0.000 A 
ATOM     10  C   UNL     1       1.537   2.866  21.521  0.00  0.00    +0.000 A 
ATOM     11  F   UNL     1       0.731   2.531  22.537  0.00  0.00    +0.000 F 
ATOM     12  C   UNL     1       2.785   2.279  21.413  0.00  0.00    +0.000 A 
ATOM     13  C   UNL     1       3.618   2.644  20.357  0.00  0.00    +0.000 A 
ATOM     14  F   UNL     1       4.827   2.064  20.298  0.00  0.00    +0.000 F 
ENDBRANCH   4   7
BRANCH   1  16
ATOM     15  O   UNL     1       7.795   5.172  15.010  0.00  0.00    +0.000 OA
ATOM     16  C   UNL     1       6.623   4.838  14.852  0.00  0.00    +0.000 C 
BRANCH  16  17
ATOM     17  C   UNL     1       5.994   4.681  13.482  0.00  0.00    +0.000 C 
BRANCH  17  18
ATOM     18  C   UNL     1       6.690   3.619  12.643  0.00  0.00    +0.000 C 
BRANCH  18  19
ATOM     19  C   UNL     1       5.659   2.774  11.901  0.00  0.00    +0.000 C 
BRANCH  19  20
ATOM     20  C   UNL     1       4.304   3.476  11.853  0.00  0.00    +0.000 C 
BRANCH  20  21
ATOM     21  C   UNL     1       3.540   3.147  10.579  0.00  0.00    +0.000 C 
BRANCH  21  22
ATOM     22  O   UNL     1       3.076   4.334   9.947  0.00  0.00    +0.000 OA
ATOM     23  H   UNL     1       3.848   4.776   9.556  0.00  0.00    +0.000 HD
ENDBRANCH  21  22
ENDBRANCH  20  21
ENDBRANCH  19  20
ENDBRANCH  18  19
ENDBRANCH  17  18
ENDBRANCH  16  17
ENDBRANCH   1  16
TORSDOF 8
ENDMDL
MODEL 2
REMARK VINA RESULT:      -7.4      1.370      1.810
REMARK  Name = 
REMARK  8 active torsions:
REMARK  status: ('A' for Active; 'I' for Inactive)
REMARK    1  A    between atoms: C_2  and  C_3
REMARK    2  A    between atoms: C_2  and  C_9
REMARK    3  A    between atoms: C_3  and  C_4
REMARK    4  A    between atoms: C_4  and  C_5
REMARK    5  A    between atoms: C_5  and  C_6
REMARK    6  A    between atoms: C_6  and  C_7
REMARK    7  A    between atoms: C_7  and  O_8
REMARK    8  A    between atoms: C_12  and  C_13
REMARK                            x       y       z     vdW  Elec       q    Type
REMARK                         _______ _______ _______ _____ _____    ______ ____
ROOT
ATOM      1  C   UNL     1       5.729   4.452  15.508  0.00  0.00    +0.000 A 
ATOM      2  C   UNL     1       5.564   3.142  15.958  0.00  0.00    +0.000 A 
ATOM      3  C   UNL     1       4.686   2.865  17.008  0.00  0.00    +0.000 A 
ATOM      4  C   UNL     1       3.971   3.888  17.661  0.00  0.00    +0.000 A 
ATOM      5  C   UNL     1       4.130   5.197  17.172  0.00  0.00    +0.000 A 
ATOM      6  C   UNL     1       4.991   5.477  16.106  0.00  0.00    +0.000 A 
ENDROOT
BRANCH   4   7
ATOM      7  C   UNL     1       3.115   3.593  18.831  0.00  0.00    +0.000 A 
ATOM      8  C   UNL     1       3.678   3.040  20.001  0.00  0.00    +0.000 A 
ATOM      9  C   UNL     1       2.896   2.747  21.119  0.00  0.00    +0.000 A 
ATOM     10  C   UNL     1       1.535   3.023  21.092  0.00  0.00    +0.000 A 
ATOM     11  F   UNL     1       0.788   2.746  22.168  0.00  0.00    +0.000 F 
ATOM     12  C   UNL     1       0.944   3.581  19.972  0.00  0.00    +0.000 A 
ATOM     13  C   UNL     1       1.731   3.855  18.855  0.00  0.00    +0.000 A 
ATOM     14  F   UNL     1       1.116   4.381  17.783  0.00  0.00    +0.000 F 
ENDBRANCH   4   7
BRANCH   1  16
ATOM     15  O   UNL     1       7.635   5.495  14.602  0.00  0.00    +0.000 OA
ATOM     16  C   UNL     1       6.706   4.713  14.414  0.00  0.00    +0.000 C 
BRANCH  16  17
ATOM     17  C   UNL     1       6.494   3.996  13.096  0.00  0.00    +0.000 C 
BRANCH  17  18
ATOM     18  C   UNL     1       5.021   3.854  12.743  0.00  0.00    +0.000 C 
BRANCH  18  19
ATOM     19  C   UNL     1       4.866   3.180  11.383  0.00  0.00    +0.000 C 
BRANCH  19  20
ATOM     20  C   UNL     1       3.393   3.029  11.010  0.00  0.00    +0.000 C 
BRANCH  20  21
ATOM     21  C   UNL     1       3.114   3.518   9.595  0.00  0.00    +0.000 C 
BRANCH  21  22
ATOM     22  O   UNL     1       2.651   4.862   9.608  0.00  0.00    +0.000 OA
ATOM     23  H   UNL     1       1.811   4.876  10.098  0.00  0.00    +0.000 HD
ENDBRANCH  21  22
ENDBRANCH  20  21
ENDBRANCH  19  20
ENDBRANCH  18  19
ENDBRANCH  17  18
ENDBRANCH  16  17
ENDBRANCH   1  16
TORSDOF 8
ENDMDL
MODEL 3
REMARK VINA RESULT:      -7.4      1.602      1.897
REMARK  Name = 
REMARK  8 active torsions:
REMARK  status: ('A' for Active; 'I' for Inactive)
REMARK    1  A    between atoms: C_2  and  C_3
REMARK    2  A    between atoms: C_2  and  C_9
REMARK    3  A    between atoms: C_3  and  C_4
REMARK    4  A    between atoms: C_4  and  C_5
REMARK    5  A    between atoms: C_5  and  C_6
REMARK    6  A    between atoms: C_6  and  C_7
REMARK    7  A    between atoms: C_7  and  O_8
REMARK    8  A    between atoms: C_12  and  C_13
REMARK                            x       y       z     vdW  Elec       q    Type
REMARK                         _______ _______ _______ _____ _____    ______ ____
ROOT
ATOM      1  C   UNL     1       6.214   4.738  14.837  0.00  0.00    +0.000 A 
ATOM      2  C   UNL     1       5.558   5.878  15.302  0.00  0.00    +0.000 A 
ATOM      3  C   UNL     1       4.694   5.794  16.396  0.00  0.00    +0.000 A 
ATOM      4  C   UNL     1       4.433   4.567  17.037  0.00  0.00    +0.000 A 
ATOM      5  C   UNL     1       5.127   3.437  16.570  0.00  0.00    +0.000 A 
ATOM      6  C   UNL     1       6.011   3.519  15.490  0.00  0.00    +0.000 A 
ENDROOT
BRANCH   4   7
ATOM      7  C   UNL     1       3.446   4.476  18.134  0.00  0.00    +0.000 A 
ATOM      8  C   UNL     1       2.201   3.846  17.920  0.00  0.00    +0.000 A 
ATOM      9  C   UNL     1       1.248   3.748  18.934  0.00  0.00    +0.000 A 
ATOM     10  C   UNL     1       1.533   4.263  20.192  0.00  0.00    +0.000 A 
ATOM     11  F   UNL     1       0.619   4.162  21.165  0.00  0.00    +0.000 F 
ATOM     12  C   UNL     1       2.747   4.874  20.452  0.00  0.00    +0.000 A 
ATOM     13  C   UNL     1       3.686   4.981  19.428  0.00  0.00    +0.000 A 
ATOM     14  F   UNL     1       4.844   5.596  19.717  0.00  0.00    +0.000 F 
ENDBRANCH   4   7
BRANCH   1  16
ATOM     15  O   UNL     1       8.053   5.628  13.668  0.00  0.00    +0.000 OA
ATOM     16  C   UNL     1       7.095   4.860  13.642  0.00  0.00    +0.000 C 
BRANCH  16  17
ATOM     17  C   UNL     1       6.752   4.022  12.426  0.00  0.00    +0.000 C 
BRANCH  17  18
ATOM     18  C   UNL     1       5.369   3.395  12.526  0.00  0.00    +0.000 C 
BRANCH  18  19
ATOM     19  C   UNL     1       4.831   3.078  11.134  0.00  0.00    +0.000 C 
BRANCH  19  20
ATOM     20  C   UNL     1       3.632   3.959  10.795  0.00  0.00    +0.000 C 
BRANCH  20  21
ATOM     21  C   UNL     1       2.961   3.530   9.497  0.00  0.00    +0.000 C 
BRANCH  21  22
ATOM     22  O   UNL     1       2.660   4.659   8.687  0.00  0.00    +0.000 OA
ATOM     23  H   UNL     1       1.692   4.744   8.654  0.00  0.00    +0.000 HD
ENDBRANCH  21  22
ENDBRANCH  20  21
ENDBRANCH  19  20
ENDBRANCH  18  19
ENDBRANCH  17  18
ENDBRANCH  16  17
ENDBRANCH   1  16
TORSDOF 8
ENDMDL
MODEL 4
REMARK VINA RESULT:      -7.3      1.508      1.794
REMARK  Name = 
REMARK  8 active torsions:
REMARK  status: ('A' for Active; 'I' for Inactive)
REMARK    1  A    between atoms: C_2  and  C_3
REMARK    2  A    between atoms: C_2  and  C_9
REMARK    3  A    between atoms: C_3  and  C_4
REMARK    4  A    between atoms: C_4  and  C_5
REMARK    5  A    between atoms: C_5  and  C_6
REMARK    6  A    between atoms: C_6  and  C_7
REMARK    7  A    between atoms: C_7  and  O_8
REMARK    8  A    between atoms: C_12  and  C_13
REMARK                            x       y       z     vdW  Elec       q    Type
REMARK                         _______ _______ _______ _____ _____    ______ ____
ROOT
ATOM      1  C   UNL     1       6.088   4.582  15.002  0.00  0.00    +0.000 A 
ATOM      2  C   UNL     1       5.348   5.657  15.493  0.00  0.00    +0.000 A 
ATOM      3  C   UNL     1       4.512   5.488  16.599  0.00  0.00    +0.000 A 
ATOM      4  C   UNL     1       4.366   4.237  17.228  0.00  0.00    +0.000 A 
ATOM      5  C   UNL     1       5.144   3.175  16.736  0.00  0.00    +0.000 A 
ATOM      6  C   UNL     1       6.000   3.343  15.643  0.00  0.00    +0.000 A 
ENDROOT
BRANCH   4   7
ATOM      7  C   UNL     1       3.409   4.050  18.340  0.00  0.00    +0.000 A 
ATOM      8  C   UNL     1       3.479   4.875  19.483  0.00  0.00    +0.000 A 
ATOM      9  C   UNL     1       2.592   4.721  20.551  0.00  0.00    +0.000 A 
ATOM     10  C   UNL     1       1.605   3.747  20.483  0.00  0.00    +0.000 A 
ATOM     11  F   UNL     1       0.752   3.605  21.505  0.00  0.00    +0.000 F 
ATOM     12  C   UNL     1       1.489   2.927  19.374  0.00  0.00    +0.000 A 
ATOM     13  C   UNL     1       2.389   3.079  18.320  0.00  0.00    +0.000 A 
ATOM     14  F   UNL     1       2.253   2.252  17.271  0.00  0.00    +0.000 F 
ENDBRANCH   4   7
BRANCH   1  16
ATOM     15  O   UNL     1       7.864   5.595  13.835  0.00  0.00    +0.000 OA
ATOM     16  C   UNL     1       6.936   4.791  13.794  0.00  0.00    +0.000 C 
BRANCH  16  17
ATOM     17  C   UNL     1       6.596   3.995  12.550  0.00  0.00    +0.000 C 
BRANCH  17  18
ATOM     18  C   UNL     1       5.095   3.838  12.354  0.00  0.00    +0.000 C 
BRANCH  18  19
ATOM     19  C   UNL     1       4.807   2.725  11.351  0.00  0.00    +0.000 C 
BRANCH  19  20
ATOM     20  C   UNL     1       3.425   2.895  10.725  0.00  0.00    +0.000 C 
BRANCH  20  21
ATOM     21  C   UNL     1       3.295   4.223   9.991  0.00  0.00    +0.000 C 
BRANCH  21  22
ATOM     22  O   UNL     1       2.593   4.056   8.766  0.00  0.00    +0.000 OA
ATOM     23  H   UNL     1       2.918   4.734   8.149  0.00  0.00    +0.000 HD
ENDBRANCH  21  22
ENDBRANCH  20  21
ENDBRANCH  19  20
ENDBRANCH  18  19
ENDBRANCH  17  18
ENDBRANCH  16  17
ENDBRANCH   1  16
TORSDOF 8
ENDMDL
MODEL 5
REMARK VINA RESULT:      -7.1      6.103      8.332
REMARK  Name = 
REMARK  8 active torsions:
REMARK  status: ('A' for Active; 'I' for Inactive)
REMARK    1  A    between atoms: C_2  and  C_3
REMARK    2  A    between atoms: C_2  and  C_9
REMARK    3  A    between atoms: C_3  and  C_4
REMARK    4  A    between atoms: C_4  and  C_5
REMARK    5  A    between atoms: C_5  and  C_6
REMARK    6  A    between atoms: C_6  and  C_7
REMARK    7  A    between atoms: C_7  and  O_8
REMARK    8  A    between atoms: C_12  and  C_13
REMARK                            x       y       z     vdW  Elec       q    Type
REMARK                         _______ _______ _______ _____ _____    ______ ____
ROOT
ATOM      1  C   UNL     1       0.885   9.342  19.815  0.00  0.00    +0.000 A 
ATOM      2  C   UNL     1       1.392   8.273  20.553  0.00  0.00    +0.000 A 
ATOM      3  C   UNL     1       2.197   7.313  19.937  0.00  0.00    +0.000 A 
ATOM      4  C   UNL     1       2.496   7.373  18.562  0.00  0.00    +0.000 A 
ATOM      5  C   UNL     1       2.000   8.476  17.844  0.00  0.00    +0.000 A 
ATOM      6  C   UNL     1       1.211   9.452  18.460  0.00  0.00    +0.000 A 
ENDROOT
BRANCH   4   7
ATOM      7  C   UNL     1       3.273   6.302  17.903  0.00  0.00    +0.000 A 
ATOM      8  C   UNL     1       4.548   6.578  17.364  0.00  0.00    +0.000 A 
ATOM      9  C   UNL     1       5.304   5.588  16.732  0.00  0.00    +0.000 A 
ATOM     10  C   UNL     1       4.802   4.296  16.648  0.00  0.00    +0.000 A 
ATOM     11  F   UNL     1       5.532   3.348  16.047  0.00  0.00    +0.000 F 
ATOM     12  C   UNL     1       3.564   3.977  17.177  0.00  0.00    +0.000 A 
ATOM     13  C   UNL     1       2.811   4.975  17.791  0.00  0.00    +0.000 A 
ATOM     14  F   UNL     1       1.608   4.627  18.277  0.00  0.00    +0.000 F 
ENDBRANCH   4   7
BRANCH   1  16
ATOM     15  O   UNL     1      -0.446  10.068  21.616  0.00  0.00    +0.000 OA
ATOM     16  C   UNL     1      -0.005  10.323  20.498  0.00  0.00    +0.000 C 
BRANCH  16  17
ATOM     17  C   UNL     1      -0.338  11.604  19.760  0.00  0.00    +0.000 C 
BRANCH  17  18
ATOM     18  C   UNL     1      -1.770  11.623  19.247  0.00  0.00    +0.000 C 
BRANCH  18  19
ATOM     19  C   UNL     1      -1.785  11.615  17.721  0.00  0.00    +0.000 C 
BRANCH  19  20
ATOM     20  C   UNL     1      -2.226  10.256  17.184  0.00  0.00    +0.000 C 
BRANCH  20  21
ATOM     21  C   UNL     1      -3.348  10.387  16.163  0.00  0.00    +0.000 C 
BRANCH  21  22
ATOM     22  O   UNL     1      -3.160  11.540  15.352  0.00  0.00    +0.000 OA
ATOM     23  H   UNL     1      -2.368  12.000  15.678  0.00  0.00    +0.000 HD
ENDBRANCH  21  22
ENDBRANCH  20  21
ENDBRANCH  19  20
ENDBRANCH  18  19
ENDBRANCH  17  18
ENDBRANCH  16  17
ENDBRANCH   1  16
TORSDOF 8
ENDMDL
MODEL 6
REMARK VINA RESULT:      -7.1      5.769      7.604
REMARK  Name = 
REMARK  8 active torsions:
REMARK  status: ('A' for Active; 'I' for Inactive)
REMARK    1  A    between atoms: C_2  and  C_3
REMARK    2  A    between atoms: C_2  and  C_9
REMARK    3  A    between atoms: C_3  and  C_4
REMARK    4  A    between atoms: C_4  and  C_5
REMARK    5  A    between atoms: C_5  and  C_6
REMARK    6  A    between atoms: C_6  and  C_7
REMARK    7  A    between atoms: C_7  and  O_8
REMARK    8  A    between atoms: C_12  and  C_13
REMARK                            x       y       z     vdW  Elec       q    Type
REMARK                         _______ _______ _______ _____ _____    ______ ____
ROOT
ATOM      1  C   UNL     1       1.362   9.580  19.244  0.00  0.00    +0.000 A 
ATOM      2  C   UNL     1       1.424   8.604  20.238  0.00  0.00    +0.000 A 
ATOM      3  C   UNL     1       1.923   7.333  19.945  0.00  0.00    +0.000 A 
ATOM      4  C   UNL     1       2.346   6.989  18.647  0.00  0.00    +0.000 A 
ATOM      5  C   UNL     1       2.303   7.997  17.668  0.00  0.00    +0.000 A 
ATOM      6  C   UNL     1       1.826   9.278  17.960  0.00  0.00    +0.000 A 
ENDROOT
BRANCH   4   7
ATOM      7  C   UNL     1       2.786   5.613  18.329  0.00  0.00    +0.000 A 
ATOM      8  C   UNL     1       1.835   4.584  18.161  0.00  0.00    +0.000 A 
ATOM      9  C   UNL     1       2.220   3.275  17.865  0.00  0.00    +0.000 A 
ATOM     10  C   UNL     1       3.568   2.978  17.711  0.00  0.00    +0.000 A 
ATOM     11  F   UNL     1       3.934   1.723  17.420  0.00  0.00    +0.000 F 
ATOM     12  C   UNL     1       4.533   3.959  17.849  0.00  0.00    +0.000 A 
ATOM     13  C   UNL     1       4.140   5.260  18.161  0.00  0.00    +0.000 A 
ATOM     14  F   UNL     1       5.109   6.178  18.303  0.00  0.00    +0.000 F 
ENDBRANCH   4   7
BRANCH   1  16
ATOM     15  O   UNL     1       1.166  11.500  20.593  0.00  0.00    +0.000 OA
ATOM     16  C   UNL     1       0.784  10.911  19.585  0.00  0.00    +0.000 C 
BRANCH  16  17
ATOM     17  C   UNL     1      -0.276  11.475  18.659  0.00  0.00    +0.000 C 
BRANCH  17  18
ATOM     18  C   UNL     1      -1.528  10.611  18.617  0.00  0.00    +0.000 C 
BRANCH  18  19
ATOM     19  C   UNL     1      -1.674   9.961  17.244  0.00  0.00    +0.000 C 
BRANCH  19  20
ATOM     20  C   UNL     1      -3.122  10.015  16.763  0.00  0.00    +0.000 C 
BRANCH  20  21
ATOM     21  C   UNL     1      -3.269  10.853  15.501  0.00  0.00    +0.000 C 
BRANCH  21  22
ATOM     22  O   UNL     1      -2.681  10.194  14.386  0.00  0.00    +0.000 OA
ATOM     23  H   UNL     1      -3.210   9.399  14.205  0.00  0.00    +0.000 HD
ENDBRANCH  21  22
ENDBRANCH  20  21
ENDBRANCH  19  20
ENDBRANCH  18  19
ENDBRANCH  17  18
ENDBRANCH  16  17
ENDBRANCH   1  16
TORSDOF 8
ENDMDL
MODEL 7
REMARK VINA RESULT:      -7.1      1.707      1.898
REMARK  Name = 
REMARK  8 active torsions:
REMARK  status: ('A' for Active; 'I' for Inactive)
REMARK    1  A    between atoms: C_2  and  C_3
REMARK    2  A    between atoms: C_2  and  C_9
REMARK    3  A    between atoms: C_3  and  C_4
REMARK    4  A    between atoms: C_4  and  C_5
REMARK    5  A    between atoms: C_5  and  C_6
REMARK    6  A    between atoms: C_6  and  C_7
REMARK    7  A    between atoms: C_7  and  O_8
REMARK    8  A    between atoms: C_12  and  C_13
REMARK                            x       y       z     vdW  Elec       q    Type
REMARK                         _______ _______ _______ _____ _____    ______ ____
ROOT
ATOM      1  C   UNL     1       5.485   4.679  15.714  0.00  0.00    +0.000 A 
ATOM      2  C   UNL     1       5.071   3.363  15.917  0.00  0.00    +0.000 A 
ATOM      3  C   UNL     1       4.255   3.044  17.005  0.00  0.00    +0.000 A 
ATOM      4  C   UNL     1       3.856   4.020  17.939  0.00  0.00    +0.000 A 
ATOM      5  C   UNL     1       4.261   5.344  17.698  0.00  0.00    +0.000 A 
ATOM      6  C   UNL     1       5.058   5.674  16.597  0.00  0.00    +0.000 A 
ENDROOT
BRANCH   4   7
ATOM      7  C   UNL     1       3.070   3.652  19.136  0.00  0.00    +0.000 A 
ATOM      8  C   UNL     1       1.726   4.067  19.258  0.00  0.00    +0.000 A 
ATOM      9  C   UNL     1       0.959   3.739  20.378  0.00  0.00    +0.000 A 
ATOM     10  C   UNL     1       1.521   2.970  21.389  0.00  0.00    +0.000 A 
ATOM     11  F   UNL     1       0.782   2.652  22.459  0.00  0.00    +0.000 F 
ATOM     12  C   UNL     1       2.830   2.528  21.303  0.00  0.00    +0.000 A 
ATOM     13  C   UNL     1       3.592   2.874  20.188  0.00  0.00    +0.000 A 
ATOM     14  F   UNL     1       4.861   2.438  20.152  0.00  0.00    +0.000 F 
ENDBRANCH   4   7
BRANCH   1  16
ATOM     15  O   UNL     1       7.451   5.559  14.763  0.00  0.00    +0.000 OA
ATOM     16  C   UNL     1       6.389   4.973  14.566  0.00  0.00    +0.000 C 
BRANCH  16  17
ATOM     17  C   UNL     1       5.939   4.536  13.186  0.00  0.00    +0.000 C 
BRANCH  17  18
ATOM     18  C   UNL     1       6.730   3.343  12.669  0.00  0.00    +0.000 C 
BRANCH  18  19
ATOM     19  C   UNL     1       5.925   2.595  11.610  0.00  0.00    +0.000 C 
BRANCH  19  20
ATOM     20  C   UNL     1       6.682   1.366  11.112  0.00  0.00    +0.000 C 
BRANCH  20  21
ATOM     21  C   UNL     1       5.820   0.112  11.161  0.00  0.00    +0.000 C 
BRANCH  21  22
ATOM     22  O   UNL     1       6.589  -1.014  11.560  0.00  0.00    +0.000 OA
ATOM     23  H   UNL     1       7.438  -0.682  11.899  0.00  0.00    +0.000 HD
ENDBRANCH  21  22
ENDBRANCH  20  21
ENDBRANCH  19  20
ENDBRANCH  18  19
ENDBRANCH  17  18
ENDBRANCH  16  17
ENDBRANCH   1  16
TORSDOF 8
ENDMDL
MODEL 8
REMARK VINA RESULT:      -7.0      3.662      4.161
REMARK  Name = 
REMARK  8 active torsions:
REMARK  status: ('A' for Active; 'I' for Inactive)
REMARK    1  A    between atoms: C_2  and  C_3
REMARK    2  A    between atoms: C_2  and  C_9
REMARK    3  A    between atoms: C_3  and  C_4
REMARK    4  A    between atoms: C_4  and  C_5
REMARK    5  A    between atoms: C_5  and  C_6
REMARK    6  A    between atoms: C_6  and  C_7
REMARK    7  A    between atoms: C_7  and  O_8
REMARK    8  A    between atoms: C_12  and  C_13
REMARK                            x       y       z     vdW  Elec       q    Type
REMARK                         _______ _______ _______ _____ _____    ______ ____
ROOT
ATOM      1  C   UNL     1       5.392   5.279  16.403  0.00  0.00    +0.000 A 
ATOM      2  C   UNL     1       4.317   4.621  17.002  0.00  0.00    +0.000 A 
ATOM      3  C   UNL     1       3.378   5.340  17.743  0.00  0.00    +0.000 A 
ATOM      4  C   UNL     1       3.498   6.729  17.937  0.00  0.00    +0.000 A 
ATOM      5  C   UNL     1       4.572   7.377  17.301  0.00  0.00    +0.000 A 
ATOM      6  C   UNL     1       5.503   6.666  16.538  0.00  0.00    +0.000 A 
ENDROOT
BRANCH   4   7
ATOM      7  C   UNL     1       2.548   7.463  18.801  0.00  0.00    +0.000 A 
ATOM      8  C   UNL     1       2.209   6.958  20.074  0.00  0.00    +0.000 A 
ATOM      9  C   UNL     1       1.312   7.626  20.910  0.00  0.00    +0.000 A 
ATOM     10  C   UNL     1       0.753   8.826  20.492  0.00  0.00    +0.000 A 
ATOM     11  F   UNL     1      -0.102   9.468  21.298  0.00  0.00    +0.000 F 
ATOM     12  C   UNL     1       1.070   9.367  19.258  0.00  0.00    +0.000 A 
ATOM     13  C   UNL     1       1.954   8.685  18.424  0.00  0.00    +0.000 A 
ATOM     14  F   UNL     1       2.222   9.235  17.229  0.00  0.00    +0.000 F 
ENDBRANCH   4   7
BRANCH   1  16
ATOM     15  O   UNL     1       7.594   4.690  15.818  0.00  0.00    +0.000 OA
ATOM     16  C   UNL     1       6.396   4.472  15.656  0.00  0.00    +0.000 C 
BRANCH  16  17
ATOM     17  C   UNL     1       5.880   3.410  14.705  0.00  0.00    +0.000 C 
BRANCH  17  18
ATOM     18  C   UNL     1       5.447   3.991  13.367  0.00  0.00    +0.000 C 
BRANCH  18  19
ATOM     19  C   UNL     1       6.316   3.434  12.243  0.00  0.00    +0.000 C 
BRANCH  19  20
ATOM     20  C   UNL     1       5.665   2.212  11.601  0.00  0.00    +0.000 C 
BRANCH  20  21
ATOM     21  C   UNL     1       6.701   1.227  11.077  0.00  0.00    +0.000 C 
BRANCH  21  22
ATOM     22  O   UNL     1       6.222  -0.108  11.171  0.00  0.00    +0.000 OA
ATOM     23  H   UNL     1       6.953  -0.698  10.919  0.00  0.00    +0.000 HD
ENDBRANCH  21  22
ENDBRANCH  20  21
ENDBRANCH  19  20
ENDBRANCH  18  19
ENDBRANCH  17  18
ENDBRANCH  16  17
ENDBRANCH   1  16
TORSDOF 8
ENDMDL
MODEL 9
REMARK VINA RESULT:      -7.0      5.939      8.136
REMARK  Name = 
REMARK  8 active torsions:
REMARK  status: ('A' for Active; 'I' for Inactive)
REMARK    1  A    between atoms: C_2  and  C_3
REMARK    2  A    between atoms: C_2  and  C_9
REMARK    3  A    between atoms: C_3  and  C_4
REMARK    4  A    between atoms: C_4  and  C_5
REMARK    5  A    between atoms: C_5  and  C_6
REMARK    6  A    between atoms: C_6  and  C_7
REMARK    7  A    between atoms: C_7  and  O_8
REMARK    8  A    between atoms: C_12  and  C_13
REMARK                            x       y       z     vdW  Elec       q    Type
REMARK                         _______ _______ _______ _____ _____    ______ ____
ROOT
ATOM      1  C   UNL     1       1.195   9.295  19.565  0.00  0.00    +0.000 A 
ATOM      2  C   UNL     1       1.529   9.387  18.215  0.00  0.00    +0.000 A 
ATOM      3  C   UNL     1       2.266   8.371  17.603  0.00  0.00    +0.000 A 
ATOM      4  C   UNL     1       2.717   7.250  18.325  0.00  0.00    +0.000 A 
ATOM      5  C   UNL     1       2.343   7.163  19.678  0.00  0.00    +0.000 A 
ATOM      6  C   UNL     1       1.586   8.166  20.291  0.00  0.00    +0.000 A 
ENDROOT
BRANCH   4   7
ATOM      7  C   UNL     1       3.574   6.226  17.688  0.00  0.00    +0.000 A 
ATOM      8  C   UNL     1       4.836   6.581  17.166  0.00  0.00    +0.000 A 
ATOM      9  C   UNL     1       5.665   5.639  16.556  0.00  0.00    +0.000 A 
ATOM     10  C   UNL     1       5.251   4.316  16.474  0.00  0.00    +0.000 A 
ATOM     11  F   UNL     1       6.051   3.413  15.893  0.00  0.00    +0.000 F 
ATOM     12  C   UNL     1       4.028   3.920  16.986  0.00  0.00    +0.000 A 
ATOM     13  C   UNL     1       3.201   4.872  17.580  0.00  0.00    +0.000 A 
ATOM     14  F   UNL     1       2.016   4.449  18.049  0.00  0.00    +0.000 F 
ENDBRANCH   4   7
BRANCH   1  16
ATOM     15  O   UNL     1       0.403  10.514  21.417  0.00  0.00    +0.000 OA
ATOM     16  C   UNL     1       0.445  10.420  20.193  0.00  0.00    +0.000 C 
BRANCH  16  17
ATOM     17  C   UNL     1      -0.252  11.402  19.272  0.00  0.00    +0.000 C 
BRANCH  17  18
ATOM     18  C   UNL     1      -1.714  11.046  19.044  0.00  0.00    +0.000 C 
BRANCH  18  19
ATOM     19  C   UNL     1      -1.849  10.113  17.844  0.00  0.00    +0.000 C 
BRANCH  19  20
ATOM     20  C   UNL     1      -3.241  10.215  17.224  0.00  0.00    +0.000 C 
BRANCH  20  21
ATOM     21  C   UNL     1      -3.186  10.192  15.703  0.00  0.00    +0.000 C 
BRANCH  21  22
ATOM     22  O   UNL     1      -3.302  11.506  15.174  0.00  0.00    +0.000 OA
ATOM     23  H   UNL     1      -2.449  11.952  15.312  0.00  0.00    +0.000 HD
ENDBRANCH  21  22
ENDBRANCH  20  21
ENDBRANCH  19  20
ENDBRANCH  18  19
ENDBRANCH  17  18
ENDBRANCH  16  17
ENDBRANCH   1  16
TORSDOF 8
ENDMDL
