MODEL 1
REMARK VINA RESULT:      -5.9      0.000      0.000
REMARK  Name = 
REMARK  11 active torsions:
REMARK  status: ('A' for Active; 'I' for Inactive)
REMARK    1  A    between atoms: C_2  and  C_3
REMARK    2  A    between atoms: C_3  and  C_4
REMARK    3  A    between atoms: C_10  and  O_11
REMARK    4  A    between atoms: O_11  and  C_12
REMARK    5  A    between atoms: C_12  and  C_13
REMARK    6  A    between atoms: C_13  and  O_14
REMARK    7  A    between atoms: O_14  and  C_15
REMARK    8  A    between atoms: C_15  and  C_16
REMARK    9  A    between atoms: C_16  and  N_17
REMARK   10  A    between atoms: N_17  and  C_18
REMARK   11  A    between atoms: N_17  and  C_19
REMARK                            x       y       z     vdW  Elec       q    Type
REMARK                         _______ _______ _______ _____ _____    ______ ____
ROOT
ATOM      1  C   UNL     1       6.853   4.616  16.509  0.00  0.00    +0.000 A 
ATOM      2  C   UNL     1       7.572   4.997  15.344  0.00  0.00    +0.000 A 
ATOM      3  C   UNL     1       7.056   4.811  14.072  0.00  0.00    +0.000 A 
ATOM      4 CL   UNL     1       7.942   5.351  12.703  0.00  0.00    +0.000 Cl
ATOM      5  C   UNL     1       5.812   4.230  13.913  0.00  0.00    +0.000 A 
ATOM      6  C   UNL     1       5.084   3.830  15.034  0.00  0.00    +0.000 A 
ATOM      7  C   UNL     1       5.579   3.986  16.342  0.00  0.00    +0.000 A 
ENDROOT
BRANCH   1   8
ATOM      8  C   UNL     1       7.572   5.053  17.784  0.00  0.00    +0.000 C 
BRANCH   8  10
ATOM      9  C   UNL     1       7.884   7.609  17.846  0.00  0.00    +0.000 C 
ATOM     10  C   UNL     1       7.396   6.455  18.315  0.00  0.00    +0.000 C 
ENDBRANCH   8  10
ENDBRANCH   1   8
BRANCH   7  11
ATOM     11  O   UNL     1       4.737   3.647  17.411  0.00  0.00    +0.000 OA
BRANCH  11  12
ATOM     12  C   UNL     1       3.501   4.428  17.517  0.00  0.00    +0.000 C 
BRANCH  12  13
ATOM     13  C   UNL     1       2.098   3.719  17.520  0.00  0.00    +0.000 C 
BRANCH  13  14
ATOM     14  O   UNL     1       2.072   2.331  17.879  0.00  0.00    +0.000 OA
BRANCH  14  15
ATOM     15  C   UNL     1       1.377   2.074  19.130  0.00  0.00    +0.000 C 
BRANCH  15  16
ATOM     16  C   UNL     1       0.767   3.311  19.850  0.00  0.00    +0.000 C 
BRANCH  16  17
ATOM     17  N   UNL     1       1.454   3.711  21.094  0.00  0.00    +0.000 NA
ATOM     18  C   UNL     1       2.468   2.729  21.489  0.00  0.00    +0.000 C 
ATOM     19  C   UNL     1       2.087   5.025  20.943  0.00  0.00    +0.000 C 
ENDBRANCH  16  17
ENDBRANCH  15  16
ENDBRANCH  14  15
ENDBRANCH  13  14
ENDBRANCH  12  13
ENDBRANCH  11  12
ENDBRANCH   7  11
TORSDOF 9
ENDMDL
MODEL 2
REMARK VINA RESULT:      -5.9      3.617      6.803
REMARK  Name = 
REMARK  11 active torsions:
REMARK  status: ('A' for Active; 'I' for Inactive)
REMARK    1  A    between atoms: C_2  and  C_3
REMARK    2  A    between atoms: C_3  and  C_4
REMARK    3  A    between atoms: C_10  and  O_11
REMARK    4  A    between atoms: O_11  and  C_12
REMARK    5  A    between atoms: C_12  and  C_13
REMARK    6  A    between atoms: C_13  and  O_14
REMARK    7  A    between atoms: O_14  and  C_15
REMARK    8  A    between atoms: C_15  and  C_16
REMARK    9  A    between atoms: C_16  and  N_17
REMARK   10  A    between atoms: N_17  and  C_18
REMARK   11  A    between atoms: N_17  and  C_19
REMARK                            x       y       z     vdW  Elec       q    Type
REMARK                         _______ _______ _______ _____ _____    ______ ____
ROOT
ATOM      1  C   UNL     1       1.656   5.023  19.806  0.00  0.00    +0.000 A 
ATOM      2  C   UNL     1       1.357   6.069  20.719  0.00  0.00    +0.000 A 
ATOM      3  C   UNL     1       1.685   7.389  20.455  0.00  0.00    +0.000 A 
ATOM      4 CL   UNL     1       1.240   8.619  21.567  0.00  0.00    +0.000 Cl
ATOM      5  C   UNL     1       2.331   7.713  19.277  0.00  0.00    +0.000 A 
ATOM      6  C   UNL     1       2.655   6.709  18.362  0.00  0.00    +0.000 A 
ATOM      7  C   UNL     1       2.353   5.355  18.601  0.00  0.00    +0.000 A 
ENDROOT
BRANCH   1   8
ATOM      8  C   UNL     1       1.069   3.689  20.263  0.00  0.00    +0.000 C 
BRANCH   8  10
ATOM      9  C   UNL     1       2.711   2.272  21.653  0.00  0.00    +0.000 C 
ATOM     10  C   UNL     1       1.602   3.005  21.498  0.00  0.00    +0.000 C 
ENDBRANCH   8  10
ENDBRANCH   1   8
BRANCH   7  11
ATOM     11  O   UNL     1       2.625   4.430  17.582  0.00  0.00    +0.000 OA
BRANCH  11  12
ATOM     12  C   UNL     1       3.725   3.498  17.848  0.00  0.00    +0.000 C 
BRANCH  12  13
ATOM     13  C   UNL     1       4.767   3.788  18.989  0.00  0.00    +0.000 C 
BRANCH  13  14
ATOM     14  O   UNL     1       6.082   4.189  18.583  0.00  0.00    +0.000 OA
BRANCH  14  15
ATOM     15  C   UNL     1       6.182   5.607  18.281  0.00  0.00    +0.000 C 
BRANCH  15  16
ATOM     16  C   UNL     1       7.216   6.012  17.191  0.00  0.00    +0.000 C 
BRANCH  16  17
ATOM     17  N   UNL     1       6.711   5.966  15.805  0.00  0.00    +0.000 NA
ATOM     18  C   UNL     1       6.983   4.671  15.176  0.00  0.00    +0.000 C 
ATOM     19  C   UNL     1       5.270   6.231  15.763  0.00  0.00    +0.000 C 
ENDBRANCH  16  17
ENDBRANCH  15  16
ENDBRANCH  14  15
ENDBRANCH  13  14
ENDBRANCH  12  13
ENDBRANCH  11  12
ENDBRANCH   7  11
TORSDOF 9
ENDMDL
MODEL 3
REMARK VINA RESULT:      -5.8      1.294      1.805
REMARK  Name = 
REMARK  11 active torsions:
REMARK  status: ('A' for Active; 'I' for Inactive)
REMARK    1  A    between atoms: C_2  and  C_3
REMARK    2  A    between atoms: C_3  and  C_4
REMARK    3  A    between atoms: C_10  and  O_11
REMARK    4  A    between atoms: O_11  and  C_12
REMARK    5  A    between atoms: C_12  and  C_13
REMARK    6  A    between atoms: C_13  and  O_14
REMARK    7  A    between atoms: O_14  and  C_15
REMARK    8  A    between atoms: C_15  and  C_16
REMARK    9  A    between atoms: C_16  and  N_17
REMARK   10  A    between atoms: N_17  and  C_18
REMARK   11  A    between atoms: N_17  and  C_19
REMARK                            x       y       z     vdW  Elec       q    Type
REMARK                         _______ _______ _______ _____ _____    ______ ____
ROOT
ATOM      1  C   UNL     1       6.783   4.616  16.677  0.00  0.00    +0.000 A 
ATOM      2  C   UNL     1       7.508   4.895  15.488  0.00  0.00    +0.000 A 
ATOM      3  C   UNL     1       6.935   4.769  14.233  0.00  0.00    +0.000 A 
ATOM      4 CL   UNL     1       7.840   5.183  12.834  0.00  0.00    +0.000 Cl
ATOM      5  C   UNL     1       5.622   4.352  14.116  0.00  0.00    +0.000 A 
ATOM      6  C   UNL     1       4.883   4.054  15.263  0.00  0.00    +0.000 A 
ATOM      7  C   UNL     1       5.434   4.154  16.554  0.00  0.00    +0.000 A 
ENDROOT
BRANCH   1   8
ATOM      8  C   UNL     1       7.589   4.965  17.926  0.00  0.00    +0.000 C 
BRANCH   8  10
ATOM      9  C   UNL     1       7.625   7.533  17.716  0.00  0.00    +0.000 C 
ATOM     10  C   UNL     1       7.658   6.391  18.414  0.00  0.00    +0.000 C 
ENDBRANCH   8  10
ENDBRANCH   1   8
BRANCH   7  11
ATOM     11  O   UNL     1       4.588   3.932  17.651  0.00  0.00    +0.000 OA
BRANCH  11  12
ATOM     12  C   UNL     1       3.681   5.033  17.985  0.00  0.00    +0.000 C 
BRANCH  12  13
ATOM     13  C   UNL     1       3.795   5.779  19.364  0.00  0.00    +0.000 C 
BRANCH  13  14
ATOM     14  O   UNL     1       2.570   6.086  20.041  0.00  0.00    +0.000 OA
BRANCH  14  15
ATOM     15  C   UNL     1       1.702   4.932  20.210  0.00  0.00    +0.000 C 
BRANCH  15  16
ATOM     16  C   UNL     1       2.112   3.912  21.311  0.00  0.00    +0.000 C 
BRANCH  16  17
ATOM     17  N   UNL     1       2.390   2.547  20.824  0.00  0.00    +0.000 NA
ATOM     18  C   UNL     1       1.675   2.264  19.576  0.00  0.00    +0.000 C 
ATOM     19  C   UNL     1       3.827   2.348  20.614  0.00  0.00    +0.000 C 
ENDBRANCH  16  17
ENDBRANCH  15  16
ENDBRANCH  14  15
ENDBRANCH  13  14
ENDBRANCH  12  13
ENDBRANCH  11  12
ENDBRANCH   7  11
TORSDOF 9
ENDMDL
MODEL 4
REMARK VINA RESULT:      -5.8      1.900      3.482
REMARK  Name = 
REMARK  11 active torsions:
REMARK  status: ('A' for Active; 'I' for Inactive)
REMARK    1  A    between atoms: C_2  and  C_3
REMARK    2  A    between atoms: C_3  and  C_4
REMARK    3  A    between atoms: C_10  and  O_11
REMARK    4  A    between atoms: O_11  and  C_12
REMARK    5  A    between atoms: C_12  and  C_13
REMARK    6  A    between atoms: C_13  and  O_14
REMARK    7  A    between atoms: O_14  and  C_15
REMARK    8  A    between atoms: C_15  and  C_16
REMARK    9  A    between atoms: C_16  and  N_17
REMARK   10  A    between atoms: N_17  and  C_18
REMARK   11  A    between atoms: N_17  and  C_19
REMARK                            x       y       z     vdW  Elec       q    Type
REMARK                         _______ _______ _______ _____ _____    ______ ____
ROOT
ATOM      1  C   UNL     1       5.887   5.167  16.059  0.00  0.00    +0.000 A 
ATOM      2  C   UNL     1       6.701   6.267  16.441  0.00  0.00    +0.000 A 
ATOM      3  C   UNL     1       7.067   6.484  17.760  0.00  0.00    +0.000 A 
ATOM      4 CL   UNL     1       8.106   7.793  18.154  0.00  0.00    +0.000 Cl
ATOM      5  C   UNL     1       6.629   5.620  18.745  0.00  0.00    +0.000 A 
ATOM      6  C   UNL     1       5.815   4.536  18.409  0.00  0.00    +0.000 A 
ATOM      7  C   UNL     1       5.408   4.291  17.084  0.00  0.00    +0.000 A 
ENDROOT
BRANCH   1   8
ATOM      8  C   UNL     1       5.745   5.071  14.541  0.00  0.00    +0.000 C 
BRANCH   8  10
ATOM      9  C   UNL     1       6.112   3.522  12.516  0.00  0.00    +0.000 C 
ATOM     10  C   UNL     1       6.255   3.857  13.804  0.00  0.00    +0.000 C 
ENDBRANCH   8  10
ENDBRANCH   1   8
BRANCH   7  11
ATOM     11  O   UNL     1       4.674   3.123  16.825  0.00  0.00    +0.000 OA
BRANCH  11  12
ATOM     12  C   UNL     1       3.481   2.928  17.653  0.00  0.00    +0.000 C 
BRANCH  12  13
ATOM     13  C   UNL     1       3.308   1.629  18.521  0.00  0.00    +0.000 C 
BRANCH  13  14
ATOM     14  O   UNL     1       4.086   1.541  19.722  0.00  0.00    +0.000 OA
BRANCH  14  15
ATOM     15  C   UNL     1       3.884   2.665  20.621  0.00  0.00    +0.000 C 
BRANCH  15  16
ATOM     16  C   UNL     1       2.546   2.685  21.415  0.00  0.00    +0.000 C 
BRANCH  16  17
ATOM     17  N   UNL     1       1.658   3.824  21.112  0.00  0.00    +0.000 NA
ATOM     18  C   UNL     1       2.416   4.986  20.638  0.00  0.00    +0.000 C 
ATOM     19  C   UNL     1       0.658   3.455  20.106  0.00  0.00    +0.000 C 
ENDBRANCH  16  17
ENDBRANCH  15  16
ENDBRANCH  14  15
ENDBRANCH  13  14
ENDBRANCH  12  13
ENDBRANCH  11  12
ENDBRANCH   7  11
TORSDOF 9
ENDMDL
MODEL 5
REMARK VINA RESULT:      -5.7      4.687      7.923
REMARK  Name = 
REMARK  11 active torsions:
REMARK  status: ('A' for Active; 'I' for Inactive)
REMARK    1  A    between atoms: C_2  and  C_3
REMARK    2  A    between atoms: C_3  and  C_4
REMARK    3  A    between atoms: C_10  and  O_11
REMARK    4  A    between atoms: O_11  and  C_12
REMARK    5  A    between atoms: C_12  and  C_13
REMARK    6  A    between atoms: C_13  and  O_14
REMARK    7  A    between atoms: O_14  and  C_15
REMARK    8  A    between atoms: C_15  and  C_16
REMARK    9  A    between atoms: C_16  and  N_17
REMARK   10  A    between atoms: N_17  and  C_18
REMARK   11  A    between atoms: N_17  and  C_19
REMARK                            x       y       z     vdW  Elec       q    Type
REMARK                         _______ _______ _______ _____ _____    ______ ____
ROOT
ATOM      1  C   UNL     1       5.660   5.055  16.477  0.00  0.00    +0.000 A 
ATOM      2  C   UNL     1       4.579   4.180  16.765  0.00  0.00    +0.000 A 
ATOM      3  C   UNL     1       3.433   4.619  17.409  0.00  0.00    +0.000 A 
ATOM      4 CL   UNL     1       2.131   3.531  17.672  0.00  0.00    +0.000 Cl
ATOM      5  C   UNL     1       3.327   5.941  17.796  0.00  0.00    +0.000 A 
ATOM      6  C   UNL     1       4.377   6.827  17.543  0.00  0.00    +0.000 A 
ATOM      7  C   UNL     1       5.563   6.416  16.907  0.00  0.00    +0.000 A 
ENDROOT
BRANCH   1   8
ATOM      8  C   UNL     1       6.737   4.365  15.642  0.00  0.00    +0.000 C 
BRANCH   8  10
ATOM      9  C   UNL     1       5.593   4.011  13.362  0.00  0.00    +0.000 C 
ATOM     10  C   UNL     1       6.634   4.337  14.137  0.00  0.00    +0.000 C 
ENDBRANCH   8  10
ENDBRANCH   1   8
BRANCH   7  11
ATOM     11  O   UNL     1       6.521   7.395  16.604  0.00  0.00    +0.000 OA
BRANCH  11  12
ATOM     12  C   UNL     1       7.558   7.603  17.618  0.00  0.00    +0.000 C 
BRANCH  12  13
ATOM     13  C   UNL     1       8.154   9.035  17.878  0.00  0.00    +0.000 C 
BRANCH  13  14
ATOM     14  O   UNL     1       9.037   9.178  18.998  0.00  0.00    +0.000 OA
BRANCH  14  15
ATOM     15  C   UNL     1       9.259  10.563  19.380  0.00  0.00    +0.000 C 
BRANCH  15  16
ATOM     16  C   UNL     1      10.538  11.242  18.812  0.00  0.00    +0.000 C 
BRANCH  16  17
ATOM     17  N   UNL     1      10.311  12.135  17.658  0.00  0.00    +0.000 NA
ATOM     18  C   UNL     1       8.968  12.722  17.689  0.00  0.00    +0.000 C 
ATOM     19  C   UNL     1      11.308  13.210  17.623  0.00  0.00    +0.000 C 
ENDBRANCH  16  17
ENDBRANCH  15  16
ENDBRANCH  14  15
ENDBRANCH  13  14
ENDBRANCH  12  13
ENDBRANCH  11  12
ENDBRANCH   7  11
TORSDOF 9
ENDMDL
MODEL 6
REMARK VINA RESULT:      -5.7      3.361      6.516
REMARK  Name = 
REMARK  11 active torsions:
REMARK  status: ('A' for Active; 'I' for Inactive)
REMARK    1  A    between atoms: C_2  and  C_3
REMARK    2  A    between atoms: C_3  and  C_4
REMARK    3  A    between atoms: C_10  and  O_11
REMARK    4  A    between atoms: O_11  and  C_12
REMARK    5  A    between atoms: C_12  and  C_13
REMARK    6  A    between atoms: C_13  and  O_14
REMARK    7  A    between atoms: O_14  and  C_15
REMARK    8  A    between atoms: C_15  and  C_16
REMARK    9  A    between atoms: C_16  and  N_17
REMARK   10  A    between atoms: N_17  and  C_18
REMARK   11  A    between atoms: N_17  and  C_19
REMARK                            x       y       z     vdW  Elec       q    Type
REMARK                         _______ _______ _______ _____ _____    ______ ____
ROOT
ATOM      1  C   UNL     1       2.509   5.556  20.154  0.00  0.00    +0.000 A 
ATOM      2  C   UNL     1       1.849   6.765  20.502  0.00  0.00    +0.000 A 
ATOM      3  C   UNL     1       1.868   7.875  19.673  0.00  0.00    +0.000 A 
ATOM      4 CL   UNL     1       0.997   9.287  20.116  0.00  0.00    +0.000 Cl
ATOM      5  C   UNL     1       2.551   7.825  18.473  0.00  0.00    +0.000 A 
ATOM      6  C   UNL     1       3.225   6.658  18.105  0.00  0.00    +0.000 A 
ATOM      7  C   UNL     1       3.243   5.515  18.927  0.00  0.00    +0.000 A 
ENDROOT
BRANCH   1   8
ATOM      8  C   UNL     1       2.221   4.446  21.162  0.00  0.00    +0.000 C 
BRANCH   8  10
ATOM      9  C   UNL     1       0.934   2.774  19.684  0.00  0.00    +0.000 C 
ATOM     10  C   UNL     1       1.204   3.377  20.848  0.00  0.00    +0.000 C 
ENDBRANCH   8  10
ENDBRANCH   1   8
BRANCH   7  11
ATOM     11  O   UNL     1       3.860   4.357  18.431  0.00  0.00    +0.000 OA
BRANCH  11  12
ATOM     12  C   UNL     1       3.918   4.245  16.970  0.00  0.00    +0.000 C 
BRANCH  12  13
ATOM     13  C   UNL     1       5.149   3.570  16.263  0.00  0.00    +0.000 C 
BRANCH  13  14
ATOM     14  O   UNL     1       5.825   4.340  15.260  0.00  0.00    +0.000 OA
BRANCH  14  15
ATOM     15  C   UNL     1       7.033   4.985  15.748  0.00  0.00    +0.000 C 
BRANCH  15  16
ATOM     16  C   UNL     1       7.410   4.716  17.233  0.00  0.00    +0.000 C 
BRANCH  16  17
ATOM     17  N   UNL     1       7.108   5.822  18.163  0.00  0.00    +0.000 NA
ATOM     18  C   UNL     1       7.923   5.740  19.379  0.00  0.00    +0.000 C 
ATOM     19  C   UNL     1       7.326   7.121  17.520  0.00  0.00    +0.000 C 
ENDBRANCH  16  17
ENDBRANCH  15  16
ENDBRANCH  14  15
ENDBRANCH  13  14
ENDBRANCH  12  13
ENDBRANCH  11  12
ENDBRANCH   7  11
TORSDOF 9
ENDMDL
MODEL 7
REMARK VINA RESULT:      -5.7      3.805      6.596
REMARK  Name = 
REMARK  11 active torsions:
REMARK  status: ('A' for Active; 'I' for Inactive)
REMARK    1  A    between atoms: C_2  and  C_3
REMARK    2  A    between atoms: C_3  and  C_4
REMARK    3  A    between atoms: C_10  and  O_11
REMARK    4  A    between atoms: O_11  and  C_12
REMARK    5  A    between atoms: C_12  and  C_13
REMARK    6  A    between atoms: C_13  and  O_14
REMARK    7  A    between atoms: O_14  and  C_15
REMARK    8  A    between atoms: C_15  and  C_16
REMARK    9  A    between atoms: C_16  and  N_17
REMARK   10  A    between atoms: N_17  and  C_18
REMARK   11  A    between atoms: N_17  and  C_19
REMARK                            x       y       z     vdW  Elec       q    Type
REMARK                         _______ _______ _______ _____ _____    ______ ____
ROOT
ATOM      1  C   UNL     1       3.378   5.302  18.219  0.00  0.00    +0.000 A 
ATOM      2  C   UNL     1       2.211   4.497  18.135  0.00  0.00    +0.000 A 
ATOM      3  C   UNL     1       2.119   3.271  18.775  0.00  0.00    +0.000 A 
ATOM      4 CL   UNL     1       0.658   2.372  18.692  0.00  0.00    +0.000 Cl
ATOM      5  C   UNL     1       3.188   2.799  19.511  0.00  0.00    +0.000 A 
ATOM      6  C   UNL     1       4.358   3.556  19.603  0.00  0.00    +0.000 A 
ATOM      7  C   UNL     1       4.496   4.798  18.955  0.00  0.00    +0.000 A 
ENDROOT
BRANCH   1   8
ATOM      8  C   UNL     1       3.177   6.659  17.549  0.00  0.00    +0.000 C 
BRANCH   8  10
ATOM      9  C   UNL     1       2.062   8.966  17.822  0.00  0.00    +0.000 C 
ATOM     10  C   UNL     1       2.448   7.765  18.272  0.00  0.00    +0.000 C 
ENDBRANCH   8  10
ENDBRANCH   1   8
BRANCH   7  11
ATOM     11  O   UNL     1       5.668   5.534  19.186  0.00  0.00    +0.000 OA
BRANCH  11  12
ATOM     12  C   UNL     1       6.836   5.132  18.396  0.00  0.00    +0.000 C 
BRANCH  12  13
ATOM     13  C   UNL     1       6.888   5.392  16.847  0.00  0.00    +0.000 C 
BRANCH  13  14
ATOM     14  O   UNL     1       7.194   4.270  16.009  0.00  0.00    +0.000 OA
BRANCH  14  15
ATOM     15  C   UNL     1       6.029   3.728  15.328  0.00  0.00    +0.000 C 
BRANCH  15  16
ATOM     16  C   UNL     1       5.705   4.324  13.928  0.00  0.00    +0.000 C 
BRANCH  16  17
ATOM     17  N   UNL     1       6.041   3.452  12.785  0.00  0.00    +0.000 NA
ATOM     18  C   UNL     1       4.880   3.230  11.918  0.00  0.00    +0.000 C 
ATOM     19  C   UNL     1       7.135   4.024  11.994  0.00  0.00    +0.000 C 
ENDBRANCH  16  17
ENDBRANCH  15  16
ENDBRANCH  14  15
ENDBRANCH  13  14
ENDBRANCH  12  13
ENDBRANCH  11  12
ENDBRANCH   7  11
TORSDOF 9
ENDMDL
MODEL 8
REMARK VINA RESULT:      -5.7      1.157      1.233
REMARK  Name = 
REMARK  11 active torsions:
REMARK  status: ('A' for Active; 'I' for Inactive)
REMARK    1  A    between atoms: C_2  and  C_3
REMARK    2  A    between atoms: C_3  and  C_4
REMARK    3  A    between atoms: C_10  and  O_11
REMARK    4  A    between atoms: O_11  and  C_12
REMARK    5  A    between atoms: C_12  and  C_13
REMARK    6  A    between atoms: C_13  and  O_14
REMARK    7  A    between atoms: O_14  and  C_15
REMARK    8  A    between atoms: C_15  and  C_16
REMARK    9  A    between atoms: C_16  and  N_17
REMARK   10  A    between atoms: N_17  and  C_18
REMARK   11  A    between atoms: N_17  and  C_19
REMARK                            x       y       z     vdW  Elec       q    Type
REMARK                         _______ _______ _______ _____ _____    ______ ____
ROOT
ATOM      1  C   UNL     1       6.716   5.187  17.379  0.00  0.00    +0.000 A 
ATOM      2  C   UNL     1       7.399   5.291  16.138  0.00  0.00    +0.000 A 
ATOM      3  C   UNL     1       6.820   4.885  14.947  0.00  0.00    +0.000 A 
ATOM      4 CL   UNL     1       7.669   5.096  13.468  0.00  0.00    +0.000 Cl
ATOM      5  C   UNL     1       5.546   4.351  14.949  0.00  0.00    +0.000 A 
ATOM      6  C   UNL     1       4.850   4.219  16.152  0.00  0.00    +0.000 A 
ATOM      7  C   UNL     1       5.409   4.605  17.385  0.00  0.00    +0.000 A 
ENDROOT
BRANCH   1   8
ATOM      8  C   UNL     1       7.509   5.829  18.515  0.00  0.00    +0.000 C 
BRANCH   8  10
ATOM      9  C   UNL     1       7.658   8.257  17.665  0.00  0.00    +0.000 C 
ATOM     10  C   UNL     1       8.122   7.197  18.339  0.00  0.00    +0.000 C 
ENDBRANCH   8  10
ENDBRANCH   1   8
BRANCH   7  11
ATOM     11  O   UNL     1       4.600   4.529  18.528  0.00  0.00    +0.000 OA
BRANCH  11  12
ATOM     12  C   UNL     1       4.575   3.229  19.204  0.00  0.00    +0.000 C 
BRANCH  12  13
ATOM     13  C   UNL     1       3.983   1.961  18.487  0.00  0.00    +0.000 C 
BRANCH  13  14
ATOM     14  O   UNL     1       2.588   1.695  18.682  0.00  0.00    +0.000 OA
BRANCH  14  15
ATOM     15  C   UNL     1       1.759   2.887  18.601  0.00  0.00    +0.000 C 
BRANCH  15  16
ATOM     16  C   UNL     1       0.683   3.059  19.711  0.00  0.00    +0.000 C 
BRANCH  16  17
ATOM     17  N   UNL     1       1.097   3.889  20.859  0.00  0.00    +0.000 NA
ATOM     18  C   UNL     1       1.980   3.150  21.766  0.00  0.00    +0.000 C 
ATOM     19  C   UNL     1       1.777   5.107  20.407  0.00  0.00    +0.000 C 
ENDBRANCH  16  17
ENDBRANCH  15  16
ENDBRANCH  14  15
ENDBRANCH  13  14
ENDBRANCH  12  13
ENDBRANCH  11  12
ENDBRANCH   7  11
TORSDOF 9
ENDMDL
MODEL 9
REMARK VINA RESULT:      -5.6      4.241      7.409
REMARK  Name = 
REMARK  11 active torsions:
REMARK  status: ('A' for Active; 'I' for Inactive)
REMARK    1  A    between atoms: C_2  and  C_3
REMARK    2  A    between atoms: C_3  and  C_4
REMARK    3  A    between atoms: C_10  and  O_11
REMARK    4  A    between atoms: O_11  and  C_12
REMARK    5  A    between atoms: C_12  and  C_13
REMARK    6  A    between atoms: C_13  and  O_14
REMARK    7  A    between atoms: O_14  and  C_15
REMARK    8  A    between atoms: C_15  and  C_16
REMARK    9  A    between atoms: C_16  and  N_17
REMARK   10  A    between atoms: N_17  and  C_18
REMARK   11  A    between atoms: N_17  and  C_19
REMARK                            x       y       z     vdW  Elec       q    Type
REMARK                         _______ _______ _______ _____ _____    ______ ____
ROOT
ATOM      1  C   UNL     1       5.595   4.310  17.132  0.00  0.00    +0.000 A 
ATOM      2  C   UNL     1       4.186   4.208  16.985  0.00  0.00    +0.000 A 
ATOM      3  C   UNL     1       3.312   4.651  17.965  0.00  0.00    +0.000 A 
ATOM      4 CL   UNL     1       1.617   4.562  17.704  0.00  0.00    +0.000 Cl
ATOM      5  C   UNL     1       3.810   5.202  19.130  0.00  0.00    +0.000 A 
ATOM      6  C   UNL     1       5.191   5.305  19.316  0.00  0.00    +0.000 A 
ATOM      7  C   UNL     1       6.110   4.852  18.352  0.00  0.00    +0.000 A 
ENDROOT
BRANCH   1   8
ATOM      8  C   UNL     1       6.327   3.885  15.861  0.00  0.00    +0.000 C 
BRANCH   8  10
ATOM      9  C   UNL     1       6.607   4.388  13.350  0.00  0.00    +0.000 C 
ATOM     10  C   UNL     1       6.059   4.590  14.554  0.00  0.00    +0.000 C 
ENDBRANCH   8  10
ENDBRANCH   1   8
BRANCH   7  11
ATOM     11  O   UNL     1       7.474   5.087  18.580  0.00  0.00    +0.000 OA
BRANCH  11  12
ATOM     12  C   UNL     1       7.872   6.496  18.651  0.00  0.00    +0.000 C 
BRANCH  12  13
ATOM     13  C   UNL     1       7.462   7.506  17.518  0.00  0.00    +0.000 C 
BRANCH  13  14
ATOM     14  O   UNL     1       7.799   8.884  17.722  0.00  0.00    +0.000 OA
BRANCH  14  15
ATOM     15  C   UNL     1       8.829   9.081  18.729  0.00  0.00    +0.000 C 
BRANCH  15  16
ATOM     16  C   UNL     1       9.154  10.554  19.108  0.00  0.00    +0.000 C 
BRANCH  16  17
ATOM     17  N   UNL     1      10.133  11.224  18.228  0.00  0.00    +0.000 NA
ATOM     18  C   UNL     1       9.600  12.477  17.687  0.00  0.00    +0.000 C 
ATOM     19  C   UNL     1      11.381  11.498  18.948  0.00  0.00    +0.000 C 
ENDBRANCH  16  17
ENDBRANCH  15  16
ENDBRANCH  14  15
ENDBRANCH  13  14
ENDBRANCH  12  13
ENDBRANCH  11  12
ENDBRANCH   7  11
TORSDOF 9
ENDMDL
