MODEL 1
REMARK VINA RESULT:      -7.1      0.000      0.000
REMARK  Name = 
REMARK  15 active torsions:
REMARK  status: ('A' for Active; 'I' for Inactive)
REMARK    1  A    between atoms: C_1  and  C_2
REMARK    2  A    between atoms: C_2  and  C_3
REMARK    3  A    between atoms: C_3  and  C_4
REMARK    4  A    between atoms: C_4  and  N_5
REMARK    5  A    between atoms: C_4  and  C_14
REMARK    6  A    between atoms: C_6  and  C_8
REMARK    7  A    between atoms: C_8  and  O_9
REMARK    8  A    between atoms: C_8  and  C_10
REMARK    9  A    between atoms: C_10  and  C_11
REMARK   10  A    between atoms: C_10  and  C_12
REMARK   11  A    between atoms: C_10  and  C_13
REMARK   12  A    between atoms: C_20  and  C_21
REMARK   13  A    between atoms: C_21  and  C_22
REMARK   14  A    between atoms: C_21  and  C_23
REMARK   15  A    between atoms: C_21  and  O_24
REMARK                            x       y       z     vdW  Elec       q    Type
REMARK                         _______ _______ _______ _____ _____    ______ ____
ROOT
ATOM      1  C   UNL     1       4.813   5.068  17.384  0.00  0.00    +0.000 C 
ENDROOT
BRANCH   1   2
ATOM      2  C   UNL     1       4.089   6.428  17.288  0.00  0.00    +0.000 C 
ATOM      3  O   UNL     1       4.300   7.181  16.339  0.00  0.00    +0.000 OA
ATOM      4  N   UNL     1       3.193   6.629  18.323  0.00  0.00    +0.000 N 
ATOM      5  C   UNL     1       2.480   7.797  18.430  0.00  0.00    +0.000 A 
ATOM      6  N   UNL     1       2.345   8.759  17.555  0.00  0.00    +0.000 NA
ATOM      7  C   UNL     1       1.589   9.775  18.099  0.00  0.00    +0.000 A 
ATOM      8  C   UNL     1       1.171   9.596  19.409  0.00  0.00    +0.000 A 
ATOM      9  S   UNL     1       1.696   8.034  19.929  0.00  0.00    +0.000 S 
ATOM     10  H   UNL     1       3.082   5.942  19.055  0.00  0.00    +0.000 HD
BRANCH   8  11
ATOM     11  C   UNL     1       0.438  10.580  20.290  0.00  0.00    +0.000 C 
ATOM     12  C   UNL     1      -0.508  11.524  19.550  0.00  0.00    +0.000 C 
ATOM     13  C   UNL     1      -0.308   9.849  21.411  0.00  0.00    +0.000 C 
BRANCH  11  14
ATOM     14  O   UNL     1       1.439  11.389  20.920  0.00  0.00    +0.000 OA
ATOM     15  H   UNL     1       1.037  12.253  21.116  0.00  0.00    +0.000 HD
ENDBRANCH  11  14
ENDBRANCH   8  11
ENDBRANCH   1   2
BRANCH   1  16
ATOM     16  N   UNL     1       3.988   4.155  18.170  0.00  0.00    +0.000 N 
ATOM     17  C   UNL     1       4.455   3.616  19.348  0.00  0.00    +0.000 C 
ATOM     18  O   UNL     1       5.573   3.895  19.770  0.00  0.00    +0.000 OA
ATOM     19  H   UNL     1       2.980   4.149  18.026  0.00  0.00    +0.000 HD
BRANCH  17  20
ATOM     20  C   UNL     1       3.441   2.678  20.060  0.00  0.00    +0.000 C 
BRANCH  20  21
ATOM     21  C   UNL     1       2.130   3.369  20.548  0.00  0.00    +0.000 C 
ATOM     22  C   UNL     1       1.110   3.504  19.401  0.00  0.00    +0.000 C 
ATOM     23  C   UNL     1       1.470   2.514  21.654  0.00  0.00    +0.000 C 
ATOM     24  C   UNL     1       2.410   4.763  21.142  0.00  0.00    +0.000 C 
ENDBRANCH  20  21
BRANCH  20  25
ATOM     25  O   UNL     1       4.090   1.994  21.141  0.00  0.00    +0.000 OA
ATOM     26  H   UNL     1       4.956   1.689  20.815  0.00  0.00    +0.000 HD
ENDBRANCH  20  25
ENDBRANCH  17  20
ENDBRANCH   1  16
BRANCH   1  27
ATOM     27  C   UNL     1       5.081   4.460  16.002  0.00  0.00    +0.000 C 
BRANCH  27  29
ATOM     28  C   UNL     1       7.440   4.527  16.888  0.00  0.00    +0.000 C 
ATOM     29  C   UNL     1       6.568   4.483  15.644  0.00  0.00    +0.000 C 
ENDBRANCH  27  29
ENDBRANCH   1  27
TORSDOF 9
ENDMDL
MODEL 2
REMARK VINA RESULT:      -7.0      1.179      1.581
REMARK  Name = 
REMARK  15 active torsions:
REMARK  status: ('A' for Active; 'I' for Inactive)
REMARK    1  A    between atoms: C_1  and  C_2
REMARK    2  A    between atoms: C_2  and  C_3
REMARK    3  A    between atoms: C_3  and  C_4
REMARK    4  A    between atoms: C_4  and  N_5
REMARK    5  A    between atoms: C_4  and  C_14
REMARK    6  A    between atoms: C_6  and  C_8
REMARK    7  A    between atoms: C_8  and  O_9
REMARK    8  A    between atoms: C_8  and  C_10
REMARK    9  A    between atoms: C_10  and  C_11
REMARK   10  A    between atoms: C_10  and  C_12
REMARK   11  A    between atoms: C_10  and  C_13
REMARK   12  A    between atoms: C_20  and  C_21
REMARK   13  A    between atoms: C_21  and  C_22
REMARK   14  A    between atoms: C_21  and  C_23
REMARK   15  A    between atoms: C_21  and  O_24
REMARK                            x       y       z     vdW  Elec       q    Type
REMARK                         _______ _______ _______ _____ _____    ______ ____
ROOT
ATOM      1  C   UNL     1       5.664   5.433  17.105  0.00  0.00    +0.000 C 
ENDROOT
BRANCH   1   2
ATOM      2  C   UNL     1       4.668   6.610  17.021  0.00  0.00    +0.000 C 
ATOM      3  O   UNL     1       4.675   7.364  16.050  0.00  0.00    +0.000 OA
ATOM      4  N   UNL     1       3.796   6.649  18.094  0.00  0.00    +0.000 N 
ATOM      5  C   UNL     1       2.860   7.646  18.215  0.00  0.00    +0.000 A 
ATOM      6  N   UNL     1       2.489   8.533  17.331  0.00  0.00    +0.000 NA
ATOM      7  C   UNL     1       1.562   9.385  17.893  0.00  0.00    +0.000 A 
ATOM      8  C   UNL     1       1.249   9.159  19.225  0.00  0.00    +0.000 A 
ATOM      9  S   UNL     1       2.110   7.755  19.746  0.00  0.00    +0.000 S 
ATOM     10  H   UNL     1       3.863   5.974  18.843  0.00  0.00    +0.000 HD
BRANCH   8  11
ATOM     11  C   UNL     1       0.365   9.993  20.123  0.00  0.00    +0.000 C 
ATOM     12  C   UNL     1       0.023   9.348  21.466  0.00  0.00    +0.000 C 
ATOM     13  C   UNL     1       0.973  11.382  20.340  0.00  0.00    +0.000 C 
BRANCH  11  14
ATOM     14  O   UNL     1      -0.867  10.187  19.418  0.00  0.00    +0.000 OA
ATOM     15  H   UNL     1      -0.705  10.848  18.722  0.00  0.00    +0.000 HD
ENDBRANCH  11  14
ENDBRANCH   8  11
ENDBRANCH   1   2
BRANCH   1  16
ATOM     16  N   UNL     1       4.935   4.233  17.506  0.00  0.00    +0.000 N 
ATOM     17  C   UNL     1       4.934   3.812  18.817  0.00  0.00    +0.000 C 
ATOM     18  O   UNL     1       5.540   4.437  19.682  0.00  0.00    +0.000 OA
ATOM     19  H   UNL     1       4.191   3.882  16.907  0.00  0.00    +0.000 HD
BRANCH  17  20
ATOM     20  C   UNL     1       4.096   2.527  19.068  0.00  0.00    +0.000 C 
BRANCH  20  21
ATOM     21  C   UNL     1       2.697   2.766  19.715  0.00  0.00    +0.000 C 
ATOM     22  C   UNL     1       2.121   4.137  19.311  0.00  0.00    +0.000 C 
ATOM     23  C   UNL     1       1.705   1.686  19.225  0.00  0.00    +0.000 C 
ATOM     24  C   UNL     1       2.759   2.677  21.252  0.00  0.00    +0.000 C 
ENDBRANCH  20  21
BRANCH  20  25
ATOM     25  O   UNL     1       4.863   1.592  19.839  0.00  0.00    +0.000 OA
ATOM     26  H   UNL     1       5.704   1.448  19.371  0.00  0.00    +0.000 HD
ENDBRANCH  20  25
ENDBRANCH  17  20
ENDBRANCH   1  16
BRANCH   1  27
ATOM     27  C   UNL     1       6.373   5.182  15.769  0.00  0.00    +0.000 C 
BRANCH  27  29
ATOM     28  C   UNL     1       6.097   3.885  13.625  0.00  0.00    +0.000 C 
ATOM     29  C   UNL     1       5.953   3.853  15.137  0.00  0.00    +0.000 C 
ENDBRANCH  27  29
ENDBRANCH   1  27
TORSDOF 9
ENDMDL
MODEL 3
REMARK VINA RESULT:      -6.9      0.642      1.274
REMARK  Name = 
REMARK  15 active torsions:
REMARK  status: ('A' for Active; 'I' for Inactive)
REMARK    1  A    between atoms: C_1  and  C_2
REMARK    2  A    between atoms: C_2  and  C_3
REMARK    3  A    between atoms: C_3  and  C_4
REMARK    4  A    between atoms: C_4  and  N_5
REMARK    5  A    between atoms: C_4  and  C_14
REMARK    6  A    between atoms: C_6  and  C_8
REMARK    7  A    between atoms: C_8  and  O_9
REMARK    8  A    between atoms: C_8  and  C_10
REMARK    9  A    between atoms: C_10  and  C_11
REMARK   10  A    between atoms: C_10  and  C_12
REMARK   11  A    between atoms: C_10  and  C_13
REMARK   12  A    between atoms: C_20  and  C_21
REMARK   13  A    between atoms: C_21  and  C_22
REMARK   14  A    between atoms: C_21  and  C_23
REMARK   15  A    between atoms: C_21  and  O_24
REMARK                            x       y       z     vdW  Elec       q    Type
REMARK                         _______ _______ _______ _____ _____    ______ ____
ROOT
ATOM      1  C   UNL     1       4.804   5.196  17.310  0.00  0.00    +0.000 C 
ENDROOT
BRANCH   1   2
ATOM      2  C   UNL     1       4.060   6.547  17.239  0.00  0.00    +0.000 C 
ATOM      3  O   UNL     1       4.261   7.321  16.305  0.00  0.00    +0.000 OA
ATOM      4  N   UNL     1       3.160   6.716  18.277  0.00  0.00    +0.000 N 
ATOM      5  C   UNL     1       2.430   7.871  18.404  0.00  0.00    +0.000 A 
ATOM      6  N   UNL     1       2.281   8.847  17.547  0.00  0.00    +0.000 NA
ATOM      7  C   UNL     1       1.510   9.842  18.110  0.00  0.00    +0.000 A 
ATOM      8  C   UNL     1       1.095   9.632  19.415  0.00  0.00    +0.000 A 
ATOM      9  S   UNL     1       1.641   8.069  19.907  0.00  0.00    +0.000 S 
ATOM     10  H   UNL     1       3.059   6.014  18.996  0.00  0.00    +0.000 HD
BRANCH   8  11
ATOM     11  C   UNL     1       0.346  10.589  20.314  0.00  0.00    +0.000 C 
ATOM     12  C   UNL     1      -0.009  10.031  21.692  0.00  0.00    +0.000 C 
ATOM     13  C   UNL     1       1.111  11.909  20.455  0.00  0.00    +0.000 C 
BRANCH  11  14
ATOM     14  O   UNL     1      -0.886  10.895  19.649  0.00  0.00    +0.000 OA
ATOM     15  H   UNL     1      -0.931  11.861  19.547  0.00  0.00    +0.000 HD
ENDBRANCH  11  14
ENDBRANCH   8  11
ENDBRANCH   1   2
BRANCH   1  16
ATOM     16  N   UNL     1       3.983   4.251  18.062  0.00  0.00    +0.000 N 
ATOM     17  C   UNL     1       4.448   3.680  19.225  0.00  0.00    +0.000 C 
ATOM     18  O   UNL     1       5.561   3.956  19.663  0.00  0.00    +0.000 OA
ATOM     19  H   UNL     1       2.976   4.241  17.912  0.00  0.00    +0.000 HD
BRANCH  17  20
ATOM     20  C   UNL     1       3.439   2.710  19.901  0.00  0.00    +0.000 C 
BRANCH  20  21
ATOM     21  C   UNL     1       2.162   3.388  20.488  0.00  0.00    +0.000 C 
ATOM     22  C   UNL     1       2.477   4.794  21.032  0.00  0.00    +0.000 C 
ATOM     23  C   UNL     1       1.100   3.549  19.377  0.00  0.00    +0.000 C 
ATOM     24  C   UNL     1       1.535   2.540  21.612  0.00  0.00    +0.000 C 
ENDBRANCH  20  21
BRANCH  20  25
ATOM     25  O   UNL     1       4.111   1.933  20.901  0.00  0.00    +0.000 OA
ATOM     26  H   UNL     1       3.657   1.072  20.957  0.00  0.00    +0.000 HD
ENDBRANCH  20  25
ENDBRANCH  17  20
ENDBRANCH   1  16
BRANCH   1  27
ATOM     27  C   UNL     1       5.100   4.628  15.917  0.00  0.00    +0.000 C 
BRANCH  27  29
ATOM     28  C   UNL     1       7.433   4.645  16.872  0.00  0.00    +0.000 C 
ATOM     29  C   UNL     1       6.511   4.044  15.824  0.00  0.00    +0.000 C 
ENDBRANCH  27  29
ENDBRANCH   1  27
TORSDOF 9
ENDMDL
MODEL 4
REMARK VINA RESULT:      -6.9      0.649      1.211
REMARK  Name = 
REMARK  15 active torsions:
REMARK  status: ('A' for Active; 'I' for Inactive)
REMARK    1  A    between atoms: C_1  and  C_2
REMARK    2  A    between atoms: C_2  and  C_3
REMARK    3  A    between atoms: C_3  and  C_4
REMARK    4  A    between atoms: C_4  and  N_5
REMARK    5  A    between atoms: C_4  and  C_14
REMARK    6  A    between atoms: C_6  and  C_8
REMARK    7  A    between atoms: C_8  and  O_9
REMARK    8  A    between atoms: C_8  and  C_10
REMARK    9  A    between atoms: C_10  and  C_11
REMARK   10  A    between atoms: C_10  and  C_12
REMARK   11  A    between atoms: C_10  and  C_13
REMARK   12  A    between atoms: C_20  and  C_21
REMARK   13  A    between atoms: C_21  and  C_22
REMARK   14  A    between atoms: C_21  and  C_23
REMARK   15  A    between atoms: C_21  and  O_24
REMARK                            x       y       z     vdW  Elec       q    Type
REMARK                         _______ _______ _______ _____ _____    ______ ____
ROOT
ATOM      1  C   UNL     1       4.827   4.863  17.219  0.00  0.00    +0.000 C 
ENDROOT
BRANCH   1   2
ATOM      2  C   UNL     1       4.187   6.265  17.132  0.00  0.00    +0.000 C 
ATOM      3  O   UNL     1       4.461   7.018  16.200  0.00  0.00    +0.000 OA
ATOM      4  N   UNL     1       3.283   6.502  18.152  0.00  0.00    +0.000 N 
ATOM      5  C   UNL     1       2.638   7.708  18.264  0.00  0.00    +0.000 A 
ATOM      6  N   UNL     1       2.577   8.690  17.403  0.00  0.00    +0.000 NA
ATOM      7  C   UNL     1       1.871   9.741  17.950  0.00  0.00    +0.000 A 
ATOM      8  C   UNL     1       1.417   9.566  19.247  0.00  0.00    +0.000 A 
ATOM      9  S   UNL     1       1.837   7.968  19.751  0.00  0.00    +0.000 S 
ATOM     10  H   UNL     1       3.117   5.812  18.870  0.00  0.00    +0.000 HD
BRANCH   8  11
ATOM     11  C   UNL     1       0.724  10.577  20.131  0.00  0.00    +0.000 C 
ATOM     12  C   UNL     1       1.106  12.032  19.863  0.00  0.00    +0.000 C 
ATOM     13  C   UNL     1      -0.796  10.405  20.060  0.00  0.00    +0.000 C 
BRANCH  11  14
ATOM     14  O   UNL     1       1.112  10.276  21.477  0.00  0.00    +0.000 OA
ATOM     15  H   UNL     1       0.753  10.978  22.048  0.00  0.00    +0.000 HD
ENDBRANCH  11  14
ENDBRANCH   8  11
ENDBRANCH   1   2
BRANCH   1  16
ATOM     16  N   UNL     1       3.985   4.016  18.059  0.00  0.00    +0.000 N 
ATOM     17  C   UNL     1       4.439   3.551  19.273  0.00  0.00    +0.000 C 
ATOM     18  O   UNL     1       5.560   3.840  19.682  0.00  0.00    +0.000 OA
ATOM     19  H   UNL     1       2.978   4.017  17.911  0.00  0.00    +0.000 HD
BRANCH  17  20
ATOM     20  C   UNL     1       3.408   2.677  20.041  0.00  0.00    +0.000 C 
BRANCH  20  21
ATOM     21  C   UNL     1       2.121   3.427  20.505  0.00  0.00    +0.000 C 
ATOM     22  C   UNL     1       1.378   2.637  21.599  0.00  0.00    +0.000 C 
ATOM     23  C   UNL     1       2.506   4.799  21.106  0.00  0.00    +0.000 C 
ATOM     24  C   UNL     1       1.161   3.688  19.329  0.00  0.00    +0.000 C 
ENDBRANCH  20  21
BRANCH  20  25
ATOM     25  O   UNL     1       4.050   2.032  21.149  0.00  0.00    +0.000 OA
ATOM     26  H   UNL     1       3.552   1.217  21.342  0.00  0.00    +0.000 HD
ENDBRANCH  20  25
ENDBRANCH  17  20
ENDBRANCH   1  16
BRANCH   1  27
ATOM     27  C   UNL     1       4.990   4.217  15.837  0.00  0.00    +0.000 C 
BRANCH  27  29
ATOM     28  C   UNL     1       6.503   4.197  13.821  0.00  0.00    +0.000 C 
ATOM     29  C   UNL     1       6.434   4.291  15.336  0.00  0.00    +0.000 C 
ENDBRANCH  27  29
ENDBRANCH   1  27
TORSDOF 9
ENDMDL
MODEL 5
REMARK VINA RESULT:      -6.9      0.985      1.509
REMARK  Name = 
REMARK  15 active torsions:
REMARK  status: ('A' for Active; 'I' for Inactive)
REMARK    1  A    between atoms: C_1  and  C_2
REMARK    2  A    between atoms: C_2  and  C_3
REMARK    3  A    between atoms: C_3  and  C_4
REMARK    4  A    between atoms: C_4  and  N_5
REMARK    5  A    between atoms: C_4  and  C_14
REMARK    6  A    between atoms: C_6  and  C_8
REMARK    7  A    between atoms: C_8  and  O_9
REMARK    8  A    between atoms: C_8  and  C_10
REMARK    9  A    between atoms: C_10  and  C_11
REMARK   10  A    between atoms: C_10  and  C_12
REMARK   11  A    between atoms: C_10  and  C_13
REMARK   12  A    between atoms: C_20  and  C_21
REMARK   13  A    between atoms: C_21  and  C_22
REMARK   14  A    between atoms: C_21  and  C_23
REMARK   15  A    between atoms: C_21  and  O_24
REMARK                            x       y       z     vdW  Elec       q    Type
REMARK                         _______ _______ _______ _____ _____    ______ ____
ROOT
ATOM      1  C   UNL     1       5.573   5.395  17.129  0.00  0.00    +0.000 C 
ENDROOT
BRANCH   1   2
ATOM      2  C   UNL     1       4.631   6.615  17.026  0.00  0.00    +0.000 C 
ATOM      3  O   UNL     1       4.709   7.384  16.071  0.00  0.00    +0.000 OA
ATOM      4  N   UNL     1       3.720   6.673  18.066  0.00  0.00    +0.000 N 
ATOM      5  C   UNL     1       2.822   7.706  18.167  0.00  0.00    +0.000 A 
ATOM      6  N   UNL     1       2.524   8.624  17.286  0.00  0.00    +0.000 NA
ATOM      7  C   UNL     1       1.611   9.505  17.827  0.00  0.00    +0.000 A 
ATOM      8  C   UNL     1       1.236   9.270  19.140  0.00  0.00    +0.000 A 
ATOM      9  S   UNL     1       2.016   7.822  19.669  0.00  0.00    +0.000 S 
ATOM     10  H   UNL     1       3.729   5.984  18.804  0.00  0.00    +0.000 HD
BRANCH   8  11
ATOM     11  C   UNL     1       0.353  10.125  20.018  0.00  0.00    +0.000 C 
ATOM     12  C   UNL     1      -0.961  10.565  19.374  0.00  0.00    +0.000 C 
ATOM     13  C   UNL     1       0.083   9.428  21.356  0.00  0.00    +0.000 C 
BRANCH  11  14
ATOM     14  O   UNL     1       1.099  11.312  20.315  0.00  0.00    +0.000 OA
ATOM     15  H   UNL     1       0.742  11.684  21.140  0.00  0.00    +0.000 HD
ENDBRANCH  11  14
ENDBRANCH   8  11
ENDBRANCH   1   2
BRANCH   1  16
ATOM     16  N   UNL     1       4.777   4.218  17.461  0.00  0.00    +0.000 N 
ATOM     17  C   UNL     1       4.741   3.729  18.748  0.00  0.00    +0.000 C 
ATOM     18  O   UNL     1       5.372   4.273  19.648  0.00  0.00    +0.000 OA
ATOM     19  H   UNL     1       4.020   3.940  16.839  0.00  0.00    +0.000 HD
BRANCH  17  20
ATOM     20  C   UNL     1       3.832   2.479  18.924  0.00  0.00    +0.000 C 
BRANCH  20  21
ATOM     21  C   UNL     1       2.497   2.736  19.688  0.00  0.00    +0.000 C 
ATOM     22  C   UNL     1       2.702   2.665  21.213  0.00  0.00    +0.000 C 
ATOM     23  C   UNL     1       1.972   4.153  19.358  0.00  0.00    +0.000 C 
ATOM     24  C   UNL     1       1.405   1.729  19.277  0.00  0.00    +0.000 C 
ENDBRANCH  20  21
BRANCH  20  25
ATOM     25  O   UNL     1       4.578   1.422  19.542  0.00  0.00    +0.000 OA
ATOM     26  H   UNL     1       5.371   1.266  18.996  0.00  0.00    +0.000 HD
ENDBRANCH  20  25
ENDBRANCH  17  20
ENDBRANCH   1  16
BRANCH   1  27
ATOM     27  C   UNL     1       6.338   5.148  15.823  0.00  0.00    +0.000 C 
BRANCH  27  29
ATOM     28  C   UNL     1       6.141   3.942  13.618  0.00  0.00    +0.000 C 
ATOM     29  C   UNL     1       5.863   3.880  15.111  0.00  0.00    +0.000 C 
ENDBRANCH  27  29
ENDBRANCH   1  27
TORSDOF 9
ENDMDL
MODEL 6
REMARK VINA RESULT:      -6.9      2.047      4.440
REMARK  Name = 
REMARK  15 active torsions:
REMARK  status: ('A' for Active; 'I' for Inactive)
REMARK    1  A    between atoms: C_1  and  C_2
REMARK    2  A    between atoms: C_2  and  C_3
REMARK    3  A    between atoms: C_3  and  C_4
REMARK    4  A    between atoms: C_4  and  N_5
REMARK    5  A    between atoms: C_4  and  C_14
REMARK    6  A    between atoms: C_6  and  C_8
REMARK    7  A    between atoms: C_8  and  O_9
REMARK    8  A    between atoms: C_8  and  C_10
REMARK    9  A    between atoms: C_10  and  C_11
REMARK   10  A    between atoms: C_10  and  C_12
REMARK   11  A    between atoms: C_10  and  C_13
REMARK   12  A    between atoms: C_20  and  C_21
REMARK   13  A    between atoms: C_21  and  C_22
REMARK   14  A    between atoms: C_21  and  C_23
REMARK   15  A    between atoms: C_21  and  O_24
REMARK                            x       y       z     vdW  Elec       q    Type
REMARK                         _______ _______ _______ _____ _____    ______ ____
ROOT
ATOM      1  C   UNL     1       2.848   4.661  19.589  0.00  0.00    +0.000 C 
ENDROOT
BRANCH   1   2
ATOM      2  C   UNL     1       2.079   5.879  20.145  0.00  0.00    +0.000 C 
ATOM      3  O   UNL     1       1.423   5.781  21.180  0.00  0.00    +0.000 OA
ATOM      4  N   UNL     1       2.272   7.022  19.390  0.00  0.00    +0.000 N 
ATOM      5  C   UNL     1       1.640   8.199  19.707  0.00  0.00    +0.000 A 
ATOM      6  N   UNL     1       0.980   8.509  20.791  0.00  0.00    +0.000 NA
ATOM      7  C   UNL     1       0.456   9.779  20.665  0.00  0.00    +0.000 A 
ATOM      8  C   UNL     1       0.697  10.425  19.462  0.00  0.00    +0.000 A 
ATOM      9  S   UNL     1       1.700   9.403  18.496  0.00  0.00    +0.000 S 
ATOM     10  H   UNL     1       2.841   7.004  18.556  0.00  0.00    +0.000 HD
BRANCH   8  11
ATOM     11  C   UNL     1       0.156  11.759  19.004  0.00  0.00    +0.000 C 
ATOM     12  C   UNL     1      -0.794  12.441  19.987  0.00  0.00    +0.000 C 
ATOM     13  C   UNL     1       1.301  12.706  18.627  0.00  0.00    +0.000 C 
BRANCH  11  14
ATOM     14  O   UNL     1      -0.583  11.508  17.802  0.00  0.00    +0.000 OA
ATOM     15  H   UNL     1      -1.392  12.048  17.838  0.00  0.00    +0.000 HD
ENDBRANCH  11  14
ENDBRANCH   8  11
ENDBRANCH   1   2
BRANCH   1  16
ATOM     16  N   UNL     1       4.228   5.061  19.329  0.00  0.00    +0.000 N 
ATOM     17  C   UNL     1       4.931   4.529  18.271  0.00  0.00    +0.000 C 
ATOM     18  O   UNL     1       4.413   3.712  17.515  0.00  0.00    +0.000 OA
ATOM     19  H   UNL     1       4.573   5.934  19.721  0.00  0.00    +0.000 HD
BRANCH  17  20
ATOM     20  C   UNL     1       6.380   5.076  18.134  0.00  0.00    +0.000 C 
BRANCH  20  21
ATOM     21  C   UNL     1       6.605   6.062  16.946  0.00  0.00    +0.000 C 
ATOM     22  C   UNL     1       7.142   5.325  15.704  0.00  0.00    +0.000 C 
ATOM     23  C   UNL     1       5.262   6.716  16.549  0.00  0.00    +0.000 C 
ATOM     24  C   UNL     1       7.580   7.193  17.324  0.00  0.00    +0.000 C 
ENDBRANCH  20  21
BRANCH  20  25
ATOM     25  O   UNL     1       7.306   3.984  18.075  0.00  0.00    +0.000 OA
ATOM     26  H   UNL     1       8.186   4.334  18.305  0.00  0.00    +0.000 HD
ENDBRANCH  20  25
ENDBRANCH  17  20
ENDBRANCH   1  16
BRANCH   1  27
ATOM     27  C   UNL     1       2.829   3.475  20.560  0.00  0.00    +0.000 C 
BRANCH  27  29
ATOM     28  C   UNL     1       1.253   2.665  18.768  0.00  0.00    +0.000 C 
ATOM     29  C   UNL     1       1.773   2.437  20.177  0.00  0.00    +0.000 C 
ENDBRANCH  27  29
ENDBRANCH   1  27
TORSDOF 9
ENDMDL
MODEL 7
REMARK VINA RESULT:      -6.9      2.008      4.433
REMARK  Name = 
REMARK  15 active torsions:
REMARK  status: ('A' for Active; 'I' for Inactive)
REMARK    1  A    between atoms: C_1  and  C_2
REMARK    2  A    between atoms: C_2  and  C_3
REMARK    3  A    between atoms: C_3  and  C_4
REMARK    4  A    between atoms: C_4  and  N_5
REMARK    5  A    between atoms: C_4  and  C_14
REMARK    6  A    between atoms: C_6  and  C_8
REMARK    7  A    between atoms: C_8  and  O_9
REMARK    8  A    between atoms: C_8  and  C_10
REMARK    9  A    between atoms: C_10  and  C_11
REMARK   10  A    between atoms: C_10  and  C_12
REMARK   11  A    between atoms: C_10  and  C_13
REMARK   12  A    between atoms: C_20  and  C_21
REMARK   13  A    between atoms: C_21  and  C_22
REMARK   14  A    between atoms: C_21  and  C_23
REMARK   15  A    between atoms: C_21  and  O_24
REMARK                            x       y       z     vdW  Elec       q    Type
REMARK                         _______ _______ _______ _____ _____    ______ ____
ROOT
ATOM      1  C   UNL     1       2.791   4.770  19.536  0.00  0.00    +0.000 C 
ENDROOT
BRANCH   1   2
ATOM      2  C   UNL     1       2.041   6.001  20.088  0.00  0.00    +0.000 C 
ATOM      3  O   UNL     1       1.398   5.923  21.132  0.00  0.00    +0.000 OA
ATOM      4  N   UNL     1       2.236   7.134  19.317  0.00  0.00    +0.000 N 
ATOM      5  C   UNL     1       1.620   8.320  19.628  0.00  0.00    +0.000 A 
ATOM      6  N   UNL     1       0.977   8.651  20.716  0.00  0.00    +0.000 NA
ATOM      7  C   UNL     1       0.464   9.923  20.582  0.00  0.00    +0.000 A 
ATOM      8  C   UNL     1       0.696  10.553  19.369  0.00  0.00    +0.000 A 
ATOM      9  S   UNL     1       1.676   9.510  18.402  0.00  0.00    +0.000 S 
ATOM     10  H   UNL     1       2.794   7.100  18.476  0.00  0.00    +0.000 HD
BRANCH   8  11
ATOM     11  C   UNL     1       0.163  11.888  18.902  0.00  0.00    +0.000 C 
ATOM     12  C   UNL     1      -1.202  11.830  18.218  0.00  0.00    +0.000 C 
ATOM     13  C   UNL     1       0.138  12.894  20.056  0.00  0.00    +0.000 C 
BRANCH  11  14
ATOM     14  O   UNL     1       1.100  12.387  17.939  0.00  0.00    +0.000 OA
ATOM     15  H   UNL     1       1.935  12.563  18.408  0.00  0.00    +0.000 HD
ENDBRANCH  11  14
ENDBRANCH   8  11
ENDBRANCH   1   2
BRANCH   1  16
ATOM     16  N   UNL     1       4.181   5.143  19.286  0.00  0.00    +0.000 N 
ATOM     17  C   UNL     1       4.882   4.595  18.235  0.00  0.00    +0.000 C 
ATOM     18  O   UNL     1       4.355   3.784  17.479  0.00  0.00    +0.000 OA
ATOM     19  H   UNL     1       4.538   6.012  19.677  0.00  0.00    +0.000 HD
BRANCH  17  20
ATOM     20  C   UNL     1       6.341   5.115  18.108  0.00  0.00    +0.000 C 
BRANCH  20  21
ATOM     21  C   UNL     1       6.605   6.052  16.889  0.00  0.00    +0.000 C 
ATOM     22  C   UNL     1       5.305   6.726  16.410  0.00  0.00    +0.000 C 
ATOM     23  C   UNL     1       7.584   7.176  17.297  0.00  0.00    +0.000 C 
ATOM     24  C   UNL     1       7.240   5.287  15.712  0.00  0.00    +0.000 C 
ENDBRANCH  20  21
BRANCH  20  25
ATOM     25  O   UNL     1       7.252   4.008  18.108  0.00  0.00    +0.000 OA
ATOM     26  H   UNL     1       7.309   3.676  17.194  0.00  0.00    +0.000 HD
ENDBRANCH  20  25
ENDBRANCH  17  20
ENDBRANCH   1  16
BRANCH   1  27
ATOM     27  C   UNL     1       2.744   3.584  20.507  0.00  0.00    +0.000 C 
BRANCH  27  29
ATOM     28  C   UNL     1       0.930   2.722  18.984  0.00  0.00    +0.000 C 
ATOM     29  C   UNL     1       2.105   2.348  19.872  0.00  0.00    +0.000 C 
ENDBRANCH  27  29
ENDBRANCH   1  27
TORSDOF 9
ENDMDL
MODEL 8
REMARK VINA RESULT:      -6.8      2.140      4.466
REMARK  Name = 
REMARK  15 active torsions:
REMARK  status: ('A' for Active; 'I' for Inactive)
REMARK    1  A    between atoms: C_1  and  C_2
REMARK    2  A    between atoms: C_2  and  C_3
REMARK    3  A    between atoms: C_3  and  C_4
REMARK    4  A    between atoms: C_4  and  N_5
REMARK    5  A    between atoms: C_4  and  C_14
REMARK    6  A    between atoms: C_6  and  C_8
REMARK    7  A    between atoms: C_8  and  O_9
REMARK    8  A    between atoms: C_8  and  C_10
REMARK    9  A    between atoms: C_10  and  C_11
REMARK   10  A    between atoms: C_10  and  C_12
REMARK   11  A    between atoms: C_10  and  C_13
REMARK   12  A    between atoms: C_20  and  C_21
REMARK   13  A    between atoms: C_21  and  C_22
REMARK   14  A    between atoms: C_21  and  C_23
REMARK   15  A    between atoms: C_21  and  O_24
REMARK                            x       y       z     vdW  Elec       q    Type
REMARK                         _______ _______ _______ _____ _____    ______ ____
ROOT
ATOM      1  C   UNL     1       2.256   6.412  19.484  0.00  0.00    +0.000 C 
ENDROOT
BRANCH   1   2
ATOM      2  C   UNL     1       2.048   7.917  19.209  0.00  0.00    +0.000 C 
ATOM      3  O   UNL     1       2.536   8.441  18.210  0.00  0.00    +0.000 OA
ATOM      4  N   UNL     1       1.244   8.525  20.156  0.00  0.00    +0.000 N 
ATOM      5  C   UNL     1       0.974   9.870  20.102  0.00  0.00    +0.000 A 
ATOM      6  N   UNL     1       1.206  10.715  19.132  0.00  0.00    +0.000 NA
ATOM      7  C   UNL     1       0.829  11.982  19.523  0.00  0.00    +0.000 A 
ATOM      8  C   UNL     1       0.334  12.104  20.812  0.00  0.00    +0.000 A 
ATOM      9  S   UNL     1       0.271  10.527  21.514  0.00  0.00    +0.000 S 
ATOM     10  H   UNL     1       0.880   8.004  20.941  0.00  0.00    +0.000 HD
BRANCH   8  11
ATOM     11  C   UNL     1      -0.044  13.372  21.543  0.00  0.00    +0.000 C 
ATOM     12  C   UNL     1      -0.655  14.462  20.665  0.00  0.00    +0.000 C 
ATOM     13  C   UNL     1      -0.968  13.059  22.724  0.00  0.00    +0.000 C 
BRANCH  11  14
ATOM     14  O   UNL     1       1.168  13.900  22.096  0.00  0.00    +0.000 OA
ATOM     15  H   UNL     1       1.905  13.579  21.547  0.00  0.00    +0.000 HD
ENDBRANCH  11  14
ENDBRANCH   8  11
ENDBRANCH   1   2
BRANCH   1  16
ATOM     16  N   UNL     1       3.690   6.136  19.511  0.00  0.00    +0.000 N 
ATOM     17  C   UNL     1       4.256   5.248  18.625  0.00  0.00    +0.000 C 
ATOM     18  O   UNL     1       3.572   4.671  17.785  0.00  0.00    +0.000 OA
ATOM     19  H   UNL     1       4.314   6.804  19.960  0.00  0.00    +0.000 HD
BRANCH  17  20
ATOM     20  C   UNL     1       5.794   5.087  18.786  0.00  0.00    +0.000 C 
BRANCH  20  21
ATOM     21  C   UNL     1       6.654   5.862  17.740  0.00  0.00    +0.000 C 
ATOM     22  C   UNL     1       7.822   6.604  18.418  0.00  0.00    +0.000 C 
ATOM     23  C   UNL     1       7.264   4.867  16.727  0.00  0.00    +0.000 C 
ATOM     24  C   UNL     1       5.805   6.874  16.946  0.00  0.00    +0.000 C 
ENDBRANCH  20  21
BRANCH  20  25
ATOM     25  O   UNL     1       6.136   3.694  18.797  0.00  0.00    +0.000 OA
ATOM     26  H   UNL     1       5.835   3.313  17.953  0.00  0.00    +0.000 HD
ENDBRANCH  20  25
ENDBRANCH  17  20
ENDBRANCH   1  16
BRANCH   1  27
ATOM     27  C   UNL     1       1.622   5.976  20.810  0.00  0.00    +0.000 C 
BRANCH  27  29
ATOM     28  C   UNL     1       0.940   3.662  20.080  0.00  0.00    +0.000 C 
ATOM     29  C   UNL     1       1.778   4.473  21.054  0.00  0.00    +0.000 C 
ENDBRANCH  27  29
ENDBRANCH   1  27
TORSDOF 9
ENDMDL
MODEL 9
REMARK VINA RESULT:      -6.8      1.501      2.040
REMARK  Name = 
REMARK  15 active torsions:
REMARK  status: ('A' for Active; 'I' for Inactive)
REMARK    1  A    between atoms: C_1  and  C_2
REMARK    2  A    between atoms: C_2  and  C_3
REMARK    3  A    between atoms: C_3  and  C_4
REMARK    4  A    between atoms: C_4  and  N_5
REMARK    5  A    between atoms: C_4  and  C_14
REMARK    6  A    between atoms: C_6  and  C_8
REMARK    7  A    between atoms: C_8  and  O_9
REMARK    8  A    between atoms: C_8  and  C_10
REMARK    9  A    between atoms: C_10  and  C_11
REMARK   10  A    between atoms: C_10  and  C_12
REMARK   11  A    between atoms: C_10  and  C_13
REMARK   12  A    between atoms: C_20  and  C_21
REMARK   13  A    between atoms: C_21  and  C_22
REMARK   14  A    between atoms: C_21  and  C_23
REMARK   15  A    between atoms: C_21  and  O_24
REMARK                            x       y       z     vdW  Elec       q    Type
REMARK                         _______ _______ _______ _____ _____    ______ ____
ROOT
ATOM      1  C   UNL     1       3.968   6.858  17.890  0.00  0.00    +0.000 C 
ENDROOT
BRANCH   1   2
ATOM      2  C   UNL     1       2.861   7.932  17.974  0.00  0.00    +0.000 C 
ATOM      3  O   UNL     1       2.516   8.550  16.970  0.00  0.00    +0.000 OA
ATOM      4  N   UNL     1       2.321   8.042  19.243  0.00  0.00    +0.000 N 
ATOM      5  C   UNL     1       1.348   8.969  19.524  0.00  0.00    +0.000 A 
ATOM      6  N   UNL     1       0.650   9.701  18.697  0.00  0.00    +0.000 NA
ATOM      7  C   UNL     1      -0.176  10.543  19.411  0.00  0.00    +0.000 A 
ATOM      8  C   UNL     1      -0.083  10.470  20.792  0.00  0.00    +0.000 A 
ATOM      9  S   UNL     1       1.042   9.218  21.186  0.00  0.00    +0.000 S 
ATOM     10  H   UNL     1       2.667   7.479  20.007  0.00  0.00    +0.000 HD
BRANCH   8  11
ATOM     11  C   UNL     1      -0.772  11.341  21.815  0.00  0.00    +0.000 C 
ATOM     12  C   UNL     1      -2.059  12.008  21.330  0.00  0.00    +0.000 C 
ATOM     13  C   UNL     1      -1.033  10.557  23.105  0.00  0.00    +0.000 C 
BRANCH  11  14
ATOM     14  O   UNL     1       0.149  12.387  22.148  0.00  0.00    +0.000 OA
ATOM     15  H   UNL     1       0.934  11.971  22.544  0.00  0.00    +0.000 HD
ENDBRANCH  11  14
ENDBRANCH   8  11
ENDBRANCH   1   2
BRANCH   1  16
ATOM     16  N   UNL     1       3.394   5.567  18.258  0.00  0.00    +0.000 N 
ATOM     17  C   UNL     1       3.985   4.779  19.221  0.00  0.00    +0.000 C 
ATOM     18  O   UNL     1       5.004   5.145  19.798  0.00  0.00    +0.000 OA
ATOM     19  H   UNL     1       2.417   5.380  18.043  0.00  0.00    +0.000 HD
BRANCH  17  20
ATOM     20  C   UNL     1       3.233   3.446  19.496  0.00  0.00    +0.000 C 
BRANCH  20  21
ATOM     21  C   UNL     1       1.994   3.568  20.436  0.00  0.00    +0.000 C 
ATOM     22  C   UNL     1       2.145   2.671  21.679  0.00  0.00    +0.000 C 
ATOM     23  C   UNL     1       1.858   5.026  20.933  0.00  0.00    +0.000 C 
ATOM     24  C   UNL     1       0.688   3.203  19.704  0.00  0.00    +0.000 C 
ENDBRANCH  20  21
BRANCH  20  25
ATOM     25  O   UNL     1       4.155   2.465  19.990  0.00  0.00    +0.000 OA
ATOM     26  H   UNL     1       3.896   1.605  19.612  0.00  0.00    +0.000 HD
ENDBRANCH  20  25
ENDBRANCH  17  20
ENDBRANCH   1  16
BRANCH   1  27
ATOM     27  C   UNL     1       4.578   6.769  16.487  0.00  0.00    +0.000 C 
BRANCH  27  29
ATOM     28  C   UNL     1       6.916   7.008  17.400  0.00  0.00    +0.000 C 
ATOM     29  C   UNL     1       5.994   6.189  16.512  0.00  0.00    +0.000 C 
ENDBRANCH  27  29
ENDBRANCH   1  27
TORSDOF 9
ENDMDL
