MODEL 1
REMARK VINA RESULT:      -7.7      0.000      0.000
REMARK  Name = 
REMARK  6 active torsions:
REMARK  status: ('A' for Active; 'I' for Inactive)
REMARK    1  A    between atoms: C_1  and  C_2
REMARK    2  A    between atoms: C_5  and  S_6
REMARK    3  A    between atoms: S_6  and  C_9
REMARK    4  A    between atoms: C_9  and  C_10
REMARK    5  A    between atoms: C_10  and  C_11
REMARK    6  A    between atoms: N_16  and  C_17
REMARK                            x       y       z     vdW  Elec       q    Type
REMARK                         _______ _______ _______ _____ _____    ______ ____
ROOT
ATOM      1  C   UNL     1       2.476   7.108  18.994  0.00  0.00    +0.000 C 
ATOM      2  O   UNL     1       2.844   7.187  17.821  0.00  0.00    +0.000 OA
ATOM      3  N   UNL     1       1.851   8.159  19.640  0.00  0.00    +0.000 N 
ATOM      4  C   UNL     1       1.533   9.386  18.894  0.00  0.00    +0.000 C 
ATOM      5  C   UNL     1       0.073   9.818  19.137  0.00  0.00    +0.000 C 
ATOM      6  N   UNL     1      -0.162   9.929  20.588  0.00  0.00    +0.000 N 
ATOM      7  C   UNL     1       0.132   8.716  21.364  0.00  0.00    +0.000 C 
ATOM      8  C   UNL     1       1.574   8.261  21.083  0.00  0.00    +0.000 C 
ENDROOT
BRANCH   6   9
ATOM      9  C   UNL     1      -0.823  10.997  21.150  0.00  0.00    +0.000 A 
ATOM     10  C   UNL     1      -1.312  12.055  20.368  0.00  0.00    +0.000 A 
ATOM     11  C   UNL     1      -1.955  13.155  20.942  0.00  0.00    +0.000 A 
ATOM     12  C   UNL     1      -2.111  13.220  22.321  0.00  0.00    +0.000 A 
ATOM     13 CL   UNL     1      -2.893  14.576  23.031  0.00  0.00    +0.000 Cl
ATOM     14  C   UNL     1      -1.636  12.192  23.127  0.00  0.00    +0.000 A 
ATOM     15  C   UNL     1      -1.000  11.088  22.539  0.00  0.00    +0.000 A 
ENDBRANCH   6   9
BRANCH   1  16
ATOM     16  C   UNL     1       2.600   5.797  19.742  0.00  0.00    +0.000 C 
BRANCH  16  17
ATOM     17  C   UNL     1       3.050   4.665  18.827  0.00  0.00    +0.000 C 
BRANCH  17  18
ATOM     18  S   UNL     1       4.785   4.344  19.077  0.00  0.00    +0.000 S 
ATOM     19  O   UNL     1       4.924   2.989  19.576  0.00  0.00    +0.000 OA
ATOM     20  O   UNL     1       5.336   5.460  19.825  0.00  0.00    +0.000 OA
BRANCH  18  25
ATOM     21  C   UNL     1       7.172   4.743  13.494  0.00  0.00    +0.000 C 
ATOM     22  C   UNL     1       6.585   4.620  14.871  0.00  0.00    +0.000 A 
ATOM     23  C   UNL     1       5.219   4.367  15.050  0.00  0.00    +0.000 A 
ATOM     24  C   UNL     1       4.681   4.260  16.335  0.00  0.00    +0.000 A 
ATOM     25  C   UNL     1       5.510   4.396  17.451  0.00  0.00    +0.000 A 
ATOM     26  C   UNL     1       6.871   4.671  17.290  0.00  0.00    +0.000 A 
ATOM     27  C   UNL     1       7.404   4.775  16.000  0.00  0.00    +0.000 A 
ENDBRANCH  18  25
ENDBRANCH  17  18
ENDBRANCH  16  17
ENDBRANCH   1  16
TORSDOF 5
ENDMDL
MODEL 2
REMARK VINA RESULT:      -7.7      1.258      1.898
REMARK  Name = 
REMARK  6 active torsions:
REMARK  status: ('A' for Active; 'I' for Inactive)
REMARK    1  A    between atoms: C_1  and  C_2
REMARK    2  A    between atoms: C_5  and  S_6
REMARK    3  A    between atoms: S_6  and  C_9
REMARK    4  A    between atoms: C_9  and  C_10
REMARK    5  A    between atoms: C_10  and  C_11
REMARK    6  A    between atoms: N_16  and  C_17
REMARK                            x       y       z     vdW  Elec       q    Type
REMARK                         _______ _______ _______ _____ _____    ______ ____
ROOT
ATOM      1  C   UNL     1       2.155   6.850  19.683  0.00  0.00    +0.000 C 
ATOM      2  O   UNL     1       2.638   6.795  18.551  0.00  0.00    +0.000 OA
ATOM      3  N   UNL     1       1.602   8.010  20.191  0.00  0.00    +0.000 N 
ATOM      4  C   UNL     1       1.505   9.204  19.337  0.00  0.00    +0.000 C 
ATOM      5  C   UNL     1       0.090   9.815  19.400  0.00  0.00    +0.000 C 
ATOM      6  N   UNL     1      -0.265  10.064  20.809  0.00  0.00    +0.000 N 
ATOM      7  C   UNL     1      -0.192   8.889  21.689  0.00  0.00    +0.000 C 
ATOM      8  C   UNL     1       1.205   8.255  21.588  0.00  0.00    +0.000 C 
ENDROOT
BRANCH   6   9
ATOM      9  C   UNL     1      -0.844  11.239  21.229  0.00  0.00    +0.000 A 
ATOM     10  C   UNL     1      -0.791  11.648  22.570  0.00  0.00    +0.000 A 
ATOM     11  C   UNL     1      -1.407  12.826  23.003  0.00  0.00    +0.000 A 
ATOM     12  C   UNL     1      -2.101  13.616  22.095  0.00  0.00    +0.000 A 
ATOM     13 CL   UNL     1      -2.867  15.059  22.626  0.00  0.00    +0.000 Cl
ATOM     14  C   UNL     1      -2.177  13.239  20.759  0.00  0.00    +0.000 A 
ATOM     15  C   UNL     1      -1.548  12.059  20.334  0.00  0.00    +0.000 A 
ENDBRANCH   6   9
BRANCH   1  16
ATOM     16  C   UNL     1       2.050   5.595  20.524  0.00  0.00    +0.000 C 
BRANCH  16  17
ATOM     17  C   UNL     1       1.392   4.455  19.759  0.00  0.00    +0.000 C 
BRANCH  17  18
ATOM     18  S   UNL     1       2.504   3.064  19.675  0.00  0.00    +0.000 S 
ATOM     19  O   UNL     1       1.810   1.974  19.014  0.00  0.00    +0.000 OA
ATOM     20  O   UNL     1       3.073   2.876  20.996  0.00  0.00    +0.000 OA
BRANCH  18  25
ATOM     21  C   UNL     1       6.910   5.063  15.985  0.00  0.00    +0.000 C 
ATOM     22  C   UNL     1       5.829   4.546  16.892  0.00  0.00    +0.000 A 
ATOM     23  C   UNL     1       4.611   4.093  16.372  0.00  0.00    +0.000 A 
ATOM     24  C   UNL     1       3.609   3.620  17.224  0.00  0.00    +0.000 A 
ATOM     25  C   UNL     1       3.826   3.587  18.604  0.00  0.00    +0.000 A 
ATOM     26  C   UNL     1       5.029   4.057  19.140  0.00  0.00    +0.000 A 
ATOM     27  C   UNL     1       6.028   4.528  18.281  0.00  0.00    +0.000 A 
ENDBRANCH  18  25
ENDBRANCH  17  18
ENDBRANCH  16  17
ENDBRANCH   1  16
TORSDOF 5
ENDMDL
MODEL 3
REMARK VINA RESULT:      -7.7      0.637      1.201
REMARK  Name = 
REMARK  6 active torsions:
REMARK  status: ('A' for Active; 'I' for Inactive)
REMARK    1  A    between atoms: C_1  and  C_2
REMARK    2  A    between atoms: C_5  and  S_6
REMARK    3  A    between atoms: S_6  and  C_9
REMARK    4  A    between atoms: C_9  and  C_10
REMARK    5  A    between atoms: C_10  and  C_11
REMARK    6  A    between atoms: N_16  and  C_17
REMARK                            x       y       z     vdW  Elec       q    Type
REMARK                         _______ _______ _______ _____ _____    ______ ____
ROOT
ATOM      1  C   UNL     1       2.467   7.261  18.776  0.00  0.00    +0.000 C 
ATOM      2  O   UNL     1       2.890   7.403  17.628  0.00  0.00    +0.000 OA
ATOM      3  N   UNL     1       1.837   8.285  19.459  0.00  0.00    +0.000 N 
ATOM      4  C   UNL     1       1.583   9.564  18.779  0.00  0.00    +0.000 C 
ATOM      5  C   UNL     1       0.123  10.017  18.984  0.00  0.00    +0.000 C 
ATOM      6  N   UNL     1      -0.176  10.044  20.427  0.00  0.00    +0.000 N 
ATOM      7  C   UNL     1       0.054   8.777  21.136  0.00  0.00    +0.000 C 
ATOM      8  C   UNL     1       1.496   8.303  20.892  0.00  0.00    +0.000 C 
ENDROOT
BRANCH   6   9
ATOM      9  C   UNL     1      -0.837  11.091  21.026  0.00  0.00    +0.000 A 
ATOM     10  C   UNL     1      -0.816  11.276  22.417  0.00  0.00    +0.000 A 
ATOM     11  C   UNL     1      -1.515  12.321  23.029  0.00  0.00    +0.000 A 
ATOM     12  C   UNL     1      -2.262  13.199  22.253  0.00  0.00    +0.000 A 
ATOM     13 CL   UNL     1      -3.129  14.479  23.003  0.00  0.00    +0.000 Cl
ATOM     14  C   UNL     1      -2.309  13.042  20.872  0.00  0.00    +0.000 A 
ATOM     15  C   UNL     1      -1.596  11.996  20.268  0.00  0.00    +0.000 A 
ENDBRANCH   6   9
BRANCH   1  16
ATOM     16  C   UNL     1       2.526   5.903  19.443  0.00  0.00    +0.000 C 
BRANCH  16  17
ATOM     17  C   UNL     1       3.961   5.436  19.648  0.00  0.00    +0.000 C 
BRANCH  17  18
ATOM     18  S   UNL     1       4.185   3.833  18.903  0.00  0.00    +0.000 S 
ATOM     19  O   UNL     1       2.885   3.353  18.471  0.00  0.00    +0.000 OA
ATOM     20  O   UNL     1       4.996   3.037  19.806  0.00  0.00    +0.000 OA
BRANCH  18  25
ATOM     21  C   UNL     1       7.426   5.064  13.903  0.00  0.00    +0.000 C 
ATOM     22  C   UNL     1       6.629   4.736  15.133  0.00  0.00    +0.000 A 
ATOM     23  C   UNL     1       5.269   4.415  15.043  0.00  0.00    +0.000 A 
ATOM     24  C   UNL     1       4.534   4.117  16.195  0.00  0.00    +0.000 A 
ATOM     25  C   UNL     1       5.161   4.128  17.443  0.00  0.00    +0.000 A 
ATOM     26  C   UNL     1       6.513   4.468  17.551  0.00  0.00    +0.000 A 
ATOM     27  C   UNL     1       7.243   4.763  16.395  0.00  0.00    +0.000 A 
ENDBRANCH  18  25
ENDBRANCH  17  18
ENDBRANCH  16  17
ENDBRANCH   1  16
TORSDOF 5
ENDMDL
MODEL 4
REMARK VINA RESULT:      -7.6      1.241      1.853
REMARK  Name = 
REMARK  6 active torsions:
REMARK  status: ('A' for Active; 'I' for Inactive)
REMARK    1  A    between atoms: C_1  and  C_2
REMARK    2  A    between atoms: C_5  and  S_6
REMARK    3  A    between atoms: S_6  and  C_9
REMARK    4  A    between atoms: C_9  and  C_10
REMARK    5  A    between atoms: C_10  and  C_11
REMARK    6  A    between atoms: N_16  and  C_17
REMARK                            x       y       z     vdW  Elec       q    Type
REMARK                         _______ _______ _______ _____ _____    ______ ____
ROOT
ATOM      1  C   UNL     1       2.171   7.017  19.620  0.00  0.00    +0.000 C 
ATOM      2  O   UNL     1       2.587   6.966  18.461  0.00  0.00    +0.000 OA
ATOM      3  N   UNL     1       1.607   8.163  20.147  0.00  0.00    +0.000 N 
ATOM      4  C   UNL     1       1.414   9.342  19.288  0.00  0.00    +0.000 C 
ATOM      5  C   UNL     1      -0.016   9.900  19.430  0.00  0.00    +0.000 C 
ATOM      6  N   UNL     1      -0.295  10.155  20.855  0.00  0.00    +0.000 N 
ATOM      7  C   UNL     1      -0.126   8.995  21.742  0.00  0.00    +0.000 C 
ATOM      8  C   UNL     1       1.285   8.411  21.563  0.00  0.00    +0.000 C 
ENDROOT
BRANCH   6   9
ATOM      9  C   UNL     1      -0.891  11.314  21.296  0.00  0.00    +0.000 A 
ATOM     10  C   UNL     1      -1.437  12.248  20.403  0.00  0.00    +0.000 A 
ATOM     11  C   UNL     1      -2.014  13.440  20.849  0.00  0.00    +0.000 A 
ATOM     12  C   UNL     1      -2.044  13.725  22.209  0.00  0.00    +0.000 A 
ATOM     13 CL   UNL     1      -2.744  15.194  22.761  0.00  0.00    +0.000 Cl
ATOM     14  C   UNL     1      -1.508  12.824  23.123  0.00  0.00    +0.000 A 
ATOM     15  C   UNL     1      -0.940  11.626  22.663  0.00  0.00    +0.000 A 
ENDBRANCH   6   9
BRANCH   1  16
ATOM     16  C   UNL     1       2.164   5.770  20.479  0.00  0.00    +0.000 C 
BRANCH  16  17
ATOM     17  C   UNL     1       1.411   4.627  19.811  0.00  0.00    +0.000 C 
BRANCH  17  18
ATOM     18  S   UNL     1       2.485   3.216  19.641  0.00  0.00    +0.000 S 
ATOM     19  O   UNL     1       1.748   2.171  18.956  0.00  0.00    +0.000 OA
ATOM     20  O   UNL     1       3.083   2.960  20.938  0.00  0.00    +0.000 OA
BRANCH  18  25
ATOM     21  C   UNL     1       7.061   4.828  15.970  0.00  0.00    +0.000 C 
ATOM     22  C   UNL     1       5.926   4.454  16.879  0.00  0.00    +0.000 A 
ATOM     23  C   UNL     1       6.083   4.474  18.270  0.00  0.00    +0.000 A 
ATOM     24  C   UNL     1       5.022   4.118  19.108  0.00  0.00    +0.000 A 
ATOM     25  C   UNL     1       3.792   3.750  18.557  0.00  0.00    +0.000 A 
ATOM     26  C   UNL     1       3.627   3.704  17.170  0.00  0.00    +0.000 A 
ATOM     27  C   UNL     1       4.692   4.063  16.336  0.00  0.00    +0.000 A 
ENDBRANCH  18  25
ENDBRANCH  17  18
ENDBRANCH  16  17
ENDBRANCH   1  16
TORSDOF 5
ENDMDL
MODEL 5
REMARK VINA RESULT:      -7.5      5.044     10.604
REMARK  Name = 
REMARK  6 active torsions:
REMARK  status: ('A' for Active; 'I' for Inactive)
REMARK    1  A    between atoms: C_1  and  C_2
REMARK    2  A    between atoms: C_5  and  S_6
REMARK    3  A    between atoms: S_6  and  C_9
REMARK    4  A    between atoms: C_9  and  C_10
REMARK    5  A    between atoms: C_10  and  C_11
REMARK    6  A    between atoms: N_16  and  C_17
REMARK                            x       y       z     vdW  Elec       q    Type
REMARK                         _______ _______ _______ _____ _____    ______ ____
ROOT
ATOM      1  C   UNL     1       0.603  11.501  19.490  0.00  0.00    +0.000 C 
ATOM      2  O   UNL     1       0.700  12.228  18.500  0.00  0.00    +0.000 OA
ATOM      3  N   UNL     1       0.785  10.133  19.416  0.00  0.00    +0.000 N 
ATOM      4  C   UNL     1       1.188   9.520  18.141  0.00  0.00    +0.000 C 
ATOM      5  C   UNL     1       2.372   8.553  18.343  0.00  0.00    +0.000 C 
ATOM      6  N   UNL     1       2.022   7.573  19.387  0.00  0.00    +0.000 N 
ATOM      7  C   UNL     1       1.628   8.150  20.679  0.00  0.00    +0.000 C 
ATOM      8  C   UNL     1       0.478   9.149  20.469  0.00  0.00    +0.000 C 
ENDROOT
BRANCH   6   9
ATOM      9  C   UNL     1       2.267   6.226  19.248  0.00  0.00    +0.000 A 
ATOM     10  C   UNL     1       2.644   5.669  18.017  0.00  0.00    +0.000 A 
ATOM     11  C   UNL     1       2.860   4.296  17.868  0.00  0.00    +0.000 A 
ATOM     12  C   UNL     1       2.692   3.449  18.956  0.00  0.00    +0.000 A 
ATOM     13 CL   UNL     1       2.948   1.760  18.775  0.00  0.00    +0.000 Cl
ATOM     14  C   UNL     1       2.315   3.967  20.191  0.00  0.00    +0.000 A 
ATOM     15  C   UNL     1       2.109   5.347  20.330  0.00  0.00    +0.000 A 
ENDBRANCH   6   9
BRANCH   1  16
ATOM     16  C   UNL     1       0.388  12.109  20.860  0.00  0.00    +0.000 C 
BRANCH  16  17
ATOM     17  C   UNL     1      -1.087  12.365  21.140  0.00  0.00    +0.000 C 
BRANCH  17  18
ATOM     18  S   UNL     1      -1.380  12.341  22.897  0.00  0.00    +0.000 S 
ATOM     19  O   UNL     1      -0.713  13.490  23.480  0.00  0.00    +0.000 OA
ATOM     20  O   UNL     1      -1.082  11.003  23.374  0.00  0.00    +0.000 OA
BRANCH  18  25
ATOM     21  C   UNL     1      -7.408  12.951  23.453  0.00  0.00    +0.000 C 
ATOM     22  C   UNL     1      -5.918  12.825  23.316  0.00  0.00    +0.000 A 
ATOM     23  C   UNL     1      -5.302  12.911  22.061  0.00  0.00    +0.000 A 
ATOM     24  C   UNL     1      -3.915  12.787  21.943  0.00  0.00    +0.000 A 
ATOM     25  C   UNL     1      -3.134  12.585  23.083  0.00  0.00    +0.000 A 
ATOM     26  C   UNL     1      -3.736  12.474  24.340  0.00  0.00    +0.000 A 
ATOM     27  C   UNL     1      -5.125  12.602  24.452  0.00  0.00    +0.000 A 
ENDBRANCH  18  25
ENDBRANCH  17  18
ENDBRANCH  16  17
ENDBRANCH   1  16
TORSDOF 5
ENDMDL
MODEL 6
REMARK VINA RESULT:      -7.5      4.891     10.662
REMARK  Name = 
REMARK  6 active torsions:
REMARK  status: ('A' for Active; 'I' for Inactive)
REMARK    1  A    between atoms: C_1  and  C_2
REMARK    2  A    between atoms: C_5  and  S_6
REMARK    3  A    between atoms: S_6  and  C_9
REMARK    4  A    between atoms: C_9  and  C_10
REMARK    5  A    between atoms: C_10  and  C_11
REMARK    6  A    between atoms: N_16  and  C_17
REMARK                            x       y       z     vdW  Elec       q    Type
REMARK                         _______ _______ _______ _____ _____    ______ ____
ROOT
ATOM      1  C   UNL     1       0.802  11.180  19.473  0.00  0.00    +0.000 C 
ATOM      2  O   UNL     1       0.859  11.974  18.533  0.00  0.00    +0.000 OA
ATOM      3  N   UNL     1       1.006   9.824  19.301  0.00  0.00    +0.000 N 
ATOM      4  C   UNL     1       1.385   9.306  17.977  0.00  0.00    +0.000 C 
ATOM      5  C   UNL     1       2.591   8.352  18.082  0.00  0.00    +0.000 C 
ATOM      6  N   UNL     1       2.287   7.297  19.066  0.00  0.00    +0.000 N 
ATOM      7  C   UNL     1       1.919   7.777  20.405  0.00  0.00    +0.000 C 
ATOM      8  C   UNL     1       0.745   8.766  20.293  0.00  0.00    +0.000 C 
ENDROOT
BRANCH   6   9
ATOM      9  C   UNL     1       2.552   5.967  18.829  0.00  0.00    +0.000 A 
ATOM     10  C   UNL     1       1.984   4.953  19.615  0.00  0.00    +0.000 A 
ATOM     11  C   UNL     1       2.278   3.604  19.396  0.00  0.00    +0.000 A 
ATOM     12  C   UNL     1       3.161   3.246  18.385  0.00  0.00    +0.000 A 
ATOM     13 CL   UNL     1       3.531   1.589  18.118  0.00  0.00    +0.000 Cl
ATOM     14  C   UNL     1       3.745   4.225  17.589  0.00  0.00    +0.000 A 
ATOM     15  C   UNL     1       3.436   5.575  17.813  0.00  0.00    +0.000 A 
ENDBRANCH   6   9
BRANCH   1  16
ATOM     16  C   UNL     1       0.614  11.690  20.886  0.00  0.00    +0.000 C 
BRANCH  16  17
ATOM     17  C   UNL     1      -0.790  12.238  21.108  0.00  0.00    +0.000 C 
BRANCH  17  18
ATOM     18  S   UNL     1      -1.184  12.199  22.845  0.00  0.00    +0.000 S 
ATOM     19  O   UNL     1      -0.546  13.340  23.476  0.00  0.00    +0.000 OA
ATOM     20  O   UNL     1      -0.922  10.855  23.326  0.00  0.00    +0.000 OA
BRANCH  18  25
ATOM     21  C   UNL     1      -7.158  13.293  23.220  0.00  0.00    +0.000 C 
ATOM     22  C   UNL     1      -5.688  12.998  23.127  0.00  0.00    +0.000 A 
ATOM     23  C   UNL     1      -4.939  12.712  24.276  0.00  0.00    +0.000 A 
ATOM     24  C   UNL     1      -3.570  12.446  24.180  0.00  0.00    +0.000 A 
ATOM     25  C   UNL     1      -2.944  12.453  22.931  0.00  0.00    +0.000 A 
ATOM     26  C   UNL     1      -3.673  12.759  21.779  0.00  0.00    +0.000 A 
ATOM     27  C   UNL     1      -5.044  13.023  21.881  0.00  0.00    +0.000 A 
ENDBRANCH  18  25
ENDBRANCH  17  18
ENDBRANCH  16  17
ENDBRANCH   1  16
TORSDOF 5
ENDMDL
MODEL 7
REMARK VINA RESULT:      -7.3      1.320      1.756
REMARK  Name = 
REMARK  6 active torsions:
REMARK  status: ('A' for Active; 'I' for Inactive)
REMARK    1  A    between atoms: C_1  and  C_2
REMARK    2  A    between atoms: C_5  and  S_6
REMARK    3  A    between atoms: S_6  and  C_9
REMARK    4  A    between atoms: C_9  and  C_10
REMARK    5  A    between atoms: C_10  and  C_11
REMARK    6  A    between atoms: N_16  and  C_17
REMARK                            x       y       z     vdW  Elec       q    Type
REMARK                         _______ _______ _______ _____ _____    ______ ____
ROOT
ATOM      1  C   UNL     1       1.964   8.621  18.561  0.00  0.00    +0.000 C 
ATOM      2  O   UNL     1       2.197   8.810  17.366  0.00  0.00    +0.000 OA
ATOM      3  N   UNL     1       1.261   9.532  19.326  0.00  0.00    +0.000 N 
ATOM      4  C   UNL     1       0.696  10.733  18.691  0.00  0.00    +0.000 C 
ATOM      5  C   UNL     1      -0.780  10.927  19.094  0.00  0.00    +0.000 C 
ATOM      6  N   UNL     1      -0.881  10.931  20.565  0.00  0.00    +0.000 N 
ATOM      7  C   UNL     1      -0.339   9.740  21.232  0.00  0.00    +0.000 C 
ATOM      8  C   UNL     1       1.119   9.521  20.792  0.00  0.00    +0.000 C 
ENDROOT
BRANCH   6   9
ATOM      9  C   UNL     1      -1.631  11.859  21.251  0.00  0.00    +0.000 A 
ATOM     10  C   UNL     1      -1.742  11.826  22.650  0.00  0.00    +0.000 A 
ATOM     11  C   UNL     1      -2.530  12.748  23.345  0.00  0.00    +0.000 A 
ATOM     12  C   UNL     1      -3.233  13.720  22.645  0.00  0.00    +0.000 A 
ATOM     13 CL   UNL     1      -4.210  14.850  23.496  0.00  0.00    +0.000 Cl
ATOM     14  C   UNL     1      -3.149  13.780  21.258  0.00  0.00    +0.000 A 
ATOM     15  C   UNL     1      -2.348  12.855  20.572  0.00  0.00    +0.000 A 
ENDBRANCH   6   9
BRANCH   1  16
ATOM     16  C   UNL     1       2.352   7.308  19.210  0.00  0.00    +0.000 C 
BRANCH  16  17
ATOM     17  C   UNL     1       2.160   6.131  18.263  0.00  0.00    +0.000 C 
BRANCH  17  18
ATOM     18  S   UNL     1       3.370   4.871  18.615  0.00  0.00    +0.000 S 
ATOM     19  O   UNL     1       2.695   3.587  18.616  0.00  0.00    +0.000 OA
ATOM     20  O   UNL     1       4.128   5.301  19.775  0.00  0.00    +0.000 OA
BRANCH  18  25
ATOM     21  C   UNL     1       6.994   4.860  13.726  0.00  0.00    +0.000 C 
ATOM     22  C   UNL     1       6.119   4.863  14.948  0.00  0.00    +0.000 A 
ATOM     23  C   UNL     1       5.809   3.669  15.612  0.00  0.00    +0.000 A 
ATOM     24  C   UNL     1       4.990   3.681  16.744  0.00  0.00    +0.000 A 
ATOM     25  C   UNL     1       4.484   4.891  17.225  0.00  0.00    +0.000 A 
ATOM     26  C   UNL     1       4.766   6.088  16.560  0.00  0.00    +0.000 A 
ATOM     27  C   UNL     1       5.589   6.069  15.428  0.00  0.00    +0.000 A 
ENDBRANCH  18  25
ENDBRANCH  17  18
ENDBRANCH  16  17
ENDBRANCH   1  16
TORSDOF 5
ENDMDL
MODEL 8
REMARK VINA RESULT:      -7.2      1.249      1.872
REMARK  Name = 
REMARK  6 active torsions:
REMARK  status: ('A' for Active; 'I' for Inactive)
REMARK    1  A    between atoms: C_1  and  C_2
REMARK    2  A    between atoms: C_5  and  S_6
REMARK    3  A    between atoms: S_6  and  C_9
REMARK    4  A    between atoms: C_9  and  C_10
REMARK    5  A    between atoms: C_10  and  C_11
REMARK    6  A    between atoms: N_16  and  C_17
REMARK                            x       y       z     vdW  Elec       q    Type
REMARK                         _______ _______ _______ _____ _____    ______ ____
ROOT
ATOM      1  C   UNL     1       2.137   6.602  19.244  0.00  0.00    +0.000 C 
ATOM      2  O   UNL     1       2.629   6.629  18.115  0.00  0.00    +0.000 OA
ATOM      3  N   UNL     1       1.789   7.755  19.922  0.00  0.00    +0.000 N 
ATOM      4  C   UNL     1       1.928   9.060  19.257  0.00  0.00    +0.000 C 
ATOM      5  C   UNL     1       0.644   9.900  19.416  0.00  0.00    +0.000 C 
ATOM      6  N   UNL     1       0.306   9.997  20.847  0.00  0.00    +0.000 N 
ATOM      7  C   UNL     1       0.146   8.712  21.541  0.00  0.00    +0.000 C 
ATOM      8  C   UNL     1       1.409   7.857  21.341  0.00  0.00    +0.000 C 
ENDROOT
BRANCH   6   9
ATOM      9  C   UNL     1      -0.063  11.183  21.441  0.00  0.00    +0.000 A 
ATOM     10  C   UNL     1      -0.968  11.219  22.512  0.00  0.00    +0.000 A 
ATOM     11  C   UNL     1      -1.368  12.425  23.094  0.00  0.00    +0.000 A 
ATOM     12  C   UNL     1      -0.872  13.627  22.602  0.00  0.00    +0.000 A 
ATOM     13 CL   UNL     1      -1.368  15.112  23.309  0.00  0.00    +0.000 Cl
ATOM     14  C   UNL     1       0.024  13.628  21.539  0.00  0.00    +0.000 A 
ATOM     15  C   UNL     1       0.425  12.410  20.968  0.00  0.00    +0.000 A 
ENDBRANCH   6   9
BRANCH   1  16
ATOM     16  C   UNL     1       1.789   5.276  19.887  0.00  0.00    +0.000 C 
BRANCH  16  17
ATOM     17  C   UNL     1       3.011   4.611  20.508  0.00  0.00    +0.000 C 
BRANCH  17  18
ATOM     18  S   UNL     1       3.454   3.165  19.565  0.00  0.00    +0.000 S 
ATOM     19  O   UNL     1       2.244   2.634  18.964  0.00  0.00    +0.000 OA
ATOM     20  O   UNL     1       4.281   2.324  20.411  0.00  0.00    +0.000 OA
BRANCH  18  25
ATOM     21  C   UNL     1       7.129   5.011  15.081  0.00  0.00    +0.000 C 
ATOM     22  C   UNL     1       6.213   4.578  16.191  0.00  0.00    +0.000 A 
ATOM     23  C   UNL     1       6.610   4.684  17.530  0.00  0.00    +0.000 A 
ATOM     24  C   UNL     1       5.754   4.273  18.556  0.00  0.00    +0.000 A 
ATOM     25  C   UNL     1       4.490   3.764  18.247  0.00  0.00    +0.000 A 
ATOM     26  C   UNL     1       4.089   3.631  16.914  0.00  0.00    +0.000 A 
ATOM     27  C   UNL     1       4.950   4.046  15.892  0.00  0.00    +0.000 A 
ENDBRANCH  18  25
ENDBRANCH  17  18
ENDBRANCH  16  17
ENDBRANCH   1  16
TORSDOF 5
ENDMDL
MODEL 9
REMARK VINA RESULT:      -7.1      0.920      1.097
REMARK  Name = 
REMARK  6 active torsions:
REMARK  status: ('A' for Active; 'I' for Inactive)
REMARK    1  A    between atoms: C_1  and  C_2
REMARK    2  A    between atoms: C_5  and  S_6
REMARK    3  A    between atoms: S_6  and  C_9
REMARK    4  A    between atoms: C_9  and  C_10
REMARK    5  A    between atoms: C_10  and  C_11
REMARK    6  A    between atoms: N_16  and  C_17
REMARK                            x       y       z     vdW  Elec       q    Type
REMARK                         _______ _______ _______ _____ _____    ______ ____
ROOT
ATOM      1  C   UNL     1       2.584   7.152  18.691  0.00  0.00    +0.000 C 
ATOM      2  O   UNL     1       3.061   7.109  17.555  0.00  0.00    +0.000 OA
ATOM      3  N   UNL     1       1.996   8.295  19.198  0.00  0.00    +0.000 N 
ATOM      4  C   UNL     1       1.852   9.482  18.340  0.00  0.00    +0.000 C 
ATOM      5  C   UNL     1       0.418  10.043  18.412  0.00  0.00    +0.000 C 
ATOM      6  N   UNL     1       0.065  10.286  19.822  0.00  0.00    +0.000 N 
ATOM      7  C   UNL     1       0.183   9.118  20.706  0.00  0.00    +0.000 C 
ATOM      8  C   UNL     1       1.601   8.531  20.597  0.00  0.00    +0.000 C 
ENDROOT
BRANCH   6   9
ATOM      9  C   UNL     1      -0.551  11.443  20.241  0.00  0.00    +0.000 A 
ATOM     10  C   UNL     1      -0.528  12.612  19.466  0.00  0.00    +0.000 A 
ATOM     11  C   UNL     1      -1.125  13.797  19.907  0.00  0.00    +0.000 A 
ATOM     12  C   UNL     1      -1.752  13.833  21.147  0.00  0.00    +0.000 A 
ATOM     13 CL   UNL     1      -2.480  15.290  21.696  0.00  0.00    +0.000 Cl
ATOM     14  C   UNL     1      -1.790  12.694  21.943  0.00  0.00    +0.000 A 
ATOM     15  C   UNL     1      -1.195  11.508  21.486  0.00  0.00    +0.000 A 
ENDBRANCH   6   9
BRANCH   1  16
ATOM     16  C   UNL     1       2.529   5.897  19.537  0.00  0.00    +0.000 C 
BRANCH  16  17
ATOM     17  C   UNL     1       3.920   5.357  19.839  0.00  0.00    +0.000 C 
BRANCH  17  18
ATOM     18  S   UNL     1       4.139   3.778  19.043  0.00  0.00    +0.000 S 
ATOM     19  O   UNL     1       2.838   3.315  18.599  0.00  0.00    +0.000 OA
ATOM     20  O   UNL     1       4.951   2.953  19.918  0.00  0.00    +0.000 OA
BRANCH  18  25
ATOM     21  C   UNL     1       7.336   5.140  14.047  0.00  0.00    +0.000 C 
ATOM     22  C   UNL     1       6.554   4.780  15.279  0.00  0.00    +0.000 A 
ATOM     23  C   UNL     1       5.268   4.234  15.179  0.00  0.00    +0.000 A 
ATOM     24  C   UNL     1       4.547   3.908  16.331  0.00  0.00    +0.000 A 
ATOM     25  C   UNL     1       5.113   4.117  17.591  0.00  0.00    +0.000 A 
ATOM     26  C   UNL     1       6.386   4.683  17.707  0.00  0.00    +0.000 A 
ATOM     27  C   UNL     1       7.104   5.005  16.550  0.00  0.00    +0.000 A 
ENDBRANCH  18  25
ENDBRANCH  17  18
ENDBRANCH  16  17
ENDBRANCH   1  16
TORSDOF 5
ENDMDL
