MODEL 1
REMARK VINA RESULT:      -7.4      0.000      0.000
REMARK  Name = 
REMARK  8 active torsions:
REMARK  status: ('A' for Active; 'I' for Inactive)
REMARK    1  A    between atoms: C_1  and  N_2
REMARK    2  A    between atoms: N_2  and  C_3
REMARK    3  A    between atoms: N_2  and  C_4
REMARK    4  A    between atoms: C_4  and  C_5
REMARK    5  A    between atoms: C_5  and  N_6
REMARK    6  A    between atoms: C_7  and  C_9
REMARK    7  A    between atoms: C_14  and  N_15
REMARK    8  A    between atoms: C_16  and  C_18
REMARK                            x       y       z     vdW  Elec       q    Type
REMARK                         _______ _______ _______ _____ _____    ______ ____
ROOT
ATOM      1  C   UNL     1       2.123   4.721  19.892  0.00  0.00    +0.000 A 
ATOM      2  C   UNL     1       1.353   4.328  21.009  0.00  0.00    +0.000 A 
ATOM      3  C   UNL     1       1.261   2.990  21.383  0.00  0.00    +0.000 A 
ATOM      4  C   UNL     1       1.961   2.035  20.664  0.00  0.00    +0.000 A 
ATOM      5  C   UNL     1       2.752   2.416  19.576  0.00  0.00    +0.000 A 
ATOM      6  C   UNL     1       2.848   3.756  19.162  0.00  0.00    +0.000 A 
ENDROOT
BRANCH   1   8
ATOM      7  N   UNL     1       1.772   7.037  20.541  0.00  0.00    +0.000 N 
ATOM      8  C   UNL     1       2.141   6.171  19.532  0.00  0.00    +0.000 C 
ATOM      9  O   UNL     1       2.469   6.533  18.406  0.00  0.00    +0.000 OA
ATOM     10  H   UNL     1       1.174   6.685  21.281  0.00  0.00    +0.000 HD
BRANCH   7  11
ATOM     11  C   UNL     1       1.815   8.479  20.399  0.00  0.00    +0.000 C 
BRANCH  11  12
ATOM     12  C   UNL     1       0.508   9.165  20.832  0.00  0.00    +0.000 C 
BRANCH  12  14
ATOM     13  C   UNL     1      -0.016  11.397  21.686  0.00  0.00    +0.000 C 
ATOM     14  N   UNL     1       0.645  10.120  21.959  0.00  0.00    +0.000 NA
ATOM     15  C   UNL     1       0.064   9.519  23.167  0.00  0.00    +0.000 C 
ENDBRANCH  12  14
ENDBRANCH  11  12
ENDBRANCH   7  11
ENDBRANCH   1   8
BRANCH   6  16
ATOM     16  N   UNL     1       3.661   4.127  18.048  0.00  0.00    +0.000 N 
ATOM     17  C   UNL     1       5.046   4.180  18.053  0.00  0.00    +0.000 C 
ATOM     18  O   UNL     1       5.767   3.810  18.978  0.00  0.00    +0.000 OA
ATOM     19  H   UNL     1       3.154   4.325  17.183  0.00  0.00    +0.000 HD
BRANCH  17  20
ATOM     20  C   UNL     1       5.760   4.633  16.830  0.00  0.00    +0.000 A 
ATOM     21  C   UNL     1       5.339   4.025  15.628  0.00  0.00    +0.000 A 
ATOM     22  C   UNL     1       6.001   4.278  14.431  0.00  0.00    +0.000 A 
ATOM     23 CL   UNL     1       5.487   3.499  12.987  0.00  0.00    +0.000 Cl
ATOM     24  C   UNL     1       7.087   5.143  14.405  0.00  0.00    +0.000 A 
ATOM     25  C   UNL     1       7.518   5.748  15.591  0.00  0.00    +0.000 A 
ATOM     26  C   UNL     1       6.864   5.492  16.807  0.00  0.00    +0.000 A 
ATOM     27 CL   UNL     1       7.542   6.205  18.224  0.00  0.00    +0.000 Cl
ENDBRANCH  17  20
ENDBRANCH   6  16
TORSDOF 6
ENDMDL
MODEL 2
REMARK VINA RESULT:      -7.4      0.965      1.291
REMARK  Name = 
REMARK  8 active torsions:
REMARK  status: ('A' for Active; 'I' for Inactive)
REMARK    1  A    between atoms: C_1  and  N_2
REMARK    2  A    between atoms: N_2  and  C_3
REMARK    3  A    between atoms: N_2  and  C_4
REMARK    4  A    between atoms: C_4  and  C_5
REMARK    5  A    between atoms: C_5  and  N_6
REMARK    6  A    between atoms: C_7  and  C_9
REMARK    7  A    between atoms: C_14  and  N_15
REMARK    8  A    between atoms: C_16  and  C_18
REMARK                            x       y       z     vdW  Elec       q    Type
REMARK                         _______ _______ _______ _____ _____    ______ ____
ROOT
ATOM      1  C   UNL     1       2.096   4.633  19.698  0.00  0.00    +0.000 A 
ATOM      2  C   UNL     1       1.304   4.247  20.801  0.00  0.00    +0.000 A 
ATOM      3  C   UNL     1       1.166   2.906  21.152  0.00  0.00    +0.000 A 
ATOM      4  C   UNL     1       1.843   1.941  20.423  0.00  0.00    +0.000 A 
ATOM      5  C   UNL     1       2.656   2.315  19.349  0.00  0.00    +0.000 A 
ATOM      6  C   UNL     1       2.798   3.658  18.958  0.00  0.00    +0.000 A 
ENDROOT
BRANCH   1   8
ATOM      7  N   UNL     1       1.924   6.950  20.413  0.00  0.00    +0.000 N 
ATOM      8  C   UNL     1       2.163   6.088  19.362  0.00  0.00    +0.000 C 
ATOM      9  O   UNL     1       2.418   6.456  18.220  0.00  0.00    +0.000 OA
ATOM     10  H   UNL     1       1.370   6.615  21.193  0.00  0.00    +0.000 HD
BRANCH   7  11
ATOM     11  C   UNL     1       2.033   8.391  20.292  0.00  0.00    +0.000 C 
BRANCH  11  12
ATOM     12  C   UNL     1       0.675   9.107  20.391  0.00  0.00    +0.000 C 
BRANCH  12  14
ATOM     13  C   UNL     1       1.151   9.923  18.134  0.00  0.00    +0.000 C 
ATOM     14  N   UNL     1       0.463  10.189  19.399  0.00  0.00    +0.000 NA
ATOM     15  C   UNL     1      -0.977  10.330  19.148  0.00  0.00    +0.000 C 
ENDBRANCH  12  14
ENDBRANCH  11  12
ENDBRANCH   7  11
ENDBRANCH   1   8
BRANCH   6  16
ATOM     16  N   UNL     1       3.633   4.021  17.858  0.00  0.00    +0.000 N 
ATOM     17  C   UNL     1       5.011   4.149  17.910  0.00  0.00    +0.000 C 
ATOM     18  O   UNL     1       5.715   3.860  18.877  0.00  0.00    +0.000 OA
ATOM     19  H   UNL     1       3.149   4.153  16.967  0.00  0.00    +0.000 HD
BRANCH  17  20
ATOM     20  C   UNL     1       5.747   4.584  16.694  0.00  0.00    +0.000 A 
ATOM     21  C   UNL     1       5.324   3.985  15.488  0.00  0.00    +0.000 A 
ATOM     22  C   UNL     1       6.003   4.221  14.297  0.00  0.00    +0.000 A 
ATOM     23 CL   UNL     1       5.485   3.452  12.849  0.00  0.00    +0.000 Cl
ATOM     24  C   UNL     1       7.109   5.061  14.281  0.00  0.00    +0.000 A 
ATOM     25  C   UNL     1       7.543   5.657  15.470  0.00  0.00    +0.000 A 
ATOM     26  C   UNL     1       6.871   5.417  16.680  0.00  0.00    +0.000 A 
ATOM     27 CL   UNL     1       7.551   6.116  18.103  0.00  0.00    +0.000 Cl
ENDBRANCH  17  20
ENDBRANCH   6  16
TORSDOF 6
ENDMDL
MODEL 3
REMARK VINA RESULT:      -7.4      1.502      1.651
REMARK  Name = 
REMARK  8 active torsions:
REMARK  status: ('A' for Active; 'I' for Inactive)
REMARK    1  A    between atoms: C_1  and  N_2
REMARK    2  A    between atoms: N_2  and  C_3
REMARK    3  A    between atoms: N_2  and  C_4
REMARK    4  A    between atoms: C_4  and  C_5
REMARK    5  A    between atoms: C_5  and  N_6
REMARK    6  A    between atoms: C_7  and  C_9
REMARK    7  A    between atoms: C_14  and  N_15
REMARK    8  A    between atoms: C_16  and  C_18
REMARK                            x       y       z     vdW  Elec       q    Type
REMARK                         _______ _______ _______ _____ _____    ______ ____
ROOT
ATOM      1  C   UNL     1       2.232   4.837  18.902  0.00  0.00    +0.000 A 
ATOM      2  C   UNL     1       1.348   4.552  19.965  0.00  0.00    +0.000 A 
ATOM      3  C   UNL     1       0.736   3.306  20.076  0.00  0.00    +0.000 A 
ATOM      4  C   UNL     1       1.026   2.323  19.144  0.00  0.00    +0.000 A 
ATOM      5  C   UNL     1       1.924   2.583  18.105  0.00  0.00    +0.000 A 
ATOM      6  C   UNL     1       2.541   3.838  17.955  0.00  0.00    +0.000 A 
ENDROOT
BRANCH   1   8
ATOM      7  N   UNL     1       2.078   7.135  18.124  0.00  0.00    +0.000 N 
ATOM      8  C   UNL     1       2.818   6.210  18.831  0.00  0.00    +0.000 C 
ATOM      9  O   UNL     1       3.887   6.463  19.379  0.00  0.00    +0.000 OA
ATOM     10  H   UNL     1       1.442   6.797  17.410  0.00  0.00    +0.000 HD
BRANCH   7  11
ATOM     11  C   UNL     1       2.449   8.533  18.025  0.00  0.00    +0.000 C 
BRANCH  11  12
ATOM     12  C   UNL     1       1.246   9.485  18.142  0.00  0.00    +0.000 C 
BRANCH  12  14
ATOM     13  C   UNL     1       0.402  11.448  19.335  0.00  0.00    +0.000 C 
ATOM     14  N   UNL     1       1.118  10.175  19.449  0.00  0.00    +0.000 NA
ATOM     15  C   UNL     1       0.404   9.298  20.385  0.00  0.00    +0.000 C 
ENDBRANCH  12  14
ENDBRANCH  11  12
ENDBRANCH   7  11
ENDBRANCH   1   8
BRANCH   6  16
ATOM     16  N   UNL     1       3.456   4.086  16.887  0.00  0.00    +0.000 N 
ATOM     17  C   UNL     1       4.836   4.091  17.004  0.00  0.00    +0.000 C 
ATOM     18  O   UNL     1       5.464   3.773  18.013  0.00  0.00    +0.000 OA
ATOM     19  H   UNL     1       3.029   4.230  15.970  0.00  0.00    +0.000 HD
BRANCH  17  20
ATOM     20  C   UNL     1       5.665   4.415  15.813  0.00  0.00    +0.000 A 
ATOM     21  C   UNL     1       5.336   3.705  14.639  0.00  0.00    +0.000 A 
ATOM     22  C   UNL     1       6.106   3.834  13.487  0.00  0.00    +0.000 A 
ATOM     23 CL   UNL     1       5.701   2.931  12.081  0.00  0.00    +0.000 Cl
ATOM     24  C   UNL     1       7.211   4.675  13.480  0.00  0.00    +0.000 A 
ATOM     25  C   UNL     1       7.552   5.381  14.638  0.00  0.00    +0.000 A 
ATOM     26  C   UNL     1       6.788   5.250  15.809  0.00  0.00    +0.000 A 
ATOM     27 CL   UNL     1       7.357   6.081  17.210  0.00  0.00    +0.000 Cl
ENDBRANCH  17  20
ENDBRANCH   6  16
TORSDOF 6
ENDMDL
MODEL 4
REMARK VINA RESULT:      -7.2      2.988      6.805
REMARK  Name = 
REMARK  8 active torsions:
REMARK  status: ('A' for Active; 'I' for Inactive)
REMARK    1  A    between atoms: C_1  and  N_2
REMARK    2  A    between atoms: N_2  and  C_3
REMARK    3  A    between atoms: N_2  and  C_4
REMARK    4  A    between atoms: C_4  and  C_5
REMARK    5  A    between atoms: C_5  and  N_6
REMARK    6  A    between atoms: C_7  and  C_9
REMARK    7  A    between atoms: C_14  and  N_15
REMARK    8  A    between atoms: C_16  and  C_18
REMARK                            x       y       z     vdW  Elec       q    Type
REMARK                         _______ _______ _______ _____ _____    ______ ____
ROOT
ATOM      1  C   UNL     1       5.454   4.807  17.365  0.00  0.00    +0.000 A 
ATOM      2  C   UNL     1       6.254   4.024  16.505  0.00  0.00    +0.000 A 
ATOM      3  C   UNL     1       6.478   4.407  15.185  0.00  0.00    +0.000 A 
ATOM      4  C   UNL     1       5.930   5.592  14.720  0.00  0.00    +0.000 A 
ATOM      5  C   UNL     1       5.163   6.392  15.572  0.00  0.00    +0.000 A 
ATOM      6  C   UNL     1       4.903   6.021  16.903  0.00  0.00    +0.000 A 
ENDROOT
BRANCH   1   8
ATOM      7  N   UNL     1       4.698   3.039  18.853  0.00  0.00    +0.000 N 
ATOM      8  C   UNL     1       5.230   4.309  18.756  0.00  0.00    +0.000 C 
ATOM      9  O   UNL     1       5.515   5.007  19.724  0.00  0.00    +0.000 OA
ATOM     10  H   UNL     1       4.154   2.686  18.073  0.00  0.00    +0.000 HD
BRANCH   7  11
ATOM     11  C   UNL     1       4.496   2.363  20.119  0.00  0.00    +0.000 C 
BRANCH  11  12
ATOM     12  C   UNL     1       3.076   2.551  20.681  0.00  0.00    +0.000 C 
BRANCH  12  14
ATOM     13  C   UNL     1       1.829   1.696  18.757  0.00  0.00    +0.000 C 
ATOM     14  N   UNL     1       2.032   2.827  19.665  0.00  0.00    +0.000 NA
ATOM     15  C   UNL     1       0.769   3.133  20.349  0.00  0.00    +0.000 C 
ENDBRANCH  12  14
ENDBRANCH  11  12
ENDBRANCH   7  11
ENDBRANCH   1   8
BRANCH   6  16
ATOM     16  N   UNL     1       4.116   6.850  17.759  0.00  0.00    +0.000 N 
ATOM     17  C   UNL     1       2.780   6.645  18.062  0.00  0.00    +0.000 C 
ATOM     18  O   UNL     1       2.118   5.664  17.726  0.00  0.00    +0.000 OA
ATOM     19  H   UNL     1       4.618   7.625  18.199  0.00  0.00    +0.000 HD
BRANCH  17  20
ATOM     20  C   UNL     1       2.074   7.622  18.933  0.00  0.00    +0.000 A 
ATOM     21  C   UNL     1       1.827   8.882  18.347  0.00  0.00    +0.000 A 
ATOM     22  C   UNL     1       1.275   9.919  19.092  0.00  0.00    +0.000 A 
ATOM     23 CL   UNL     1       1.016  11.454  18.362  0.00  0.00    +0.000 Cl
ATOM     24  C   UNL     1       0.952   9.721  20.428  0.00  0.00    +0.000 A 
ATOM     25  C   UNL     1       1.196   8.479  21.023  0.00  0.00    +0.000 A 
ATOM     26  C   UNL     1       1.763   7.428  20.283  0.00  0.00    +0.000 A 
ATOM     27 CL   UNL     1       2.120   5.974  21.139  0.00  0.00    +0.000 Cl
ENDBRANCH  17  20
ENDBRANCH   6  16
TORSDOF 6
ENDMDL
MODEL 5
REMARK VINA RESULT:      -7.1      1.039      1.169
REMARK  Name = 
REMARK  8 active torsions:
REMARK  status: ('A' for Active; 'I' for Inactive)
REMARK    1  A    between atoms: C_1  and  N_2
REMARK    2  A    between atoms: N_2  and  C_3
REMARK    3  A    between atoms: N_2  and  C_4
REMARK    4  A    between atoms: C_4  and  C_5
REMARK    5  A    between atoms: C_5  and  N_6
REMARK    6  A    between atoms: C_7  and  C_9
REMARK    7  A    between atoms: C_14  and  N_15
REMARK    8  A    between atoms: C_16  and  C_18
REMARK                            x       y       z     vdW  Elec       q    Type
REMARK                         _______ _______ _______ _____ _____    ______ ____
ROOT
ATOM      1  C   UNL     1       2.461   4.713  20.241  0.00  0.00    +0.000 A 
ATOM      2  C   UNL     1       1.570   4.275  21.245  0.00  0.00    +0.000 A 
ATOM      3  C   UNL     1       1.480   2.929  21.588  0.00  0.00    +0.000 A 
ATOM      4  C   UNL     1       2.301   2.010  20.954  0.00  0.00    +0.000 A 
ATOM      5  C   UNL     1       3.209   2.437  19.980  0.00  0.00    +0.000 A 
ATOM      6  C   UNL     1       3.308   3.785  19.598  0.00  0.00    +0.000 A 
ENDROOT
BRANCH   1   8
ATOM      7  N   UNL     1       1.701   6.972  20.719  0.00  0.00    +0.000 N 
ATOM      8  C   UNL     1       2.472   6.168  19.903  0.00  0.00    +0.000 C 
ATOM      9  O   UNL     1       3.134   6.588  18.960  0.00  0.00    +0.000 OA
ATOM     10  H   UNL     1       0.918   6.550  21.207  0.00  0.00    +0.000 HD
BRANCH   7  11
ATOM     11  C   UNL     1       1.660   8.416  20.594  0.00  0.00    +0.000 C 
BRANCH  11  12
ATOM     12  C   UNL     1       1.129   9.114  21.858  0.00  0.00    +0.000 C 
BRANCH  12  14
ATOM     13  C   UNL     1      -0.695  10.308  22.967  0.00  0.00    +0.000 C 
ATOM     14  N   UNL     1      -0.290   9.537  21.790  0.00  0.00    +0.000 NA
ATOM     15  C   UNL     1      -0.488  10.352  20.584  0.00  0.00    +0.000 C 
ENDBRANCH  12  14
ENDBRANCH  11  12
ENDBRANCH   7  11
ENDBRANCH   1   8
BRANCH   6  16
ATOM     16  N   UNL     1       4.242   4.203  18.601  0.00  0.00    +0.000 N 
ATOM     17  C   UNL     1       4.116   3.968  17.242  0.00  0.00    +0.000 C 
ATOM     18  O   UNL     1       3.134   3.468  16.695  0.00  0.00    +0.000 OA
ATOM     19  H   UNL     1       5.034   4.749  18.945  0.00  0.00    +0.000 HD
BRANCH  17  20
ATOM     20  C   UNL     1       5.195   4.420  16.323  0.00  0.00    +0.000 A 
ATOM     21  C   UNL     1       5.132   3.893  15.015  0.00  0.00    +0.000 A 
ATOM     22  C   UNL     1       6.142   4.148  14.093  0.00  0.00    +0.000 A 
ATOM     23 CL   UNL     1       6.056   3.466  12.518  0.00  0.00    +0.000 Cl
ATOM     24  C   UNL     1       7.228   4.937  14.452  0.00  0.00    +0.000 A 
ATOM     25  C   UNL     1       7.305   5.461  15.746  0.00  0.00    +0.000 A 
ATOM     26  C   UNL     1       6.296   5.201  16.688  0.00  0.00    +0.000 A 
ATOM     27 CL   UNL     1       6.543   5.807  18.284  0.00  0.00    +0.000 Cl
ENDBRANCH  17  20
ENDBRANCH   6  16
TORSDOF 6
ENDMDL
MODEL 6
REMARK VINA RESULT:      -7.1      2.832      6.767
REMARK  Name = 
REMARK  8 active torsions:
REMARK  status: ('A' for Active; 'I' for Inactive)
REMARK    1  A    between atoms: C_1  and  N_2
REMARK    2  A    between atoms: N_2  and  C_3
REMARK    3  A    between atoms: N_2  and  C_4
REMARK    4  A    between atoms: C_4  and  C_5
REMARK    5  A    between atoms: C_5  and  N_6
REMARK    6  A    between atoms: C_7  and  C_9
REMARK    7  A    between atoms: C_14  and  N_15
REMARK    8  A    between atoms: C_16  and  C_18
REMARK                            x       y       z     vdW  Elec       q    Type
REMARK                         _______ _______ _______ _____ _____    ______ ____
ROOT
ATOM      1  C   UNL     1       3.602   3.687  18.891  0.00  0.00    +0.000 A 
ATOM      2  C   UNL     1       3.757   2.286  18.799  0.00  0.00    +0.000 A 
ATOM      3  C   UNL     1       2.654   1.437  18.832  0.00  0.00    +0.000 A 
ATOM      4  C   UNL     1       1.383   1.980  18.926  0.00  0.00    +0.000 A 
ATOM      5  C   UNL     1       1.215   3.367  18.985  0.00  0.00    +0.000 A 
ATOM      6  C   UNL     1       2.310   4.248  18.975  0.00  0.00    +0.000 A 
ENDROOT
BRANCH   1   8
ATOM      7  N   UNL     1       5.917   3.991  18.215  0.00  0.00    +0.000 N 
ATOM      8  C   UNL     1       4.837   4.527  18.887  0.00  0.00    +0.000 C 
ATOM      9  O   UNL     1       4.854   5.618  19.450  0.00  0.00    +0.000 OA
ATOM     10  H   UNL     1       5.966   2.984  18.111  0.00  0.00    +0.000 HD
BRANCH   7  11
ATOM     11  C   UNL     1       7.167   4.704  18.035  0.00  0.00    +0.000 C 
BRANCH  11  12
ATOM     12  C   UNL     1       7.395   5.159  16.583  0.00  0.00    +0.000 C 
BRANCH  12  14
ATOM     13  C   UNL     1       5.479   6.539  15.943  0.00  0.00    +0.000 C 
ATOM     14  N   UNL     1       6.906   6.523  16.269  0.00  0.00    +0.000 NA
ATOM     15  C   UNL     1       7.150   7.394  17.427  0.00  0.00    +0.000 C 
ENDBRANCH  12  14
ENDBRANCH  11  12
ENDBRANCH   7  11
ENDBRANCH   1   8
BRANCH   6  16
ATOM     16  N   UNL     1       2.119   5.662  19.036  0.00  0.00    +0.000 N 
ATOM     17  C   UNL     1       1.839   6.380  20.187  0.00  0.00    +0.000 C 
ATOM     18  O   UNL     1       1.827   5.918  21.327  0.00  0.00    +0.000 OA
ATOM     19  H   UNL     1       2.244   6.159  18.151  0.00  0.00    +0.000 HD
BRANCH  17  20
ATOM     20  C   UNL     1       1.617   7.847  20.092  0.00  0.00    +0.000 A 
ATOM     21  C   UNL     1       0.950   8.428  21.192  0.00  0.00    +0.000 A 
ATOM     22  C   UNL     1       0.583   9.769  21.178  0.00  0.00    +0.000 A 
ATOM     23 CL   UNL     1      -0.258  10.441  22.518  0.00  0.00    +0.000 Cl
ATOM     24  C   UNL     1       0.876  10.559  20.073  0.00  0.00    +0.000 A 
ATOM     25  C   UNL     1       1.531   9.996  18.974  0.00  0.00    +0.000 A 
ATOM     26  C   UNL     1       1.898   8.640  18.974  0.00  0.00    +0.000 A 
ATOM     27 CL   UNL     1       2.605   8.022  17.527  0.00  0.00    +0.000 Cl
ENDBRANCH  17  20
ENDBRANCH   6  16
TORSDOF 6
ENDMDL
MODEL 7
REMARK VINA RESULT:      -7.1      1.225      1.335
REMARK  Name = 
REMARK  8 active torsions:
REMARK  status: ('A' for Active; 'I' for Inactive)
REMARK    1  A    between atoms: C_1  and  N_2
REMARK    2  A    between atoms: N_2  and  C_3
REMARK    3  A    between atoms: N_2  and  C_4
REMARK    4  A    between atoms: C_4  and  C_5
REMARK    5  A    between atoms: C_5  and  N_6
REMARK    6  A    between atoms: C_7  and  C_9
REMARK    7  A    between atoms: C_14  and  N_15
REMARK    8  A    between atoms: C_16  and  C_18
REMARK                            x       y       z     vdW  Elec       q    Type
REMARK                         _______ _______ _______ _____ _____    ______ ____
ROOT
ATOM      1  C   UNL     1       2.534   4.767  20.026  0.00  0.00    +0.000 A 
ATOM      2  C   UNL     1       1.696   4.395  21.100  0.00  0.00    +0.000 A 
ATOM      3  C   UNL     1       1.854   3.171  21.744  0.00  0.00    +0.000 A 
ATOM      4  C   UNL     1       2.870   2.319  21.343  0.00  0.00    +0.000 A 
ATOM      5  C   UNL     1       3.727   2.691  20.302  0.00  0.00    +0.000 A 
ATOM      6  C   UNL     1       3.579   3.910  19.619  0.00  0.00    +0.000 A 
ENDROOT
BRANCH   1   8
ATOM      7  N   UNL     1       2.113   7.154  20.215  0.00  0.00    +0.000 N 
ATOM      8  C   UNL     1       2.276   6.080  19.363  0.00  0.00    +0.000 C 
ATOM      9  O   UNL     1       2.222   6.164  18.140  0.00  0.00    +0.000 OA
ATOM     10  H   UNL     1       1.799   6.971  21.162  0.00  0.00    +0.000 HD
BRANCH   7  11
ATOM     11  C   UNL     1       1.943   8.515  19.746  0.00  0.00    +0.000 C 
BRANCH  11  12
ATOM     12  C   UNL     1       0.713   9.211  20.355  0.00  0.00    +0.000 C 
BRANCH  12  14
ATOM     13  C   UNL     1      -1.009  10.703  19.463  0.00  0.00    +0.000 C 
ATOM     14  N   UNL     1       0.409  10.550  19.795  0.00  0.00    +0.000 NA
ATOM     15  C   UNL     1       0.793  11.575  20.775  0.00  0.00    +0.000 C 
ENDBRANCH  12  14
ENDBRANCH  11  12
ENDBRANCH   7  11
ENDBRANCH   1   8
BRANCH   6  16
ATOM     16  N   UNL     1       4.463   4.273  18.558  0.00  0.00    +0.000 N 
ATOM     17  C   UNL     1       4.310   3.905  17.231  0.00  0.00    +0.000 C 
ATOM     18  O   UNL     1       3.337   3.312  16.766  0.00  0.00    +0.000 OA
ATOM     19  H   UNL     1       5.237   4.885  18.824  0.00  0.00    +0.000 HD
BRANCH  17  20
ATOM     20  C   UNL     1       5.339   4.317  16.240  0.00  0.00    +0.000 A 
ATOM     21  C   UNL     1       5.141   3.831  14.930  0.00  0.00    +0.000 A 
ATOM     22  C   UNL     1       6.089   4.050  13.936  0.00  0.00    +0.000 A 
ATOM     23 CL   UNL     1       5.837   3.418  12.357  0.00  0.00    +0.000 Cl
ATOM     24  C   UNL     1       7.247   4.762  14.224  0.00  0.00    +0.000 A 
ATOM     25  C   UNL     1       7.458   5.244  15.519  0.00  0.00    +0.000 A 
ATOM     26  C   UNL     1       6.512   5.020  16.533  0.00  0.00    +0.000 A 
ATOM     27 CL   UNL     1       6.921   5.565  18.117  0.00  0.00    +0.000 Cl
ENDBRANCH  17  20
ENDBRANCH   6  16
TORSDOF 6
ENDMDL
MODEL 8
REMARK VINA RESULT:      -7.1      2.960      6.977
REMARK  Name = 
REMARK  8 active torsions:
REMARK  status: ('A' for Active; 'I' for Inactive)
REMARK    1  A    between atoms: C_1  and  N_2
REMARK    2  A    between atoms: N_2  and  C_3
REMARK    3  A    between atoms: N_2  and  C_4
REMARK    4  A    between atoms: C_4  and  C_5
REMARK    5  A    between atoms: C_5  and  N_6
REMARK    6  A    between atoms: C_7  and  C_9
REMARK    7  A    between atoms: C_14  and  N_15
REMARK    8  A    between atoms: C_16  and  C_18
REMARK                            x       y       z     vdW  Elec       q    Type
REMARK                         _______ _______ _______ _____ _____    ______ ____
ROOT
ATOM      1  C   UNL     1       3.134   4.087  18.060  0.00  0.00    +0.000 A 
ATOM      2  C   UNL     1       3.361   2.722  17.778  0.00  0.00    +0.000 A 
ATOM      3  C   UNL     1       2.438   1.749  18.152  0.00  0.00    +0.000 A 
ATOM      4  C   UNL     1       1.266   2.131  18.784  0.00  0.00    +0.000 A 
ATOM      5  C   UNL     1       1.016   3.483  19.039  0.00  0.00    +0.000 A 
ATOM      6  C   UNL     1       1.937   4.486  18.693  0.00  0.00    +0.000 A 
ENDROOT
BRANCH   1   8
ATOM      7  N   UNL     1       4.815   4.806  16.459  0.00  0.00    +0.000 N 
ATOM      8  C   UNL     1       4.188   5.067  17.660  0.00  0.00    +0.000 C 
ATOM      9  O   UNL     1       4.452   6.029  18.375  0.00  0.00    +0.000 OA
ATOM     10  H   UNL     1       4.831   3.849  16.124  0.00  0.00    +0.000 HD
BRANCH   7  11
ATOM     11  C   UNL     1       5.800   5.695  15.873  0.00  0.00    +0.000 C 
BRANCH  11  12
ATOM     12  C   UNL     1       7.242   5.350  16.285  0.00  0.00    +0.000 C 
BRANCH  12  14
ATOM     13  C   UNL     1       7.193   7.580  17.290  0.00  0.00    +0.000 C 
ATOM     14  N   UNL     1       7.846   6.269  17.279  0.00  0.00    +0.000 NA
ATOM     15  C   UNL     1       7.743   5.664  18.614  0.00  0.00    +0.000 C 
ENDBRANCH  12  14
ENDBRANCH  11  12
ENDBRANCH   7  11
ENDBRANCH   1   8
BRANCH   6  16
ATOM     16  N   UNL     1       1.665   5.862  18.962  0.00  0.00    +0.000 N 
ATOM     17  C   UNL     1       1.787   6.472  20.200  0.00  0.00    +0.000 C 
ATOM     18  O   UNL     1       2.251   5.944  21.209  0.00  0.00    +0.000 OA
ATOM     19  H   UNL     1       1.399   6.422  18.149  0.00  0.00    +0.000 HD
BRANCH  17  20
ATOM     20  C   UNL     1       1.421   7.906  20.342  0.00  0.00    +0.000 A 
ATOM     21  C   UNL     1       0.807   8.252  21.565  0.00  0.00    +0.000 A 
ATOM     22  C   UNL     1       0.315   9.536  21.779  0.00  0.00    +0.000 A 
ATOM     23 CL   UNL     1      -0.458   9.920  23.265  0.00  0.00    +0.000 Cl
ATOM     24  C   UNL     1       0.432  10.500  20.786  0.00  0.00    +0.000 A 
ATOM     25  C   UNL     1       1.033  10.169  19.567  0.00  0.00    +0.000 A 
ATOM     26  C   UNL     1       1.523   8.874  19.337  0.00  0.00    +0.000 A 
ATOM     27 CL   UNL     1       2.149   8.544  17.763  0.00  0.00    +0.000 Cl
ENDBRANCH  17  20
ENDBRANCH   6  16
TORSDOF 6
ENDMDL
MODEL 9
REMARK VINA RESULT:      -7.0      3.575      6.966
REMARK  Name = 
REMARK  8 active torsions:
REMARK  status: ('A' for Active; 'I' for Inactive)
REMARK    1  A    between atoms: C_1  and  N_2
REMARK    2  A    between atoms: N_2  and  C_3
REMARK    3  A    between atoms: N_2  and  C_4
REMARK    4  A    between atoms: C_4  and  C_5
REMARK    5  A    between atoms: C_5  and  N_6
REMARK    6  A    between atoms: C_7  and  C_9
REMARK    7  A    between atoms: C_14  and  N_15
REMARK    8  A    between atoms: C_16  and  C_18
REMARK                            x       y       z     vdW  Elec       q    Type
REMARK                         _______ _______ _______ _____ _____    ______ ____
ROOT
ATOM      1  C   UNL     1       6.381   5.728  15.788  0.00  0.00    +0.000 A 
ATOM      2  C   UNL     1       7.379   5.701  14.791  0.00  0.00    +0.000 A 
ATOM      3  C   UNL     1       7.332   4.775  13.752  0.00  0.00    +0.000 A 
ATOM      4  C   UNL     1       6.271   3.888  13.681  0.00  0.00    +0.000 A 
ATOM      5  C   UNL     1       5.259   3.926  14.646  0.00  0.00    +0.000 A 
ATOM      6  C   UNL     1       5.290   4.835  15.718  0.00  0.00    +0.000 A 
ENDROOT
BRANCH   1   8
ATOM      7  N   UNL     1       7.819   7.039  17.244  0.00  0.00    +0.000 N 
ATOM      8  C   UNL     1       6.522   6.726  16.891  0.00  0.00    +0.000 C 
ATOM      9  O   UNL     1       5.531   7.217  17.423  0.00  0.00    +0.000 OA
ATOM     10  H   UNL     1       8.547   6.359  17.053  0.00  0.00    +0.000 HD
BRANCH   7  11
ATOM     11  C   UNL     1       8.146   8.050  18.231  0.00  0.00    +0.000 C 
BRANCH  11  12
ATOM     12  C   UNL     1       8.092   9.481  17.667  0.00  0.00    +0.000 C 
BRANCH  12  14
ATOM     13  C   UNL     1       8.860  11.794  17.874  0.00  0.00    +0.000 C 
ATOM     14  N   UNL     1       9.156  10.389  18.160  0.00  0.00    +0.000 NA
ATOM     15  C   UNL     1       9.304  10.208  19.610  0.00  0.00    +0.000 C 
ENDBRANCH  12  14
ENDBRANCH  11  12
ENDBRANCH   7  11
ENDBRANCH   1   8
BRANCH   6  16
ATOM     16  N   UNL     1       4.248   4.860  16.694  0.00  0.00    +0.000 N 
ATOM     17  C   UNL     1       4.292   4.225  17.924  0.00  0.00    +0.000 C 
ATOM     18  O   UNL     1       5.274   3.648  18.391  0.00  0.00    +0.000 OA
ATOM     19  H   UNL     1       3.436   5.432  16.452  0.00  0.00    +0.000 HD
BRANCH  17  20
ATOM     20  C   UNL     1       3.109   4.297  18.822  0.00  0.00    +0.000 A 
ATOM     21  C   UNL     1       2.829   5.577  19.346  0.00  0.00    +0.000 A 
ATOM     22  C   UNL     1       1.818   5.758  20.285  0.00  0.00    +0.000 A 
ATOM     23 CL   UNL     1       1.520   7.324  20.930  0.00  0.00    +0.000 Cl
ATOM     24  C   UNL     1       1.065   4.673  20.715  0.00  0.00    +0.000 A 
ATOM     25  C   UNL     1       1.336   3.398  20.208  0.00  0.00    +0.000 A 
ATOM     26  C   UNL     1       2.361   3.202  19.267  0.00  0.00    +0.000 A 
ATOM     27 CL   UNL     1       2.681   1.576  18.789  0.00  0.00    +0.000 Cl
ENDBRANCH  17  20
ENDBRANCH   6  16
TORSDOF 6
ENDMDL
