MODEL 1
REMARK VINA RESULT:      -8.4      0.000      0.000
REMARK  Name = 
REMARK  4 active torsions:
REMARK  status: ('A' for Active; 'I' for Inactive)
REMARK    1  A    between atoms: S_2  and  O_4
REMARK    2  A    between atoms: S_2  and  C_5
REMARK    3  A    between atoms: C_9  and  C_10
REMARK    4  A    between atoms: C_13  and  C_14
REMARK                            x       y       z     vdW  Elec       q    Type
REMARK                         _______ _______ _______ _____ _____    ______ ____
ROOT
ATOM      1  C   UNL     1       2.421   6.467  19.581  0.00  0.00    +0.000 A 
ATOM      2  N   UNL     1       3.355   6.209  18.705  0.00  0.00    +0.000 NA
ATOM      3  N   UNL     1       3.654   4.892  18.855  0.00  0.00    +0.000 N 
ATOM      4  C   UNL     1       4.564   4.051  18.266  0.00  0.00    +0.000 A 
ATOM      5  N   UNL     1       4.386   2.841  18.792  0.00  0.00    +0.000 NA
ATOM      6  N   UNL     1       3.387   2.909  19.764  0.00  0.00    +0.000 NA
ATOM      7  C   UNL     1       2.988   4.148  19.763  0.00  0.00    +0.000 A 
ATOM      8  S   UNL     1       1.849   5.114  20.592  0.00  0.00    +0.000 S 
ENDROOT
BRANCH   1  13
ATOM      9  C   UNL     1       0.694   9.401  21.161  0.00  0.00    +0.000 A 
ATOM     10  C   UNL     1       0.587  10.297  20.096  0.00  0.00    +0.000 A 
ATOM     11  C   UNL     1       1.134   9.961  18.858  0.00  0.00    +0.000 A 
ATOM     12  C   UNL     1       1.773   8.731  18.679  0.00  0.00    +0.000 A 
ATOM     13  C   UNL     1       1.870   7.828  19.747  0.00  0.00    +0.000 A 
ATOM     14  C   UNL     1       1.332   8.170  20.995  0.00  0.00    +0.000 A 
BRANCH   9  16
ATOM     15  O   UNL     1      -0.877  10.972  22.535  0.00  0.00    +0.000 OA
ATOM     16  S   UNL     1      -0.079   9.779  22.705  0.00  0.00    +0.000 S 
ATOM     17  O   UNL     1       0.931   9.677  23.734  0.00  0.00    +0.000 OA
BRANCH  16  18
ATOM     18  O   UNL     1      -1.130   8.578  22.951  0.00  0.00    +0.000 OA
ATOM     19  H   UNL     1      -1.691   8.499  22.151  0.00  0.00    +0.000 HD
ENDBRANCH  16  18
ENDBRANCH   9  16
ENDBRANCH   1  13
BRANCH   4  20
ATOM     20  C   UNL     1       5.523   4.442  17.235  0.00  0.00    +0.000 A 
ATOM     21  C   UNL     1       6.529   5.383  17.479  0.00  0.00    +0.000 A 
ATOM     22  C   UNL     1       7.390   5.721  16.450  0.00  0.00    +0.000 A 
ATOM     23  N   UNL     1       7.320   5.192  15.212  0.00  0.00    +0.000 NA
ATOM     24  C   UNL     1       6.352   4.275  14.998  0.00  0.00    +0.000 A 
ATOM     25  C   UNL     1       5.448   3.867  15.965  0.00  0.00    +0.000 A 
ENDBRANCH   4  20
TORSDOF 4
ENDMDL
MODEL 2
REMARK VINA RESULT:      -8.0      0.422      1.381
REMARK  Name = 
REMARK  4 active torsions:
REMARK  status: ('A' for Active; 'I' for Inactive)
REMARK    1  A    between atoms: S_2  and  O_4
REMARK    2  A    between atoms: S_2  and  C_5
REMARK    3  A    between atoms: C_9  and  C_10
REMARK    4  A    between atoms: C_13  and  C_14
REMARK                            x       y       z     vdW  Elec       q    Type
REMARK                         _______ _______ _______ _____ _____    ______ ____
ROOT
ATOM      1  C   UNL     1       2.343   6.289  19.547  0.00  0.00    +0.000 A 
ATOM      2  N   UNL     1       3.303   5.982  18.716  0.00  0.00    +0.000 NA
ATOM      3  N   UNL     1       3.480   4.640  18.828  0.00  0.00    +0.000 N 
ATOM      4  C   UNL     1       4.350   3.746  18.256  0.00  0.00    +0.000 A 
ATOM      5  N   UNL     1       4.038   2.537  18.721  0.00  0.00    +0.000 NA
ATOM      6  N   UNL     1       2.991   2.656  19.636  0.00  0.00    +0.000 NA
ATOM      7  C   UNL     1       2.699   3.924  19.664  0.00  0.00    +0.000 A 
ATOM      8  S   UNL     1       1.598   4.954  20.467  0.00  0.00    +0.000 S 
ENDROOT
BRANCH   1  13
ATOM      9  C   UNL     1       0.884   9.328  21.195  0.00  0.00    +0.000 A 
ATOM     10  C   UNL     1       0.816  10.240  20.140  0.00  0.00    +0.000 A 
ATOM     11  C   UNL     1       1.301   9.875  18.885  0.00  0.00    +0.000 A 
ATOM     12  C   UNL     1       1.841   8.602  18.680  0.00  0.00    +0.000 A 
ATOM     13  C   UNL     1       1.900   7.686  19.738  0.00  0.00    +0.000 A 
ATOM     14  C   UNL     1       1.424   8.055  21.004  0.00  0.00    +0.000 A 
BRANCH   9  16
ATOM     15  O   UNL     1       1.202   9.585  23.776  0.00  0.00    +0.000 OA
ATOM     16  S   UNL     1       0.184   9.749  22.764  0.00  0.00    +0.000 S 
ATOM     17  O   UNL     1      -1.100   9.091  22.858  0.00  0.00    +0.000 OA
BRANCH  16  18
ATOM     18  O   UNL     1      -0.102  11.336  22.680  0.00  0.00    +0.000 OA
ATOM     19  H   UNL     1       0.392  11.693  21.912  0.00  0.00    +0.000 HD
ENDBRANCH  16  18
ENDBRANCH   9  16
ENDBRANCH   1  13
BRANCH   4  20
ATOM     20  C   UNL     1       5.399   4.089  17.299  0.00  0.00    +0.000 A 
ATOM     21  C   UNL     1       5.253   3.856  15.928  0.00  0.00    +0.000 A 
ATOM     22  C   UNL     1       6.297   4.187  15.081  0.00  0.00    +0.000 A 
ATOM     23  N   UNL     1       7.458   4.729  15.501  0.00  0.00    +0.000 NA
ATOM     24  C   UNL     1       7.574   4.961  16.826  0.00  0.00    +0.000 A 
ATOM     25  C   UNL     1       6.585   4.669  17.751  0.00  0.00    +0.000 A 
ENDBRANCH   4  20
TORSDOF 4
ENDMDL
MODEL 3
REMARK VINA RESULT:      -7.7      0.924      1.414
REMARK  Name = 
REMARK  4 active torsions:
REMARK  status: ('A' for Active; 'I' for Inactive)
REMARK    1  A    between atoms: S_2  and  O_4
REMARK    2  A    between atoms: S_2  and  C_5
REMARK    3  A    between atoms: C_9  and  C_10
REMARK    4  A    between atoms: C_13  and  C_14
REMARK                            x       y       z     vdW  Elec       q    Type
REMARK                         _______ _______ _______ _____ _____    ______ ____
ROOT
ATOM      1  C   UNL     1       2.341   6.846  19.502  0.00  0.00    +0.000 A 
ATOM      2  N   UNL     1       3.290   6.359  18.748  0.00  0.00    +0.000 NA
ATOM      3  N   UNL     1       3.496   5.088  19.182  0.00  0.00    +0.000 N 
ATOM      4  C   UNL     1       4.373   4.094  18.826  0.00  0.00    +0.000 A 
ATOM      5  N   UNL     1       4.096   3.032  19.581  0.00  0.00    +0.000 NA
ATOM      6  N   UNL     1       3.065   3.357  20.464  0.00  0.00    +0.000 NA
ATOM      7  C   UNL     1       2.748   4.588  20.187  0.00  0.00    +0.000 A 
ATOM      8  S   UNL     1       1.643   5.767  20.740  0.00  0.00    +0.000 S 
ENDROOT
BRANCH   1  13
ATOM      9  C   UNL     1       0.765  10.142  20.358  0.00  0.00    +0.000 A 
ATOM     10  C   UNL     1       0.742  10.795  19.124  0.00  0.00    +0.000 A 
ATOM     11  C   UNL     1       1.297  10.172  18.007  0.00  0.00    +0.000 A 
ATOM     12  C   UNL     1       1.861   8.898  18.118  0.00  0.00    +0.000 A 
ATOM     13  C   UNL     1       1.873   8.240  19.355  0.00  0.00    +0.000 A 
ATOM     14  C   UNL     1       1.327   8.871  20.481  0.00  0.00    +0.000 A 
BRANCH   9  16
ATOM     15  O   UNL     1       0.406  10.185  22.945  0.00  0.00    +0.000 OA
ATOM     16  S   UNL     1      -0.022  10.886  21.757  0.00  0.00    +0.000 S 
ATOM     17  O   UNL     1      -1.420  11.053  21.431  0.00  0.00    +0.000 OA
BRANCH  16  18
ATOM     18  O   UNL     1       0.621  12.363  21.860  0.00  0.00    +0.000 OA
ATOM     19  H   UNL     1      -0.113  13.014  21.848  0.00  0.00    +0.000 HD
ENDBRANCH  16  18
ENDBRANCH   9  16
ENDBRANCH   1  13
BRANCH   4  20
ATOM     20  C   UNL     1       5.395   4.207  17.788  0.00  0.00    +0.000 A 
ATOM     21  C   UNL     1       6.696   4.632  18.075  0.00  0.00    +0.000 A 
ATOM     22  C   UNL     1       7.607   4.736  17.039  0.00  0.00    +0.000 A 
ATOM     23  N   UNL     1       7.316   4.447  15.755  0.00  0.00    +0.000 NA
ATOM     24  C   UNL     1       6.059   4.023  15.499  0.00  0.00    +0.000 A 
ATOM     25  C   UNL     1       5.080   3.882  16.468  0.00  0.00    +0.000 A 
ENDBRANCH   4  20
TORSDOF 4
ENDMDL
MODEL 4
REMARK VINA RESULT:      -7.6      0.876      1.418
REMARK  Name = 
REMARK  4 active torsions:
REMARK  status: ('A' for Active; 'I' for Inactive)
REMARK    1  A    between atoms: S_2  and  O_4
REMARK    2  A    between atoms: S_2  and  C_5
REMARK    3  A    between atoms: C_9  and  C_10
REMARK    4  A    between atoms: C_13  and  C_14
REMARK                            x       y       z     vdW  Elec       q    Type
REMARK                         _______ _______ _______ _____ _____    ______ ____
ROOT
ATOM      1  C   UNL     1       2.359   6.821  19.472  0.00  0.00    +0.000 A 
ATOM      2  N   UNL     1       3.298   6.347  18.696  0.00  0.00    +0.000 NA
ATOM      3  N   UNL     1       3.537   5.082  19.129  0.00  0.00    +0.000 N 
ATOM      4  C   UNL     1       4.421   4.101  18.755  0.00  0.00    +0.000 A 
ATOM      5  N   UNL     1       4.181   3.038  19.520  0.00  0.00    +0.000 NA
ATOM      6  N   UNL     1       3.167   3.349  20.428  0.00  0.00    +0.000 NA
ATOM      7  C   UNL     1       2.822   4.573  20.155  0.00  0.00    +0.000 A 
ATOM      8  S   UNL     1       1.711   5.735  20.730  0.00  0.00    +0.000 S 
ENDROOT
BRANCH   1  13
ATOM      9  C   UNL     1       0.776  10.104  20.365  0.00  0.00    +0.000 A 
ATOM     10  C   UNL     1       0.684  10.742  19.126  0.00  0.00    +0.000 A 
ATOM     11  C   UNL     1       1.195  10.113  17.991  0.00  0.00    +0.000 A 
ATOM     12  C   UNL     1       1.783   8.849  18.089  0.00  0.00    +0.000 A 
ATOM     13  C   UNL     1       1.864   8.206  19.331  0.00  0.00    +0.000 A 
ATOM     14  C   UNL     1       1.362   8.842  20.476  0.00  0.00    +0.000 A 
BRANCH   9  16
ATOM     15  O   UNL     1      -1.385  10.661  21.723  0.00  0.00    +0.000 OA
ATOM     16  S   UNL     1       0.045  10.852  21.791  0.00  0.00    +0.000 S 
ATOM     17  O   UNL     1       0.633  12.164  21.943  0.00  0.00    +0.000 OA
BRANCH  16  18
ATOM     18  O   UNL     1       0.552   9.958  23.037  0.00  0.00    +0.000 OA
ATOM     19  H   UNL     1       1.028   9.181  22.677  0.00  0.00    +0.000 HD
ENDBRANCH  16  18
ENDBRANCH   9  16
ENDBRANCH   1  13
BRANCH   4  20
ATOM     20  C   UNL     1       5.415   4.228  17.692  0.00  0.00    +0.000 A 
ATOM     21  C   UNL     1       5.103   3.965  16.354  0.00  0.00    +0.000 A 
ATOM     22  C   UNL     1       6.100   4.085  15.402  0.00  0.00    +0.000 A 
ATOM     23  N   UNL     1       7.368   4.446  15.687  0.00  0.00    +0.000 NA
ATOM     24  C   UNL     1       7.646   4.710  16.982  0.00  0.00    +0.000 A 
ATOM     25  C   UNL     1       6.717   4.624  18.004  0.00  0.00    +0.000 A 
ENDBRANCH   4  20
TORSDOF 4
ENDMDL
MODEL 5
REMARK VINA RESULT:      -7.6      2.139      2.542
REMARK  Name = 
REMARK  4 active torsions:
REMARK  status: ('A' for Active; 'I' for Inactive)
REMARK    1  A    between atoms: S_2  and  O_4
REMARK    2  A    between atoms: S_2  and  C_5
REMARK    3  A    between atoms: C_9  and  C_10
REMARK    4  A    between atoms: C_13  and  C_14
REMARK                            x       y       z     vdW  Elec       q    Type
REMARK                         _______ _______ _______ _____ _____    ______ ____
ROOT
ATOM      1  C   UNL     1       2.135   6.367  20.058  0.00  0.00    +0.000 A 
ATOM      2  N   UNL     1       3.147   6.314  19.232  0.00  0.00    +0.000 NA
ATOM      3  N   UNL     1       3.485   5.002  19.140  0.00  0.00    +0.000 N 
ATOM      4  C   UNL     1       4.473   4.320  18.475  0.00  0.00    +0.000 A 
ATOM      5  N   UNL     1       4.302   3.024  18.730  0.00  0.00    +0.000 NA
ATOM      6  N   UNL     1       3.226   2.870  19.606  0.00  0.00    +0.000 NA
ATOM      7  C   UNL     1       2.779   4.073  19.819  0.00  0.00    +0.000 A 
ATOM      8  S   UNL     1       1.540   4.823  20.724  0.00  0.00    +0.000 S 
ENDROOT
BRANCH   1  13
ATOM      9  C   UNL     1       1.062   9.958  19.869  0.00  0.00    +0.000 A 
ATOM     10  C   UNL     1       0.589  10.200  21.160  0.00  0.00    +0.000 A 
ATOM     11  C   UNL     1       0.572   9.162  22.090  0.00  0.00    +0.000 A 
ATOM     12  C   UNL     1       1.035   7.891  21.738  0.00  0.00    +0.000 A 
ATOM     13  C   UNL     1       1.518   7.653  20.445  0.00  0.00    +0.000 A 
ATOM     14  C   UNL     1       1.525   8.693  19.504  0.00  0.00    +0.000 A 
BRANCH   9  16
ATOM     15  O   UNL     1       2.028  12.313  19.280  0.00  0.00    +0.000 OA
ATOM     16  S   UNL     1       1.176  11.292  18.714  0.00  0.00    +0.000 S 
ATOM     17  O   UNL     1      -0.162  11.585  18.253  0.00  0.00    +0.000 OA
BRANCH  16  18
ATOM     18  O   UNL     1       1.990  10.687  17.457  0.00  0.00    +0.000 OA
ATOM     19  H   UNL     1       2.841  10.333  17.789  0.00  0.00    +0.000 HD
ENDBRANCH  16  18
ENDBRANCH   9  16
ENDBRANCH   1  13
BRANCH   4  20
ATOM     20  C   UNL     1       5.495   4.934  17.630  0.00  0.00    +0.000 A 
ATOM     21  C   UNL     1       6.412   5.862  18.136  0.00  0.00    +0.000 A 
ATOM     22  C   UNL     1       7.339   6.419  17.274  0.00  0.00    +0.000 A 
ATOM     23  N   UNL     1       7.417   6.119  15.962  0.00  0.00    +0.000 NA
ATOM     24  C   UNL     1       6.533   5.211  15.495  0.00  0.00    +0.000 A 
ATOM     25  C   UNL     1       5.572   4.595  16.279  0.00  0.00    +0.000 A 
ENDBRANCH   4  20
TORSDOF 4
ENDMDL
MODEL 6
REMARK VINA RESULT:      -7.5      2.129      2.665
REMARK  Name = 
REMARK  4 active torsions:
REMARK  status: ('A' for Active; 'I' for Inactive)
REMARK    1  A    between atoms: S_2  and  O_4
REMARK    2  A    between atoms: S_2  and  C_5
REMARK    3  A    between atoms: C_9  and  C_10
REMARK    4  A    between atoms: C_13  and  C_14
REMARK                            x       y       z     vdW  Elec       q    Type
REMARK                         _______ _______ _______ _____ _____    ______ ____
ROOT
ATOM      1  C   UNL     1       2.230   6.223  20.077  0.00  0.00    +0.000 A 
ATOM      2  N   UNL     1       3.218   6.166  19.224  0.00  0.00    +0.000 NA
ATOM      3  N   UNL     1       3.642   4.875  19.230  0.00  0.00    +0.000 N 
ATOM      4  C   UNL     1       4.654   4.204  18.590  0.00  0.00    +0.000 A 
ATOM      5  N   UNL     1       4.578   2.927  18.958  0.00  0.00    +0.000 NA
ATOM      6  N   UNL     1       3.540   2.779  19.880  0.00  0.00    +0.000 NA
ATOM      7  C   UNL     1       3.019   3.964  20.008  0.00  0.00    +0.000 A 
ATOM      8  S   UNL     1       1.759   4.706  20.889  0.00  0.00    +0.000 S 
ENDROOT
BRANCH   1  13
ATOM      9  C   UNL     1       1.119   9.792  19.746  0.00  0.00    +0.000 A 
ATOM     10  C   UNL     1       0.468  10.020  20.961  0.00  0.00    +0.000 A 
ATOM     11  C   UNL     1       0.344   8.977  21.878  0.00  0.00    +0.000 A 
ATOM     12  C   UNL     1       0.878   7.718  21.592  0.00  0.00    +0.000 A 
ATOM     13  C   UNL     1       1.539   7.495  20.377  0.00  0.00    +0.000 A 
ATOM     14  C   UNL     1       1.654   8.538  19.448  0.00  0.00    +0.000 A 
BRANCH   9  16
ATOM     15  O   UNL     1       2.241  10.686  17.563  0.00  0.00    +0.000 OA
ATOM     16  S   UNL     1       1.363  11.133  18.619  0.00  0.00    +0.000 S 
ATOM     17  O   UNL     1       1.651  12.313  19.403  0.00  0.00    +0.000 OA
BRANCH  16  18
ATOM     18  O   UNL     1      -0.078  11.364  17.928  0.00  0.00    +0.000 OA
ATOM     19  H   UNL     1       0.027  12.047  17.232  0.00  0.00    +0.000 HD
ENDBRANCH  16  18
ENDBRANCH   9  16
ENDBRANCH   1  13
BRANCH   4  20
ATOM     20  C   UNL     1       5.607   4.809  17.663  0.00  0.00    +0.000 A 
ATOM     21  C   UNL     1       5.756   4.348  16.351  0.00  0.00    +0.000 A 
ATOM     22  C   UNL     1       6.693   4.955  15.534  0.00  0.00    +0.000 A 
ATOM     23  N   UNL     1       7.480   5.977  15.928  0.00  0.00    +0.000 NA
ATOM     24  C   UNL     1       7.311   6.419  17.193  0.00  0.00    +0.000 A 
ATOM     25  C   UNL     1       6.397   5.880  18.083  0.00  0.00    +0.000 A 
ENDBRANCH   4  20
TORSDOF 4
ENDMDL
MODEL 7
REMARK VINA RESULT:      -7.3      5.093      8.264
REMARK  Name = 
REMARK  4 active torsions:
REMARK  status: ('A' for Active; 'I' for Inactive)
REMARK    1  A    between atoms: S_2  and  O_4
REMARK    2  A    between atoms: S_2  and  C_5
REMARK    3  A    between atoms: C_9  and  C_10
REMARK    4  A    between atoms: C_13  and  C_14
REMARK                            x       y       z     vdW  Elec       q    Type
REMARK                         _______ _______ _______ _____ _____    ______ ____
ROOT
ATOM      1  C   UNL     1       2.130   7.016  19.430  0.00  0.00    +0.000 A 
ATOM      2  N   UNL     1       1.466   7.865  20.168  0.00  0.00    +0.000 NA
ATOM      3  N   UNL     1       1.488   9.044  19.492  0.00  0.00    +0.000 N 
ATOM      4  C   UNL     1       1.009  10.301  19.760  0.00  0.00    +0.000 A 
ATOM      5  N   UNL     1       1.298  11.068  18.710  0.00  0.00    +0.000 NA
ATOM      6  N   UNL     1       2.012  10.314  17.778  0.00  0.00    +0.000 NA
ATOM      7  C   UNL     1       2.099   9.122  18.291  0.00  0.00    +0.000 A 
ATOM      8  S   UNL     1       2.775   7.609  17.876  0.00  0.00    +0.000 S 
ENDROOT
BRANCH   1  13
ATOM      9  C   UNL     1       2.966   3.361  19.262  0.00  0.00    +0.000 A 
ATOM     10  C   UNL     1       2.606   2.911  20.533  0.00  0.00    +0.000 A 
ATOM     11  C   UNL     1       2.133   3.822  21.476  0.00  0.00    +0.000 A 
ATOM     12  C   UNL     1       2.008   5.175  21.149  0.00  0.00    +0.000 A 
ATOM     13  C   UNL     1       2.361   5.624  19.869  0.00  0.00    +0.000 A 
ATOM     14  C   UNL     1       2.848   4.711  18.924  0.00  0.00    +0.000 A 
BRANCH   9  16
ATOM     15  O   UNL     1       3.929   0.999  18.699  0.00  0.00    +0.000 OA
ATOM     16  S   UNL     1       3.475   2.197  18.032  0.00  0.00    +0.000 S 
ATOM     17  O   UNL     1       4.305   2.903  17.082  0.00  0.00    +0.000 OA
BRANCH  16  18
ATOM     18  O   UNL     1       2.117   1.785  17.261  0.00  0.00    +0.000 OA
ATOM     19  H   UNL     1       2.009   0.814  17.337  0.00  0.00    +0.000 HD
ENDBRANCH  16  18
ENDBRANCH   9  16
ENDBRANCH   1  13
BRANCH   4  20
ATOM     20  C   UNL     1       0.295  10.687  20.975  0.00  0.00    +0.000 A 
ATOM     21  C   UNL     1      -0.068   9.749  21.948  0.00  0.00    +0.000 A 
ATOM     22  C   UNL     1      -0.761  10.183  23.065  0.00  0.00    +0.000 A 
ATOM     23  N   UNL     1      -1.110  11.467  23.277  0.00  0.00    +0.000 NA
ATOM     24  C   UNL     1      -0.738  12.360  22.335  0.00  0.00    +0.000 A 
ATOM     25  C   UNL     1      -0.039  12.025  21.187  0.00  0.00    +0.000 A 
ENDBRANCH   4  20
TORSDOF 4
ENDMDL
MODEL 8
REMARK VINA RESULT:      -7.2      5.004      8.250
REMARK  Name = 
REMARK  4 active torsions:
REMARK  status: ('A' for Active; 'I' for Inactive)
REMARK    1  A    between atoms: S_2  and  O_4
REMARK    2  A    between atoms: S_2  and  C_5
REMARK    3  A    between atoms: C_9  and  C_10
REMARK    4  A    between atoms: C_13  and  C_14
REMARK                            x       y       z     vdW  Elec       q    Type
REMARK                         _______ _______ _______ _____ _____    ______ ____
ROOT
ATOM      1  C   UNL     1       1.932   7.312  19.477  0.00  0.00    +0.000 A 
ATOM      2  N   UNL     1       1.293   8.196  20.197  0.00  0.00    +0.000 NA
ATOM      3  N   UNL     1       1.392   9.370  19.521  0.00  0.00    +0.000 N 
ATOM      4  C   UNL     1       0.971  10.651  19.775  0.00  0.00    +0.000 A 
ATOM      5  N   UNL     1       1.326  11.399  18.732  0.00  0.00    +0.000 NA
ATOM      6  N   UNL     1       2.024  10.608  17.819  0.00  0.00    +0.000 NA
ATOM      7  C   UNL     1       2.037   9.414  18.336  0.00  0.00    +0.000 A 
ATOM      8  S   UNL     1       2.645   7.868  17.940  0.00  0.00    +0.000 S 
ENDROOT
BRANCH   1  13
ATOM      9  C   UNL     1       3.394   3.880  19.885  0.00  0.00    +0.000 A 
ATOM     10  C   UNL     1       2.360   3.184  20.514  0.00  0.00    +0.000 A 
ATOM     11  C   UNL     1       1.189   3.858  20.858  0.00  0.00    +0.000 A 
ATOM     12  C   UNL     1       1.045   5.217  20.564  0.00  0.00    +0.000 A 
ATOM     13  C   UNL     1       2.080   5.911  19.923  0.00  0.00    +0.000 A 
ATOM     14  C   UNL     1       3.263   5.238  19.588  0.00  0.00    +0.000 A 
BRANCH   9  16
ATOM     15  O   UNL     1       5.065   1.908  20.267  0.00  0.00    +0.000 OA
ATOM     16  S   UNL     1       4.842   3.010  19.360  0.00  0.00    +0.000 S 
ATOM     17  O   UNL     1       5.866   3.994  19.088  0.00  0.00    +0.000 OA
BRANCH  16  18
ATOM     18  O   UNL     1       4.439   2.343  17.946  0.00  0.00    +0.000 OA
ATOM     19  H   UNL     1       4.595   1.377  18.012  0.00  0.00    +0.000 HD
ENDBRANCH  16  18
ENDBRANCH   9  16
ENDBRANCH   1  13
BRANCH   4  20
ATOM     20  C   UNL     1       0.247  11.075  20.971  0.00  0.00    +0.000 A 
ATOM     21  C   UNL     1      -0.227  10.155  21.913  0.00  0.00    +0.000 A 
ATOM     22  C   UNL     1      -0.923  10.626  23.012  0.00  0.00    +0.000 A 
ATOM     23  N   UNL     1      -1.174  11.932  23.236  0.00  0.00    +0.000 NA
ATOM     24  C   UNL     1      -0.697  12.806  22.323  0.00  0.00    +0.000 A 
ATOM     25  C   UNL     1       0.015  12.432  21.195  0.00  0.00    +0.000 A 
ENDBRANCH   4  20
TORSDOF 4
ENDMDL
MODEL 9
REMARK VINA RESULT:      -7.1      5.017      8.170
REMARK  Name = 
REMARK  4 active torsions:
REMARK  status: ('A' for Active; 'I' for Inactive)
REMARK    1  A    between atoms: S_2  and  O_4
REMARK    2  A    between atoms: S_2  and  C_5
REMARK    3  A    between atoms: C_9  and  C_10
REMARK    4  A    between atoms: C_13  and  C_14
REMARK                            x       y       z     vdW  Elec       q    Type
REMARK                         _______ _______ _______ _____ _____    ______ ____
ROOT
ATOM      1  C   UNL     1       1.964   6.743  19.562  0.00  0.00    +0.000 A 
ATOM      2  N   UNL     1       1.279   7.653  20.204  0.00  0.00    +0.000 NA
ATOM      3  N   UNL     1       1.433   8.803  19.497  0.00  0.00    +0.000 N 
ATOM      4  C   UNL     1       1.001  10.093  19.677  0.00  0.00    +0.000 A 
ATOM      5  N   UNL     1       1.433  10.805  18.638  0.00  0.00    +0.000 NA
ATOM      6  N   UNL     1       2.191   9.980  17.804  0.00  0.00    +0.000 NA
ATOM      7  C   UNL     1       2.161   8.805  18.361  0.00  0.00    +0.000 A 
ATOM      8  S   UNL     1       2.787   7.244  18.062  0.00  0.00    +0.000 S 
ENDROOT
BRANCH   1  13
ATOM      9  C   UNL     1       3.258   3.249  20.011  0.00  0.00    +0.000 A 
ATOM     10  C   UNL     1       2.249   2.649  20.767  0.00  0.00    +0.000 A 
ATOM     11  C   UNL     1       1.157   3.410  21.182  0.00  0.00    +0.000 A 
ATOM     12  C   UNL     1       1.064   4.760  20.832  0.00  0.00    +0.000 A 
ATOM     13  C   UNL     1       2.072   5.358  20.065  0.00  0.00    +0.000 A 
ATOM     14  C   UNL     1       3.177   4.598  19.658  0.00  0.00    +0.000 A 
BRANCH   9  16
ATOM     15  O   UNL     1       4.113   1.471  18.299  0.00  0.00    +0.000 OA
ATOM     16  S   UNL     1       4.597   2.268  19.402  0.00  0.00    +0.000 S 
ATOM     17  O   UNL     1       5.254   1.673  20.544  0.00  0.00    +0.000 OA
BRANCH  16  18
ATOM     18  O   UNL     1       5.632   3.329  18.760  0.00  0.00    +0.000 OA
ATOM     19  H   UNL     1       5.651   3.184  17.791  0.00  0.00    +0.000 HD
ENDBRANCH  16  18
ENDBRANCH   9  16
ENDBRANCH   1  13
BRANCH   4  20
ATOM     20  C   UNL     1       0.196  10.560  20.804  0.00  0.00    +0.000 A 
ATOM     21  C   UNL     1       0.174   9.882  22.027  0.00  0.00    +0.000 A 
ATOM     22  C   UNL     1      -0.628  10.369  23.044  0.00  0.00    +0.000 A 
ATOM     23  N   UNL     1      -1.396  11.471  22.929  0.00  0.00    +0.000 NA
ATOM     24  C   UNL     1      -1.350  12.121  21.746  0.00  0.00    +0.000 A 
ATOM     25  C   UNL     1      -0.576  11.715  20.672  0.00  0.00    +0.000 A 
ENDBRANCH   4  20
TORSDOF 4
ENDMDL
