MODEL 1
REMARK VINA RESULT:      -7.6      0.000      0.000
REMARK  Name = 
REMARK  3 active torsions:
REMARK  status: ('A' for Active; 'I' for Inactive)
REMARK    1  A    between atoms: O_1  and  C_2
REMARK    2  A    between atoms: C_2  and  C_3
REMARK    3  A    between atoms: C_10  and  N_11
REMARK                            x       y       z     vdW  Elec       q    Type
REMARK                         _______ _______ _______ _____ _____    ______ ____
ROOT
ATOM      1  C   UNL     1       4.548   6.271  17.220  0.00  0.00    +0.000 C 
ATOM      2  C   UNL     1       4.037   4.826  16.687  0.00  0.00    +0.000 C 
ATOM      3  C   UNL     1       3.817   3.909  17.900  0.00  0.00    +0.000 A 
ATOM      4  C   UNL     1       2.765   2.987  17.949  0.00  0.00    +0.000 A 
ATOM      5  C   UNL     1       2.606   2.165  19.066  0.00  0.00    +0.000 A 
ATOM      6  C   UNL     1       3.509   2.234  20.132  0.00  0.00    +0.000 A 
ATOM      7  C   UNL     1       4.572   3.136  20.090  0.00  0.00    +0.000 A 
ATOM      8  C   UNL     1       4.712   3.978  18.989  0.00  0.00    +0.000 A 
ATOM      9  C   UNL     1       5.800   4.974  18.916  0.00  0.00    +0.000 C 
ATOM     10  N   UNL     1       6.897   4.916  19.630  0.00  0.00    +0.000 NA
ATOM     11  C   UNL     1       7.728   6.039  19.079  0.00  0.00    +0.000 C 
ATOM     12  C   UNL     1       6.788   6.945  18.269  0.00  0.00    +0.000 C 
ATOM     13  N   UNL     1       5.702   6.034  18.057  0.00  0.00    +0.000 N 
ENDROOT
BRANCH   1  14
ATOM     14  C   UNL     1       3.425   7.046  17.966  0.00  0.00    +0.000 A 
ATOM     15  C   UNL     1       2.816   8.176  17.375  0.00  0.00    +0.000 A 
ATOM     16  C   UNL     1       1.871   8.945  18.068  0.00  0.00    +0.000 A 
ATOM     17  C   UNL     1       1.509   8.594  19.364  0.00  0.00    +0.000 A 
ATOM     18 CL   UNL     1       0.393   9.570  20.236  0.00  0.00    +0.000 Cl
ATOM     19  C   UNL     1       2.058   7.467  19.959  0.00  0.00    +0.000 A 
ATOM     20  C   UNL     1       3.003   6.701  19.266  0.00  0.00    +0.000 A 
ENDBRANCH   1  14
BRANCH   2  21
ATOM     21  N   UNL     1       4.767   4.074  15.607  0.00  0.00    +0.000 NA
ATOM     22  C   UNL     1       5.946   3.294  16.001  0.00  0.00    +0.000 C 
ATOM     23  C   UNL     1       7.147   4.181  15.749  0.00  0.00    +0.000 C 
ATOM     24  C   UNL     1       6.736   5.015  14.552  0.00  0.00    +0.000 C 
ATOM     25  C   UNL     1       5.215   4.901  14.481  0.00  0.00    +0.000 C 
ENDBRANCH   2  21
BRANCH   1  26
ATOM     26  O   UNL     1       4.952   7.106  16.137  0.00  0.00    +0.000 OA
ATOM     27  H   UNL     1       5.398   6.546  15.483  0.00  0.00    +0.000 HD
ENDBRANCH   1  26
TORSDOF 3
ENDMDL
MODEL 2
REMARK VINA RESULT:      -7.5      7.424      9.510
REMARK  Name = 
REMARK  3 active torsions:
REMARK  status: ('A' for Active; 'I' for Inactive)
REMARK    1  A    between atoms: O_1  and  C_2
REMARK    2  A    between atoms: C_2  and  C_3
REMARK    3  A    between atoms: C_10  and  N_11
REMARK                            x       y       z     vdW  Elec       q    Type
REMARK                         _______ _______ _______ _____ _____    ______ ____
ROOT
ATOM      1  C   UNL     1      -1.026  13.056  19.829  0.00  0.00    +0.000 C 
ATOM      2  C   UNL     1       0.124  11.916  19.717  0.00  0.00    +0.000 C 
ATOM      3  C   UNL     1      -0.103  10.884  20.831  0.00  0.00    +0.000 A 
ATOM      4  C   UNL     1       0.128   9.518  20.632  0.00  0.00    +0.000 A 
ATOM      5  C   UNL     1      -0.082   8.613  21.674  0.00  0.00    +0.000 A 
ATOM      6  C   UNL     1      -0.495   9.064  22.933  0.00  0.00    +0.000 A 
ATOM      7  C   UNL     1      -0.714  10.424  23.151  0.00  0.00    +0.000 A 
ATOM      8  C   UNL     1      -0.535  11.322  22.102  0.00  0.00    +0.000 A 
ATOM      9  C   UNL     1      -0.788  12.768  22.275  0.00  0.00    +0.000 C 
ATOM     10  N   UNL     1      -0.822  13.372  23.437  0.00  0.00    +0.000 NA
ATOM     11  C   UNL     1      -0.945  14.823  23.068  0.00  0.00    +0.000 C 
ATOM     12  C   UNL     1      -1.375  14.881  21.594  0.00  0.00    +0.000 C 
ATOM     13  N   UNL     1      -0.996  13.562  21.181  0.00  0.00    +0.000 N 
ENDROOT
BRANCH   1  14
ATOM     14  C   UNL     1      -2.427  12.509  19.432  0.00  0.00    +0.000 A 
ATOM     15  C   UNL     1      -2.590  11.724  18.269  0.00  0.00    +0.000 A 
ATOM     16  C   UNL     1      -3.857  11.302  17.841  0.00  0.00    +0.000 A 
ATOM     17  C   UNL     1      -4.986  11.650  18.576  0.00  0.00    +0.000 A 
ATOM     18 CL   UNL     1      -6.546  11.181  18.021  0.00  0.00    +0.000 Cl
ATOM     19  C   UNL     1      -4.857  12.385  19.745  0.00  0.00    +0.000 A 
ATOM     20  C   UNL     1      -3.592  12.807  20.169  0.00  0.00    +0.000 A 
ENDBRANCH   1  14
BRANCH   2  21
ATOM     21  N   UNL     1       1.586  12.268  19.639  0.00  0.00    +0.000 NA
ATOM     22  C   UNL     1       2.055  13.398  20.449  0.00  0.00    +0.000 C 
ATOM     23  C   UNL     1       2.046  14.607  19.539  0.00  0.00    +0.000 C 
ATOM     24  C   UNL     1       2.362  14.034  18.172  0.00  0.00    +0.000 C 
ATOM     25  C   UNL     1       2.080  12.537  18.285  0.00  0.00    +0.000 C 
ENDBRANCH   2  21
BRANCH   1  26
ATOM     26  O   UNL     1      -0.762  14.143  18.944  0.00  0.00    +0.000 OA
ATOM     27  H   UNL     1      -0.500  14.905  19.484  0.00  0.00    +0.000 HD
ENDBRANCH   1  26
TORSDOF 3
ENDMDL
MODEL 3
REMARK VINA RESULT:      -7.4      4.267      7.112
REMARK  Name = 
REMARK  3 active torsions:
REMARK  status: ('A' for Active; 'I' for Inactive)
REMARK    1  A    between atoms: O_1  and  C_2
REMARK    2  A    between atoms: C_2  and  C_3
REMARK    3  A    between atoms: C_10  and  N_11
REMARK                            x       y       z     vdW  Elec       q    Type
REMARK                         _______ _______ _______ _____ _____    ______ ____
ROOT
ATOM      1  C   UNL     1       0.649  10.283  18.452  0.00  0.00    +0.000 C 
ATOM      2  C   UNL     1       0.808   9.005  19.439  0.00  0.00    +0.000 C 
ATOM      3  C   UNL     1       0.243   9.381  20.817  0.00  0.00    +0.000 A 
ATOM      4  C   UNL     1      -0.457   8.461  21.606  0.00  0.00    +0.000 A 
ATOM      5  C   UNL     1      -0.947   8.840  22.856  0.00  0.00    +0.000 A 
ATOM      6  C   UNL     1      -0.719  10.130  23.346  0.00  0.00    +0.000 A 
ATOM      7  C   UNL     1      -0.009  11.054  22.579  0.00  0.00    +0.000 A 
ATOM      8  C   UNL     1       0.452  10.684  21.318  0.00  0.00    +0.000 A 
ATOM      9  C   UNL     1       1.177  11.639  20.454  0.00  0.00    +0.000 C 
ATOM     10  N   UNL     1       1.768  12.722  20.893  0.00  0.00    +0.000 NA
ATOM     11  C   UNL     1       2.480  13.244  19.678  0.00  0.00    +0.000 C 
ATOM     12  C   UNL     1       1.874  12.535  18.457  0.00  0.00    +0.000 C 
ATOM     13  N   UNL     1       1.270  11.410  19.108  0.00  0.00    +0.000 N 
ENDROOT
BRANCH   1  14
ATOM     14  C   UNL     1      -0.837  10.555  18.087  0.00  0.00    +0.000 A 
ATOM     15  C   UNL     1      -1.533  11.642  18.663  0.00  0.00    +0.000 A 
ATOM     16  C   UNL     1      -2.898  11.849  18.422  0.00  0.00    +0.000 A 
ATOM     17  C   UNL     1      -3.594  10.977  17.591  0.00  0.00    +0.000 A 
ATOM     18 CL   UNL     1      -5.282  11.197  17.340  0.00  0.00    +0.000 Cl
ATOM     19  C   UNL     1      -2.932   9.924  16.976  0.00  0.00    +0.000 A 
ATOM     20  C   UNL     1      -1.569   9.718  17.219  0.00  0.00    +0.000 A 
ENDBRANCH   1  14
BRANCH   2  21
ATOM     21  N   UNL     1       2.122   8.289  19.606  0.00  0.00    +0.000 NA
ATOM     22  C   UNL     1       2.771   7.770  18.397  0.00  0.00    +0.000 C 
ATOM     23  C   UNL     1       2.360   6.318  18.283  0.00  0.00    +0.000 C 
ATOM     24  C   UNL     1       2.211   5.870  19.723  0.00  0.00    +0.000 C 
ATOM     25  C   UNL     1       2.087   7.156  20.537  0.00  0.00    +0.000 C 
ENDBRANCH   2  21
BRANCH   1  26
ATOM     26  O   UNL     1       1.325  10.066  17.215  0.00  0.00    +0.000 OA
ATOM     27  H   UNL     1       0.793   9.445  16.693  0.00  0.00    +0.000 HD
ENDBRANCH   1  26
TORSDOF 3
ENDMDL
MODEL 4
REMARK VINA RESULT:      -7.4      9.370     10.951
REMARK  Name = 
REMARK  3 active torsions:
REMARK  status: ('A' for Active; 'I' for Inactive)
REMARK    1  A    between atoms: O_1  and  C_2
REMARK    2  A    between atoms: C_2  and  C_3
REMARK    3  A    between atoms: C_10  and  N_11
REMARK                            x       y       z     vdW  Elec       q    Type
REMARK                         _______ _______ _______ _____ _____    ______ ____
ROOT
ATOM      1  C   UNL     1       9.235  15.688  18.281  0.00  0.00    +0.000 C 
ATOM      2  C   UNL     1       9.800  14.222  18.688  0.00  0.00    +0.000 C 
ATOM      3  C   UNL     1       9.482  13.973  20.170  0.00  0.00    +0.000 A 
ATOM      4  C   UNL     1       9.118  12.708  20.647  0.00  0.00    +0.000 A 
ATOM      5  C   UNL     1       8.847  12.522  22.003  0.00  0.00    +0.000 A 
ATOM      6  C   UNL     1       8.963  13.586  22.903  0.00  0.00    +0.000 A 
ATOM      7  C   UNL     1       9.340  14.849  22.446  0.00  0.00    +0.000 A 
ATOM      8  C   UNL     1       9.580  15.041  21.088  0.00  0.00    +0.000 A 
ATOM      9  C   UNL     1       9.946  16.369  20.552  0.00  0.00    +0.000 C 
ATOM     10  N   UNL     1      10.435  17.344  21.278  0.00  0.00    +0.000 NA
ATOM     11  C   UNL     1      10.785  18.391  20.260  0.00  0.00    +0.000 C 
ATOM     12  C   UNL     1      10.058  18.019  18.958  0.00  0.00    +0.000 C 
ATOM     13  N   UNL     1       9.791  16.636  19.219  0.00  0.00    +0.000 N 
ENDROOT
BRANCH   1  14
ATOM     14  C   UNL     1       7.681  15.726  18.251  0.00  0.00    +0.000 A 
ATOM     15  C   UNL     1       6.979  16.838  18.768  0.00  0.00    +0.000 A 
ATOM     16  C   UNL     1       5.579  16.852  18.838  0.00  0.00    +0.000 A 
ATOM     17  C   UNL     1       4.852  15.756  18.384  0.00  0.00    +0.000 A 
ATOM     18 CL   UNL     1       3.137  15.748  18.522  0.00  0.00    +0.000 Cl
ATOM     19  C   UNL     1       5.509  14.665  17.833  0.00  0.00    +0.000 A 
ATOM     20  C   UNL     1       6.907  14.653  17.765  0.00  0.00    +0.000 A 
ENDBRANCH   1  14
BRANCH   2  21
ATOM     21  N   UNL     1      11.216  13.806  18.395  0.00  0.00    +0.000 NA
ATOM     22  C   UNL     1      11.421  12.762  17.384  0.00  0.00    +0.000 C 
ATOM     23  C   UNL     1      11.533  11.455  18.138  0.00  0.00    +0.000 C 
ATOM     24  C   UNL     1      12.180  11.849  19.451  0.00  0.00    +0.000 C 
ATOM     25  C   UNL     1      11.978  13.359  19.566  0.00  0.00    +0.000 C 
ENDBRANCH   2  21
BRANCH   1  26
ATOM     26  O   UNL     1       9.664  16.060  16.972  0.00  0.00    +0.000 OA
ATOM     27  H   UNL     1      10.150  16.896  17.048  0.00  0.00    +0.000 HD
ENDBRANCH   1  26
TORSDOF 3
ENDMDL
MODEL 5
REMARK VINA RESULT:      -7.4      6.252      8.924
REMARK  Name = 
REMARK  3 active torsions:
REMARK  status: ('A' for Active; 'I' for Inactive)
REMARK    1  A    between atoms: O_1  and  C_2
REMARK    2  A    between atoms: C_2  and  C_3
REMARK    3  A    between atoms: C_10  and  N_11
REMARK                            x       y       z     vdW  Elec       q    Type
REMARK                         _______ _______ _______ _____ _____    ______ ____
ROOT
ATOM      1  C   UNL     1       0.350  10.981  19.002  0.00  0.00    +0.000 C 
ATOM      2  C   UNL     1      -1.204  11.446  18.943  0.00  0.00    +0.000 C 
ATOM      3  C   UNL     1      -1.626  11.913  20.344  0.00  0.00    +0.000 A 
ATOM      4  C   UNL     1      -2.497  12.992  20.533  0.00  0.00    +0.000 A 
ATOM      5  C   UNL     1      -2.863  13.380  21.823  0.00  0.00    +0.000 A 
ATOM      6  C   UNL     1      -2.388  12.678  22.936  0.00  0.00    +0.000 A 
ATOM      7  C   UNL     1      -1.532  11.590  22.763  0.00  0.00    +0.000 A 
ATOM      8  C   UNL     1      -1.142  11.224  21.477  0.00  0.00    +0.000 A 
ATOM      9  C   UNL     1      -0.209  10.102  21.246  0.00  0.00    +0.000 C 
ATOM     10  N   UNL     1       0.026   9.153  22.118  0.00  0.00    +0.000 NA
ATOM     11  C   UNL     1       0.896   8.193  21.358  0.00  0.00    +0.000 C 
ATOM     12  C   UNL     1       1.420   8.939  20.121  0.00  0.00    +0.000 C 
ATOM     13  N   UNL     1       0.464  10.005  20.060  0.00  0.00    +0.000 N 
ENDROOT
BRANCH   1  14
ATOM     14  C   UNL     1       1.310  12.187  19.203  0.00  0.00    +0.000 A 
ATOM     15  C   UNL     1       1.827  12.889  18.090  0.00  0.00    +0.000 A 
ATOM     16  C   UNL     1       2.768  13.917  18.245  0.00  0.00    +0.000 A 
ATOM     17  C   UNL     1       3.204  14.270  19.518  0.00  0.00    +0.000 A 
ATOM     18 CL   UNL     1       4.401  15.491  19.705  0.00  0.00    +0.000 Cl
ATOM     19  C   UNL     1       2.687  13.628  20.634  0.00  0.00    +0.000 A 
ATOM     20  C   UNL     1       1.748  12.601  20.478  0.00  0.00    +0.000 A 
ENDBRANCH   1  14
BRANCH   2  21
ATOM     21  N   UNL     1      -2.275  10.565  18.357  0.00  0.00    +0.000 NA
ATOM     22  C   UNL     1      -2.012   9.958  17.046  0.00  0.00    +0.000 C 
ATOM     23  C   UNL     1      -2.650  10.870  16.020  0.00  0.00    +0.000 C 
ATOM     24  C   UNL     1      -3.855  11.439  16.741  0.00  0.00    +0.000 C 
ATOM     25  C   UNL     1      -3.589  11.204  18.226  0.00  0.00    +0.000 C 
ENDBRANCH   2  21
BRANCH   1  26
ATOM     26  O   UNL     1       0.748  10.359  17.782  0.00  0.00    +0.000 OA
ATOM     27  H   UNL     1       1.409  10.930  17.361  0.00  0.00    +0.000 HD
ENDBRANCH   1  26
TORSDOF 3
ENDMDL
MODEL 6
REMARK VINA RESULT:      -7.1      6.778      9.423
REMARK  Name = 
REMARK  3 active torsions:
REMARK  status: ('A' for Active; 'I' for Inactive)
REMARK    1  A    between atoms: O_1  and  C_2
REMARK    2  A    between atoms: C_2  and  C_3
REMARK    3  A    between atoms: C_10  and  N_11
REMARK                            x       y       z     vdW  Elec       q    Type
REMARK                         _______ _______ _______ _____ _____    ______ ____
ROOT
ATOM      1  C   UNL     1      -0.105  11.437  19.129  0.00  0.00    +0.000 C 
ATOM      2  C   UNL     1      -1.686  11.800  19.093  0.00  0.00    +0.000 C 
ATOM      3  C   UNL     1      -2.112  12.257  20.497  0.00  0.00    +0.000 A 
ATOM      4  C   UNL     1      -3.047  13.280  20.690  0.00  0.00    +0.000 A 
ATOM      5  C   UNL     1      -3.414  13.659  21.982  0.00  0.00    +0.000 A 
ATOM      6  C   UNL     1      -2.876  13.002  23.094  0.00  0.00    +0.000 A 
ATOM      7  C   UNL     1      -1.955  11.969  22.918  0.00  0.00    +0.000 A 
ATOM      8  C   UNL     1      -1.566  11.614  21.629  0.00  0.00    +0.000 A 
ATOM      9  C   UNL     1      -0.567  10.550  21.393  0.00  0.00    +0.000 C 
ATOM     10  N   UNL     1      -0.256   9.629  22.270  0.00  0.00    +0.000 NA
ATOM     11  C   UNL     1       0.660   8.717  21.505  0.00  0.00    +0.000 C 
ATOM     12  C   UNL     1       1.114   9.480  20.250  0.00  0.00    +0.000 C 
ATOM     13  N   UNL     1       0.090  10.482  20.195  0.00  0.00    +0.000 N 
ENDROOT
BRANCH   1  14
ATOM     14  C   UNL     1       0.780  12.704  19.299  0.00  0.00    +0.000 A 
ATOM     15  C   UNL     1       1.870  12.705  20.198  0.00  0.00    +0.000 A 
ATOM     16  C   UNL     1       2.621  13.864  20.437  0.00  0.00    +0.000 A 
ATOM     17  C   UNL     1       2.303  15.044  19.774  0.00  0.00    +0.000 A 
ATOM     18 CL   UNL     1       3.187  16.481  20.109  0.00  0.00    +0.000 Cl
ATOM     19  C   UNL     1       1.265  15.067  18.854  0.00  0.00    +0.000 A 
ATOM     20  C   UNL     1       0.514  13.909  18.617  0.00  0.00    +0.000 A 
ENDBRANCH   1  14
BRANCH   2  21
ATOM     21  N   UNL     1      -2.709  10.846  18.537  0.00  0.00    +0.000 NA
ATOM     22  C   UNL     1      -2.280   9.944  17.462  0.00  0.00    +0.000 C 
ATOM     23  C   UNL     1      -2.670  10.615  16.162  0.00  0.00    +0.000 C 
ATOM     24  C   UNL     1      -3.931  11.378  16.513  0.00  0.00    +0.000 C 
ATOM     25  C   UNL     1      -3.932  11.483  18.037  0.00  0.00    +0.000 C 
ENDBRANCH   2  21
BRANCH   1  26
ATOM     26  O   UNL     1       0.311  10.826  17.909  0.00  0.00    +0.000 OA
ATOM     27  H   UNL     1      -0.381  10.201  17.641  0.00  0.00    +0.000 HD
ENDBRANCH   1  26
TORSDOF 3
ENDMDL
MODEL 7
REMARK VINA RESULT:      -7.0      9.451     13.294
REMARK  Name = 
REMARK  3 active torsions:
REMARK  status: ('A' for Active; 'I' for Inactive)
REMARK    1  A    between atoms: O_1  and  C_2
REMARK    2  A    between atoms: C_2  and  C_3
REMARK    3  A    between atoms: C_10  and  N_11
REMARK                            x       y       z     vdW  Elec       q    Type
REMARK                         _______ _______ _______ _____ _____    ______ ____
ROOT
ATOM      1  C   UNL     1      -5.674  11.798  18.378  0.00  0.00    +0.000 C 
ATOM      2  C   UNL     1      -5.984  13.375  18.604  0.00  0.00    +0.000 C 
ATOM      3  C   UNL     1      -5.692  13.722  20.072  0.00  0.00    +0.000 A 
ATOM      4  C   UNL     1      -5.130  14.948  20.445  0.00  0.00    +0.000 A 
ATOM      5  C   UNL     1      -4.890  15.228  21.791  0.00  0.00    +0.000 A 
ATOM      6  C   UNL     1      -5.234  14.302  22.781  0.00  0.00    +0.000 A 
ATOM      7  C   UNL     1      -5.810  13.082  22.427  0.00  0.00    +0.000 A 
ATOM      8  C   UNL     1      -6.021  12.791  21.081  0.00  0.00    +0.000 A 
ATOM      9  C   UNL     1      -6.595  11.497  20.655  0.00  0.00    +0.000 C 
ATOM     10  N   UNL     1      -7.282  10.705  21.440  0.00  0.00    +0.000 NA
ATOM     11  C   UNL     1      -7.768   9.632  20.509  0.00  0.00    +0.000 C 
ATOM     12  C   UNL     1      -6.930   9.731  19.226  0.00  0.00    +0.000 C 
ATOM     13  N   UNL     1      -6.431  11.067  19.367  0.00  0.00    +0.000 N 
ENDROOT
BRANCH   1  14
ATOM     14  C   UNL     1      -4.152  11.488  18.449  0.00  0.00    +0.000 A 
ATOM     15  C   UNL     1      -3.594  10.441  17.682  0.00  0.00    +0.000 A 
ATOM     16  C   UNL     1      -2.244  10.082  17.803  0.00  0.00    +0.000 A 
ATOM     17  C   UNL     1      -1.422  10.772  18.687  0.00  0.00    +0.000 A 
ATOM     18 CL   UNL     1       0.220  10.297  18.879  0.00  0.00    +0.000 Cl
ATOM     19  C   UNL     1      -1.928  11.832  19.425  0.00  0.00    +0.000 A 
ATOM     20  C   UNL     1      -3.276  12.188  19.305  0.00  0.00    +0.000 A 
ENDBRANCH   1  14
BRANCH   2  21
ATOM     21  N   UNL     1      -7.289  13.997  18.184  0.00  0.00    +0.000 NA
ATOM     22  C   UNL     1      -7.389  14.498  16.809  0.00  0.00    +0.000 C 
ATOM     23  C   UNL     1      -7.074  15.977  16.871  0.00  0.00    +0.000 C 
ATOM     24  C   UNL     1      -7.591  16.401  18.231  0.00  0.00    +0.000 C 
ATOM     25  C   UNL     1      -7.738  15.108  19.030  0.00  0.00    +0.000 C 
ENDBRANCH   2  21
BRANCH   1  26
ATOM     26  O   UNL     1      -6.104  11.369  17.087  0.00  0.00    +0.000 OA
ATOM     27  H   UNL     1      -6.232  10.409  17.123  0.00  0.00    +0.000 HD
ENDBRANCH   1  26
TORSDOF 3
ENDMDL
MODEL 8
REMARK VINA RESULT:      -7.0      8.241     10.198
REMARK  Name = 
REMARK  3 active torsions:
REMARK  status: ('A' for Active; 'I' for Inactive)
REMARK    1  A    between atoms: O_1  and  C_2
REMARK    2  A    between atoms: C_2  and  C_3
REMARK    3  A    between atoms: C_10  and  N_11
REMARK                            x       y       z     vdW  Elec       q    Type
REMARK                         _______ _______ _______ _____ _____    ______ ____
ROOT
ATOM      1  C   UNL     1       8.233  15.387  20.143  0.00  0.00    +0.000 C 
ATOM      2  C   UNL     1       9.347  14.801  19.118  0.00  0.00    +0.000 C 
ATOM      3  C   UNL     1       9.331  13.268  19.207  0.00  0.00    +0.000 A 
ATOM      4  C   UNL     1       9.525  12.459  18.081  0.00  0.00    +0.000 A 
ATOM      5  C   UNL     1       9.513  11.069  18.207  0.00  0.00    +0.000 A 
ATOM      6  C   UNL     1       9.337  10.471  19.459  0.00  0.00    +0.000 A 
ATOM      7  C   UNL     1       9.159  11.264  20.593  0.00  0.00    +0.000 A 
ATOM      8  C   UNL     1       9.139  12.650  20.462  0.00  0.00    +0.000 A 
ATOM      9  C   UNL     1       8.918  13.530  21.628  0.00  0.00    +0.000 C 
ATOM     10  N   UNL     1       9.097  13.159  22.872  0.00  0.00    +0.000 NA
ATOM     11  C   UNL     1       8.904  14.432  23.644  0.00  0.00    +0.000 C 
ATOM     12  C   UNL     1       8.211  15.431  22.705  0.00  0.00    +0.000 C 
ATOM     13  N   UNL     1       8.510  14.823  21.443  0.00  0.00    +0.000 N 
ENDROOT
BRANCH   1  14
ATOM     14  C   UNL     1       6.785  15.087  19.663  0.00  0.00    +0.000 A 
ATOM     15  C   UNL     1       6.489  14.988  18.285  0.00  0.00    +0.000 A 
ATOM     16  C   UNL     1       5.175  14.813  17.829  0.00  0.00    +0.000 A 
ATOM     17  C   UNL     1       4.131  14.724  18.743  0.00  0.00    +0.000 A 
ATOM     18 CL   UNL     1       2.512  14.567  18.182  0.00  0.00    +0.000 Cl
ATOM     19  C   UNL     1       4.392  14.776  20.105  0.00  0.00    +0.000 A 
ATOM     20  C   UNL     1       5.704  14.952  20.559  0.00  0.00    +0.000 A 
ENDBRANCH   1  14
BRANCH   2  21
ATOM     21  N   UNL     1      10.768  15.296  19.120  0.00  0.00    +0.000 NA
ATOM     22  C   UNL     1      11.090  16.439  18.257  0.00  0.00    +0.000 C 
ATOM     23  C   UNL     1      11.633  15.859  16.969  0.00  0.00    +0.000 C 
ATOM     24  C   UNL     1      12.333  14.589  17.410  0.00  0.00    +0.000 C 
ATOM     25  C   UNL     1      11.772  14.277  18.796  0.00  0.00    +0.000 C 
ENDBRANCH   2  21
BRANCH   1  26
ATOM     26  O   UNL     1       8.327  16.806  20.249  0.00  0.00    +0.000 OA
ATOM     27  H   UNL     1       7.425  17.159  20.299  0.00  0.00    +0.000 HD
ENDBRANCH   1  26
TORSDOF 3
ENDMDL
MODEL 9
REMARK VINA RESULT:      -7.0      8.750     10.497
REMARK  Name = 
REMARK  3 active torsions:
REMARK  status: ('A' for Active; 'I' for Inactive)
REMARK    1  A    between atoms: O_1  and  C_2
REMARK    2  A    between atoms: C_2  and  C_3
REMARK    3  A    between atoms: C_10  and  N_11
REMARK                            x       y       z     vdW  Elec       q    Type
REMARK                         _______ _______ _______ _____ _____    ______ ____
ROOT
ATOM      1  C   UNL     1       8.871  14.026  18.300  0.00  0.00    +0.000 C 
ATOM      2  C   UNL     1       8.958  12.942  19.505  0.00  0.00    +0.000 C 
ATOM      3  C   UNL     1       9.068  13.701  20.836  0.00  0.00    +0.000 A 
ATOM      4  C   UNL     1       8.441  13.245  22.001  0.00  0.00    +0.000 A 
ATOM      5  C   UNL     1       8.574  13.959  23.193  0.00  0.00    +0.000 A 
ATOM      6  C   UNL     1       9.355  15.119  23.243  0.00  0.00    +0.000 A 
ATOM      7  C   UNL     1       9.999  15.577  22.093  0.00  0.00    +0.000 A 
ATOM      8  C   UNL     1       9.840  14.881  20.897  0.00  0.00    +0.000 A 
ATOM      9  C   UNL     1      10.473  15.347  19.646  0.00  0.00    +0.000 C 
ATOM     10  N   UNL     1      11.491  16.171  19.602  0.00  0.00    +0.000 NA
ATOM     11  C   UNL     1      11.852  16.197  18.144  0.00  0.00    +0.000 C 
ATOM     12  C   UNL     1      10.661  15.608  17.372  0.00  0.00    +0.000 C 
ATOM     13  N   UNL     1      10.006  14.909  18.437  0.00  0.00    +0.000 N 
ENDROOT
BRANCH   1  14
ATOM     14  C   UNL     1       7.519  14.793  18.305  0.00  0.00    +0.000 A 
ATOM     15  C   UNL     1       7.429  16.091  18.858  0.00  0.00    +0.000 A 
ATOM     16  C   UNL     1       6.202  16.761  18.958  0.00  0.00    +0.000 A 
ATOM     17  C   UNL     1       5.041  16.151  18.498  0.00  0.00    +0.000 A 
ATOM     18 CL   UNL     1       3.526  16.949  18.673  0.00  0.00    +0.000 Cl
ATOM     19  C   UNL     1       5.099  14.894  17.912  0.00  0.00    +0.000 A 
ATOM     20  C   UNL     1       6.325  14.225  17.814  0.00  0.00    +0.000 A 
ENDBRANCH   1  14
BRANCH   2  21
ATOM     21  N   UNL     1       9.948  11.808  19.483  0.00  0.00    +0.000 NA
ATOM     22  C   UNL     1      11.156  11.946  20.304  0.00  0.00    +0.000 C 
ATOM     23  C   UNL     1      12.235  12.480  19.387  0.00  0.00    +0.000 C 
ATOM     24  C   UNL     1      11.891  11.883  18.037  0.00  0.00    +0.000 C 
ATOM     25  C   UNL     1      10.433  11.444  18.147  0.00  0.00    +0.000 C 
ENDBRANCH   2  21
BRANCH   1  26
ATOM     26  O   UNL     1       8.959  13.389  17.027  0.00  0.00    +0.000 OA
ATOM     27  H   UNL     1       8.514  13.959  16.381  0.00  0.00    +0.000 HD
ENDBRANCH   1  26
TORSDOF 3
ENDMDL
