MODEL 1
REMARK VINA RESULT:      -7.0      0.000      0.000
REMARK  Name = 
REMARK  10 active torsions:
REMARK  status: ('A' for Active; 'I' for Inactive)
REMARK    1  A    between atoms: C_1  and  C_2
REMARK    2  A    between atoms: C_2  and  C_3
REMARK    3  A    between atoms: C_2  and  C_12
REMARK    4  A    between atoms: C_3  and  C_4
REMARK    5  A    between atoms: C_4  and  C_5
REMARK    6  A    between atoms: C_5  and  C_7
REMARK    7  A    between atoms: C_17  and  O_18
REMARK    8  A    between atoms: C_22  and  O_23
REMARK    9  A    between atoms: C_26  and  C_27
REMARK   10  A    between atoms: C_31  and  C_32
REMARK                            x       y       z     vdW  Elec       q    Type
REMARK                         _______ _______ _______ _____ _____    ______ ____
ROOT
ATOM      1  C   UNL     1       2.006   9.370  19.097  0.00  0.00    +0.000 C 
ATOM      2  C   UNL     1       2.577  10.264  17.963  0.00  0.00    +0.000 C 
ATOM      3  C   UNL     1       1.962  11.649  18.137  0.00  0.00    +0.000 C 
ATOM      4  C   UNL     1       1.149  11.551  19.421  0.00  0.00    +0.000 C 
ATOM      5  C   UNL     1       0.009  12.551  19.629  0.00  0.00    +0.000 C 
ATOM      6  C   UNL     1       0.475  14.021  19.574  0.00  0.00    +0.000 C 
ATOM      7  C   UNL     1      -0.676  14.986  19.823  0.00  0.00    +0.000 C 
ATOM      8  C   UNL     1      -1.445  14.707  21.122  0.00  0.00    +0.000 C 
ATOM      9  C   UNL     1      -0.601  15.154  22.334  0.00  0.00    +0.000 C 
ATOM     10  C   UNL     1      -1.304  14.886  23.660  0.00  0.00    +0.000 C 
ATOM     11  C   UNL     1      -1.706  13.423  23.789  0.00  0.00    +0.000 C 
ATOM     12  C   UNL     1      -2.579  13.001  22.627  0.00  0.00    +0.000 C 
ATOM     13  C   UNL     1      -1.914  13.219  21.228  0.00  0.00    +0.000 C 
ATOM     14  C   UNL     1      -3.019  12.952  20.174  0.00  0.00    +0.000 C 
ATOM     15  C   UNL     1      -0.683  12.262  21.002  0.00  0.00    +0.000 C 
ATOM     16  C   UNL     1      -0.999  10.767  21.236  0.00  0.00    +0.000 C 
ATOM     17  C   UNL     1       0.150   9.817  20.875  0.00  0.00    +0.000 C 
ATOM     18  C   UNL     1       0.670  10.075  19.455  0.00  0.00    +0.000 C 
ATOM     19  C   UNL     1      -0.433   9.746  18.418  0.00  0.00    +0.000 C 
ENDROOT
BRANCH   1  21
ATOM     20  C   UNL     1       2.200   6.890  19.795  0.00  0.00    +0.000 C 
ATOM     21  C   UNL     1       1.979   7.894  18.659  0.00  0.00    +0.000 C 
BRANCH  21  22
ATOM     22  C   UNL     1       2.975   7.623  17.510  0.00  0.00    +0.000 C 
BRANCH  22  23
ATOM     23  C   UNL     1       4.224   6.815  17.895  0.00  0.00    +0.000 C 
BRANCH  23  24
ATOM     24  C   UNL     1       4.401   5.462  17.183  0.00  0.00    +0.000 C 
ATOM     25  O   UNL     1       3.402   4.723  17.172  0.00  0.00    +0.000 OA
BRANCH  24  26
ATOM     26  C   UNL     1       5.706   5.227  16.557  0.00  0.00    +0.000 A 
ATOM     27  N   UNL     1       6.707   4.497  17.102  0.00  0.00    +0.000 NA
ATOM     28  N   UNL     1       7.744   4.590  16.239  0.00  0.00    +0.000 NA
ATOM     29  N   UNL     1       7.384   5.335  15.191  0.00  0.00    +0.000 NA
ATOM     30  N   UNL     1       6.127   5.778  15.371  0.00  0.00    +0.000 NA
ENDBRANCH  24  26
ENDBRANCH  23  24
ENDBRANCH  22  23
ENDBRANCH  21  22
ENDBRANCH   1  21
BRANCH   6  31
ATOM     31  O   UNL     1       1.043  14.344  18.306  0.00  0.00    +0.000 OA
ATOM     32  H   UNL     1       0.988  15.306  18.187  0.00  0.00    +0.000 HD
ENDBRANCH   6  31
BRANCH  10  33
ATOM     33  O   UNL     1      -0.446  15.245  24.736  0.00  0.00    +0.000 OA
ATOM     34  H   UNL     1       0.138  14.491  24.925  0.00  0.00    +0.000 HD
ENDBRANCH  10  33
TORSDOF 7
ENDMDL
MODEL 2
REMARK VINA RESULT:      -7.0      2.663      4.111
REMARK  Name = 
REMARK  10 active torsions:
REMARK  status: ('A' for Active; 'I' for Inactive)
REMARK    1  A    between atoms: C_1  and  C_2
REMARK    2  A    between atoms: C_2  and  C_3
REMARK    3  A    between atoms: C_2  and  C_12
REMARK    4  A    between atoms: C_3  and  C_4
REMARK    5  A    between atoms: C_4  and  C_5
REMARK    6  A    between atoms: C_5  and  C_7
REMARK    7  A    between atoms: C_17  and  O_18
REMARK    8  A    between atoms: C_22  and  O_23
REMARK    9  A    between atoms: C_26  and  C_27
REMARK   10  A    between atoms: C_31  and  C_32
REMARK                            x       y       z     vdW  Elec       q    Type
REMARK                         _______ _______ _______ _____ _____    ______ ____
ROOT
ATOM      1  C   UNL     1      -0.414  10.660  19.559  0.00  0.00    +0.000 C 
ATOM      2  C   UNL     1       0.651  11.061  20.614  0.00  0.00    +0.000 C 
ATOM      3  C   UNL     1      -0.061  11.912  21.661  0.00  0.00    +0.000 C 
ATOM      4  C   UNL     1      -1.526  11.885  21.249  0.00  0.00    +0.000 C 
ATOM      5  C   UNL     1      -2.433  13.017  21.740  0.00  0.00    +0.000 C 
ATOM      6  C   UNL     1      -2.463  13.145  23.278  0.00  0.00    +0.000 C 
ATOM      7  C   UNL     1      -3.403  14.252  23.732  0.00  0.00    +0.000 C 
ATOM      8  C   UNL     1      -4.826  14.124  23.168  0.00  0.00    +0.000 C 
ATOM      9  C   UNL     1      -5.571  12.981  23.889  0.00  0.00    +0.000 C 
ATOM     10  C   UNL     1      -6.988  12.791  23.360  0.00  0.00    +0.000 C 
ATOM     11  C   UNL     1      -6.993  12.577  21.852  0.00  0.00    +0.000 C 
ATOM     12  C   UNL     1      -6.310  13.726  21.143  0.00  0.00    +0.000 C 
ATOM     13  C   UNL     1      -4.837  13.968  21.612  0.00  0.00    +0.000 C 
ATOM     14  C   UNL     1      -4.385  15.298  20.959  0.00  0.00    +0.000 C 
ATOM     15  C   UNL     1      -3.881  12.787  21.196  0.00  0.00    +0.000 C 
ATOM     16  C   UNL     1      -3.932  12.441  19.690  0.00  0.00    +0.000 C 
ATOM     17  C   UNL     1      -2.899  11.396  19.250  0.00  0.00    +0.000 C 
ATOM     18  C   UNL     1      -1.482  11.777  19.701  0.00  0.00    +0.000 C 
ATOM     19  C   UNL     1      -1.032  13.078  18.990  0.00  0.00    +0.000 C 
ENDROOT
BRANCH   1  21
ATOM     20  C   UNL     1      -0.527   9.480  17.263  0.00  0.00    +0.000 C 
ATOM     21  C   UNL     1       0.246  10.426  18.187  0.00  0.00    +0.000 C 
BRANCH  21  22
ATOM     22  C   UNL     1       1.707   9.949  18.334  0.00  0.00    +0.000 C 
BRANCH  22  23
ATOM     23  C   UNL     1       2.012   8.563  17.746  0.00  0.00    +0.000 C 
BRANCH  23  24
ATOM     24  C   UNL     1       2.481   7.491  18.746  0.00  0.00    +0.000 C 
ATOM     25  O   UNL     1       2.025   7.590  19.897  0.00  0.00    +0.000 OA
BRANCH  24  26
ATOM     26  C   UNL     1       3.367   6.451  18.210  0.00  0.00    +0.000 A 
ATOM     27  N   UNL     1       3.456   5.188  18.687  0.00  0.00    +0.000 NA
ATOM     28  N   UNL     1       4.426   4.588  17.962  0.00  0.00    +0.000 NA
ATOM     29  N   UNL     1       4.901   5.447  17.057  0.00  0.00    +0.000 NA
ATOM     30  N   UNL     1       4.285   6.633  17.206  0.00  0.00    +0.000 NA
ENDBRANCH  24  26
ENDBRANCH  23  24
ENDBRANCH  22  23
ENDBRANCH  21  22
ENDBRANCH   1  21
BRANCH   6  31
ATOM     31  O   UNL     1      -1.170  13.432  23.806  0.00  0.00    +0.000 OA
ATOM     32  H   UNL     1      -1.122  14.385  23.985  0.00  0.00    +0.000 HD
ENDBRANCH   6  31
BRANCH  10  33
ATOM     33  O   UNL     1      -7.593  11.676  24.006  0.00  0.00    +0.000 OA
ATOM     34  H   UNL     1      -7.220  10.864  23.623  0.00  0.00    +0.000 HD
ENDBRANCH  10  33
TORSDOF 7
ENDMDL
MODEL 3
REMARK VINA RESULT:      -6.8      2.616      4.544
REMARK  Name = 
REMARK  10 active torsions:
REMARK  status: ('A' for Active; 'I' for Inactive)
REMARK    1  A    between atoms: C_1  and  C_2
REMARK    2  A    between atoms: C_2  and  C_3
REMARK    3  A    between atoms: C_2  and  C_12
REMARK    4  A    between atoms: C_3  and  C_4
REMARK    5  A    between atoms: C_4  and  C_5
REMARK    6  A    between atoms: C_5  and  C_7
REMARK    7  A    between atoms: C_17  and  O_18
REMARK    8  A    between atoms: C_22  and  O_23
REMARK    9  A    between atoms: C_26  and  C_27
REMARK   10  A    between atoms: C_31  and  C_32
REMARK                            x       y       z     vdW  Elec       q    Type
REMARK                         _______ _______ _______ _____ _____    ______ ____
ROOT
ATOM      1  C   UNL     1       0.818  10.550  18.651  0.00  0.00    +0.000 C 
ATOM      2  C   UNL     1      -0.562  10.384  19.341  0.00  0.00    +0.000 C 
ATOM      3  C   UNL     1      -1.083  11.788  19.635  0.00  0.00    +0.000 C 
ATOM      4  C   UNL     1      -0.053  12.720  19.011  0.00  0.00    +0.000 C 
ATOM      5  C   UNL     1       0.035  14.153  19.541  0.00  0.00    +0.000 C 
ATOM      6  C   UNL     1      -1.300  14.920  19.435  0.00  0.00    +0.000 C 
ATOM      7  C   UNL     1      -1.167  16.353  19.933  0.00  0.00    +0.000 C 
ATOM      8  C   UNL     1      -0.032  17.138  19.260  0.00  0.00    +0.000 C 
ATOM      9  C   UNL     1      -0.440  17.511  17.819  0.00  0.00    +0.000 C 
ATOM     10  C   UNL     1       0.655  18.279  17.088  0.00  0.00    +0.000 C 
ATOM     11  C   UNL     1       1.971  17.513  17.098  0.00  0.00    +0.000 C 
ATOM     12  C   UNL     1       2.398  17.195  18.515  0.00  0.00    +0.000 C 
ATOM     13  C   UNL     1       1.335  16.381  19.324  0.00  0.00    +0.000 C 
ATOM     14  C   UNL     1       1.836  16.349  20.791  0.00  0.00    +0.000 C 
ATOM     15  C   UNL     1       1.154  14.921  18.763  0.00  0.00    +0.000 C 
ATOM     16  C   UNL     1       2.477  14.129  18.636  0.00  0.00    +0.000 C 
ATOM     17  C   UNL     1       2.295  12.661  18.233  0.00  0.00    +0.000 C 
ATOM     18  C   UNL     1       1.287  11.946  19.143  0.00  0.00    +0.000 C 
ATOM     19  C   UNL     1       1.836  11.876  20.590  0.00  0.00    +0.000 C 
ENDROOT
BRANCH   1  21
ATOM     20  C   UNL     1       2.236   8.628  17.664  0.00  0.00    +0.000 C 
ATOM     21  C   UNL     1       1.709   9.323  18.923  0.00  0.00    +0.000 C 
BRANCH  21  22
ATOM     22  C   UNL     1       1.003   8.300  19.839  0.00  0.00    +0.000 C 
BRANCH  22  23
ATOM     23  C   UNL     1       1.934   7.386  20.649  0.00  0.00    +0.000 C 
BRANCH  23  24
ATOM     24  C   UNL     1       1.955   5.903  20.236  0.00  0.00    +0.000 C 
ATOM     25  O   UNL     1       1.078   5.188  20.748  0.00  0.00    +0.000 OA
BRANCH  24  26
ATOM     26  C   UNL     1       2.970   5.521  19.249  0.00  0.00    +0.000 A 
ATOM     27  N   UNL     1       4.307   5.566  19.455  0.00  0.00    +0.000 NA
ATOM     28  N   UNL     1       4.874   5.200  18.283  0.00  0.00    +0.000 NA
ATOM     29  N   UNL     1       3.917   4.920  17.395  0.00  0.00    +0.000 NA
ATOM     30  N   UNL     1       2.714   5.142  17.954  0.00  0.00    +0.000 NA
ENDBRANCH  24  26
ENDBRANCH  23  24
ENDBRANCH  22  23
ENDBRANCH  21  22
ENDBRANCH   1  21
BRANCH   6  31
ATOM     31  O   UNL     1      -2.328  14.292  20.196  0.00  0.00    +0.000 OA
ATOM     32  H   UNL     1      -2.218  13.330  20.117  0.00  0.00    +0.000 HD
ENDBRANCH   6  31
BRANCH  10  33
ATOM     33  O   UNL     1       0.252  18.523  15.745  0.00  0.00    +0.000 OA
ATOM     34  H   UNL     1       0.732  17.907  15.166  0.00  0.00    +0.000 HD
ENDBRANCH  10  33
TORSDOF 7
ENDMDL
MODEL 4
REMARK VINA RESULT:      -6.8      2.586      3.785
REMARK  Name = 
REMARK  10 active torsions:
REMARK  status: ('A' for Active; 'I' for Inactive)
REMARK    1  A    between atoms: C_1  and  C_2
REMARK    2  A    between atoms: C_2  and  C_3
REMARK    3  A    between atoms: C_2  and  C_12
REMARK    4  A    between atoms: C_3  and  C_4
REMARK    5  A    between atoms: C_4  and  C_5
REMARK    6  A    between atoms: C_5  and  C_7
REMARK    7  A    between atoms: C_17  and  O_18
REMARK    8  A    between atoms: C_22  and  O_23
REMARK    9  A    between atoms: C_26  and  C_27
REMARK   10  A    between atoms: C_31  and  C_32
REMARK                            x       y       z     vdW  Elec       q    Type
REMARK                         _______ _______ _______ _____ _____    ______ ____
ROOT
ATOM      1  C   UNL     1       0.065  11.435  18.695  0.00  0.00    +0.000 C 
ATOM      2  C   UNL     1      -1.057  10.733  17.884  0.00  0.00    +0.000 C 
ATOM      3  C   UNL     1      -2.382  11.122  18.531  0.00  0.00    +0.000 C 
ATOM      4  C   UNL     1      -2.003  12.119  19.617  0.00  0.00    +0.000 C 
ATOM      5  C   UNL     1      -2.977  12.320  20.781  0.00  0.00    +0.000 C 
ATOM      6  C   UNL     1      -4.385  12.758  20.324  0.00  0.00    +0.000 C 
ATOM      7  C   UNL     1      -5.315  12.987  21.507  0.00  0.00    +0.000 C 
ATOM      8  C   UNL     1      -4.754  13.960  22.554  0.00  0.00    +0.000 C 
ATOM      9  C   UNL     1      -4.829  15.405  22.015  0.00  0.00    +0.000 C 
ATOM     10  C   UNL     1      -4.269  16.421  23.005  0.00  0.00    +0.000 C 
ATOM     11  C   UNL     1      -2.846  16.068  23.416  0.00  0.00    +0.000 C 
ATOM     12  C   UNL     1      -2.784  14.670  23.995  0.00  0.00    +0.000 C 
ATOM     13  C   UNL     1      -3.317  13.564  23.026  0.00  0.00    +0.000 C 
ATOM     14  C   UNL     1      -3.390  12.257  23.856  0.00  0.00    +0.000 C 
ATOM     15  C   UNL     1      -2.385  13.378  21.770  0.00  0.00    +0.000 C 
ATOM     16  C   UNL     1      -0.898  13.134  22.122  0.00  0.00    +0.000 C 
ATOM     17  C   UNL     1      -0.012  12.804  20.915  0.00  0.00    +0.000 C 
ATOM     18  C   UNL     1      -0.596  11.656  20.082  0.00  0.00    +0.000 C 
ATOM     19  C   UNL     1      -0.605  10.349  20.914  0.00  0.00    +0.000 C 
ENDROOT
BRANCH   1  21
ATOM     20  C   UNL     1       2.536  11.375  17.941  0.00  0.00    +0.000 C 
ATOM     21  C   UNL     1       1.376  10.632  18.611  0.00  0.00    +0.000 C 
BRANCH  21  22
ATOM     22  C   UNL     1       1.161   9.261  17.932  0.00  0.00    +0.000 C 
BRANCH  22  23
ATOM     23  C   UNL     1       2.399   8.355  17.867  0.00  0.00    +0.000 C 
BRANCH  23  24
ATOM     24  C   UNL     1       2.498   7.264  18.949  0.00  0.00    +0.000 C 
ATOM     25  O   UNL     1       2.123   7.596  20.085  0.00  0.00    +0.000 OA
BRANCH  24  26
ATOM     26  C   UNL     1       2.972   5.950  18.500  0.00  0.00    +0.000 A 
ATOM     27  N   UNL     1       2.223   5.045  17.828  0.00  0.00    +0.000 NA
ATOM     28  N   UNL     1       3.012   3.959  17.670  0.00  0.00    +0.000 NA
ATOM     29  N   UNL     1       4.211   4.197  18.207  0.00  0.00    +0.000 NA
ATOM     30  N   UNL     1       4.211   5.421  18.765  0.00  0.00    +0.000 NA
ENDBRANCH  24  26
ENDBRANCH  23  24
ENDBRANCH  22  23
ENDBRANCH  21  22
ENDBRANCH   1  21
BRANCH   6  31
ATOM     31  O   UNL     1      -4.990  11.781  19.481  0.00  0.00    +0.000 OA
ATOM     32  H   UNL     1      -4.304  11.422  18.894  0.00  0.00    +0.000 HD
ENDBRANCH   6  31
BRANCH  10  33
ATOM     33  O   UNL     1      -4.292  17.718  22.420  0.00  0.00    +0.000 OA
ATOM     34  H   UNL     1      -4.769  18.315  23.021  0.00  0.00    +0.000 HD
ENDBRANCH  10  33
TORSDOF 7
ENDMDL
MODEL 5
REMARK VINA RESULT:      -6.8      5.514     10.190
REMARK  Name = 
REMARK  10 active torsions:
REMARK  status: ('A' for Active; 'I' for Inactive)
REMARK    1  A    between atoms: C_1  and  C_2
REMARK    2  A    between atoms: C_2  and  C_3
REMARK    3  A    between atoms: C_2  and  C_12
REMARK    4  A    between atoms: C_3  and  C_4
REMARK    5  A    between atoms: C_4  and  C_5
REMARK    6  A    between atoms: C_5  and  C_7
REMARK    7  A    between atoms: C_17  and  O_18
REMARK    8  A    between atoms: C_22  and  O_23
REMARK    9  A    between atoms: C_26  and  C_27
REMARK   10  A    between atoms: C_31  and  C_32
REMARK                            x       y       z     vdW  Elec       q    Type
REMARK                         _______ _______ _______ _____ _____    ______ ____
ROOT
ATOM      1  C   UNL     1       1.336   9.748  19.664  0.00  0.00    +0.000 C 
ATOM      2  C   UNL     1       0.647   9.043  20.863  0.00  0.00    +0.000 C 
ATOM      3  C   UNL     1       1.195   7.621  20.916  0.00  0.00    +0.000 C 
ATOM      4  C   UNL     1       2.259   7.577  19.827  0.00  0.00    +0.000 C 
ATOM      5  C   UNL     1       2.643   6.211  19.251  0.00  0.00    +0.000 C 
ATOM      6  C   UNL     1       3.141   5.220  20.324  0.00  0.00    +0.000 C 
ATOM      7  C   UNL     1       3.550   3.888  19.711  0.00  0.00    +0.000 C 
ATOM      8  C   UNL     1       4.574   4.020  18.574  0.00  0.00    +0.000 C 
ATOM      9  C   UNL     1       5.962   4.356  19.158  0.00  0.00    +0.000 C 
ATOM     10  C   UNL     1       7.022   4.519  18.074  0.00  0.00    +0.000 C 
ATOM     11  C   UNL     1       6.602   5.554  17.039  0.00  0.00    +0.000 C 
ATOM     12  C   UNL     1       5.266   5.193  16.428  0.00  0.00    +0.000 C 
ATOM     13  C   UNL     1       4.116   5.036  17.477  0.00  0.00    +0.000 C 
ATOM     14  C   UNL     1       2.903   4.452  16.709  0.00  0.00    +0.000 C 
ATOM     15  C   UNL     1       3.741   6.407  18.155  0.00  0.00    +0.000 C 
ATOM     16  C   UNL     1       3.420   7.537  17.149  0.00  0.00    +0.000 C 
ATOM     17  C   UNL     1       2.911   8.831  17.797  0.00  0.00    +0.000 C 
ATOM     18  C   UNL     1       1.736   8.561  18.747  0.00  0.00    +0.000 C 
ATOM     19  C   UNL     1       0.519   8.033  17.948  0.00  0.00    +0.000 C 
ENDROOT
BRANCH   1  21
ATOM     20  C   UNL     1       1.065  12.253  19.087  0.00  0.00    +0.000 C 
ATOM     21  C   UNL     1       0.430  10.858  19.097  0.00  0.00    +0.000 C 
BRANCH  21  22
ATOM     22  C   UNL     1      -0.935  10.901  19.818  0.00  0.00    +0.000 C 
BRANCH  22  23
ATOM     23  C   UNL     1      -1.260  12.219  20.538  0.00  0.00    +0.000 C 
BRANCH  23  24
ATOM     24  C   UNL     1      -1.465  12.126  22.061  0.00  0.00    +0.000 C 
ATOM     25  O   UNL     1      -0.431  12.014  22.739  0.00  0.00    +0.000 OA
BRANCH  24  26
ATOM     26  C   UNL     1      -2.849  12.236  22.534  0.00  0.00    +0.000 A 
ATOM     27  N   UNL     1      -3.884  12.709  21.801  0.00  0.00    +0.000 NA
ATOM     28  N   UNL     1      -4.955  12.702  22.626  0.00  0.00    +0.000 NA
ATOM     29  N   UNL     1      -4.594  12.221  23.818  0.00  0.00    +0.000 NA
ATOM     30  N   UNL     1      -3.277  11.949  23.807  0.00  0.00    +0.000 NA
ENDBRANCH  24  26
ENDBRANCH  23  24
ENDBRANCH  22  23
ENDBRANCH  21  22
ENDBRANCH   1  21
BRANCH   6  31
ATOM     31  O   UNL     1       2.137   4.956  21.301  0.00  0.00    +0.000 OA
ATOM     32  H   UNL     1       2.579   4.750  22.140  0.00  0.00    +0.000 HD
ENDBRANCH   6  31
BRANCH  10  33
ATOM     33  O   UNL     1       8.256   4.906  18.668  0.00  0.00    +0.000 OA
ATOM     34  H   UNL     1       8.111   5.731  19.161  0.00  0.00    +0.000 HD
ENDBRANCH  10  33
TORSDOF 7
ENDMDL
MODEL 6
REMARK VINA RESULT:      -6.7      2.580      4.157
REMARK  Name = 
REMARK  10 active torsions:
REMARK  status: ('A' for Active; 'I' for Inactive)
REMARK    1  A    between atoms: C_1  and  C_2
REMARK    2  A    between atoms: C_2  and  C_3
REMARK    3  A    between atoms: C_2  and  C_12
REMARK    4  A    between atoms: C_3  and  C_4
REMARK    5  A    between atoms: C_4  and  C_5
REMARK    6  A    between atoms: C_5  and  C_7
REMARK    7  A    between atoms: C_17  and  O_18
REMARK    8  A    between atoms: C_22  and  O_23
REMARK    9  A    between atoms: C_26  and  C_27
REMARK   10  A    between atoms: C_31  and  C_32
REMARK                            x       y       z     vdW  Elec       q    Type
REMARK                         _______ _______ _______ _____ _____    ______ ____
ROOT
ATOM      1  C   UNL     1       2.248   5.944  18.714  0.00  0.00    +0.000 C 
ATOM      2  C   UNL     1       2.576   5.712  20.213  0.00  0.00    +0.000 C 
ATOM      3  C   UNL     1       2.093   6.946  20.969  0.00  0.00    +0.000 C 
ATOM      4  C   UNL     1       1.404   7.800  19.913  0.00  0.00    +0.000 C 
ATOM      5  C   UNL     1       1.262   9.300  20.181  0.00  0.00    +0.000 C 
ATOM      6  C   UNL     1       0.506   9.613  21.490  0.00  0.00    +0.000 C 
ATOM      7  C   UNL     1       0.350  11.112  21.705  0.00  0.00    +0.000 C 
ATOM      8  C   UNL     1      -0.293  11.842  20.516  0.00  0.00    +0.000 C 
ATOM      9  C   UNL     1      -1.804  11.532  20.470  0.00  0.00    +0.000 C 
ATOM     10  C   UNL     1      -2.499  12.216  19.298  0.00  0.00    +0.000 C 
ATOM     11  C   UNL     1      -1.831  11.863  17.975  0.00  0.00    +0.000 C 
ATOM     12  C   UNL     1      -0.360  12.218  18.003  0.00  0.00    +0.000 C 
ATOM     13  C   UNL     1       0.430  11.531  19.165  0.00  0.00    +0.000 C 
ATOM     14  C   UNL     1       1.839  12.178  19.175  0.00  0.00    +0.000 C 
ATOM     15  C   UNL     1       0.533   9.971  18.971  0.00  0.00    +0.000 C 
ATOM     16  C   UNL     1       1.094   9.546  17.594  0.00  0.00    +0.000 C 
ATOM     17  C   UNL     1       1.337   8.038  17.452  0.00  0.00    +0.000 C 
ATOM     18  C   UNL     1       2.185   7.491  18.608  0.00  0.00    +0.000 C 
ATOM     19  C   UNL     1       3.605   8.110  18.561  0.00  0.00    +0.000 C 
ENDROOT
BRANCH   1  21
ATOM     20  C   UNL     1       2.640   3.949  17.118  0.00  0.00    +0.000 C 
ATOM     21  C   UNL     1       3.237   5.173  17.819  0.00  0.00    +0.000 C 
BRANCH  21  22
ATOM     22  C   UNL     1       4.511   4.772  18.594  0.00  0.00    +0.000 C 
BRANCH  22  23
ATOM     23  C   UNL     1       5.766   5.598  18.274  0.00  0.00    +0.000 C 
BRANCH  23  24
ATOM     24  C   UNL     1       6.912   4.846  17.572  0.00  0.00    +0.000 C 
ATOM     25  O   UNL     1       7.783   4.372  18.320  0.00  0.00    +0.000 OA
BRANCH  24  26
ATOM     26  C   UNL     1       6.811   4.732  16.113  0.00  0.00    +0.000 A 
ATOM     27  N   UNL     1       6.105   3.782  15.457  0.00  0.00    +0.000 NA
ATOM     28  N   UNL     1       6.332   3.996  14.142  0.00  0.00    +0.000 NA
ATOM     29  N   UNL     1       7.133   5.054  13.995  0.00  0.00    +0.000 NA
ATOM     30  N   UNL     1       7.479   5.520  15.209  0.00  0.00    +0.000 NA
ENDBRANCH  24  26
ENDBRANCH  23  24
ENDBRANCH  22  23
ENDBRANCH  21  22
ENDBRANCH   1  21
BRANCH   6  31
ATOM     31  O   UNL     1       1.184   9.082  22.626  0.00  0.00    +0.000 OA
ATOM     32  H   UNL     1       0.523   8.903  23.315  0.00  0.00    +0.000 HD
ENDBRANCH   6  31
BRANCH  10  33
ATOM     33  O   UNL     1      -3.868  11.828  19.263  0.00  0.00    +0.000 OA
ATOM     34  H   UNL     1      -3.941  11.013  18.739  0.00  0.00    +0.000 HD
ENDBRANCH  10  33
TORSDOF 7
ENDMDL
MODEL 7
REMARK VINA RESULT:      -6.7      1.135      1.188
REMARK  Name = 
REMARK  10 active torsions:
REMARK  status: ('A' for Active; 'I' for Inactive)
REMARK    1  A    between atoms: C_1  and  C_2
REMARK    2  A    between atoms: C_2  and  C_3
REMARK    3  A    between atoms: C_2  and  C_12
REMARK    4  A    between atoms: C_3  and  C_4
REMARK    5  A    between atoms: C_4  and  C_5
REMARK    6  A    between atoms: C_5  and  C_7
REMARK    7  A    between atoms: C_17  and  O_18
REMARK    8  A    between atoms: C_22  and  O_23
REMARK    9  A    between atoms: C_26  and  C_27
REMARK   10  A    between atoms: C_31  and  C_32
REMARK                            x       y       z     vdW  Elec       q    Type
REMARK                         _______ _______ _______ _____ _____    ______ ____
ROOT
ATOM      1  C   UNL     1       2.188   8.573  19.040  0.00  0.00    +0.000 C 
ATOM      2  C   UNL     1       2.802   9.319  17.826  0.00  0.00    +0.000 C 
ATOM      3  C   UNL     1       2.226  10.731  17.835  0.00  0.00    +0.000 C 
ATOM      4  C   UNL     1       1.391  10.799  19.106  0.00  0.00    +0.000 C 
ATOM      5  C   UNL     1       0.277  11.846  19.181  0.00  0.00    +0.000 C 
ATOM      6  C   UNL     1       0.787  13.288  18.972  0.00  0.00    +0.000 C 
ATOM      7  C   UNL     1      -0.339  14.306  19.091  0.00  0.00    +0.000 C 
ATOM      8  C   UNL     1      -1.136  14.193  20.399  0.00  0.00    +0.000 C 
ATOM      9  C   UNL     1      -0.298  14.750  21.570  0.00  0.00    +0.000 C 
ATOM     10  C   UNL     1      -1.030  14.650  22.904  0.00  0.00    +0.000 C 
ATOM     11  C   UNL     1      -1.476  13.221  23.186  0.00  0.00    +0.000 C 
ATOM     12  C   UNL     1      -2.343  12.696  22.061  0.00  0.00    +0.000 C 
ATOM     13  C   UNL     1      -1.650  12.740  20.660  0.00  0.00    +0.000 C 
ATOM     14  C   UNL     1      -2.746  12.388  19.621  0.00  0.00    +0.000 C 
ATOM     15  C   UNL     1      -0.444  11.731  20.564  0.00  0.00    +0.000 C 
ATOM     16  C   UNL     1      -0.808  10.280  20.956  0.00  0.00    +0.000 C 
ATOM     17  C   UNL     1       0.318   9.265  20.723  0.00  0.00    +0.000 C 
ATOM     18  C   UNL     1       0.868   9.349  19.293  0.00  0.00    +0.000 C 
ATOM     19  C   UNL     1      -0.228   8.938  18.279  0.00  0.00    +0.000 C 
ENDROOT
BRANCH   1  21
ATOM     20  C   UNL     1       2.071   6.187  20.028  0.00  0.00    +0.000 C 
ATOM     21  C   UNL     1       2.125   7.058  18.769  0.00  0.00    +0.000 C 
BRANCH  21  22
ATOM     22  C   UNL     1       3.280   6.596  17.852  0.00  0.00    +0.000 C 
BRANCH  22  23
ATOM     23  C   UNL     1       3.693   5.124  18.002  0.00  0.00    +0.000 C 
BRANCH  23  24
ATOM     24  C   UNL     1       5.171   4.867  18.345  0.00  0.00    +0.000 C 
ATOM     25  O   UNL     1       5.377   4.135  19.326  0.00  0.00    +0.000 OA
BRANCH  24  26
ATOM     26  C   UNL     1       6.158   5.470  17.442  0.00  0.00    +0.000 A 
ATOM     27  N   UNL     1       6.872   6.587  17.710  0.00  0.00    +0.000 NA
ATOM     28  N   UNL     1       7.605   6.832  16.601  0.00  0.00    +0.000 NA
ATOM     29  N   UNL     1       7.365   5.885  15.691  0.00  0.00    +0.000 NA
ATOM     30  N   UNL     1       6.440   5.034  16.170  0.00  0.00    +0.000 NA
ENDBRANCH  24  26
ENDBRANCH  23  24
ENDBRANCH  22  23
ENDBRANCH  21  22
ENDBRANCH   1  21
BRANCH   6  31
ATOM     31  O   UNL     1       1.384  13.452  17.688  0.00  0.00    +0.000 OA
ATOM     32  H   UNL     1       1.599  12.572  17.340  0.00  0.00    +0.000 HD
ENDBRANCH   6  31
BRANCH  10  33
ATOM     33  O   UNL     1      -0.178  15.102  23.950  0.00  0.00    +0.000 OA
ATOM     34  H   UNL     1      -0.717  15.597  24.590  0.00  0.00    +0.000 HD
ENDBRANCH  10  33
TORSDOF 7
ENDMDL
MODEL 8
REMARK VINA RESULT:      -6.7      1.777      2.162
REMARK  Name = 
REMARK  10 active torsions:
REMARK  status: ('A' for Active; 'I' for Inactive)
REMARK    1  A    between atoms: C_1  and  C_2
REMARK    2  A    between atoms: C_2  and  C_3
REMARK    3  A    between atoms: C_2  and  C_12
REMARK    4  A    between atoms: C_3  and  C_4
REMARK    5  A    between atoms: C_4  and  C_5
REMARK    6  A    between atoms: C_5  and  C_7
REMARK    7  A    between atoms: C_17  and  O_18
REMARK    8  A    between atoms: C_22  and  O_23
REMARK    9  A    between atoms: C_26  and  C_27
REMARK   10  A    between atoms: C_31  and  C_32
REMARK                            x       y       z     vdW  Elec       q    Type
REMARK                         _______ _______ _______ _____ _____    ______ ____
ROOT
ATOM      1  C   UNL     1       2.169   9.043  18.900  0.00  0.00    +0.000 C 
ATOM      2  C   UNL     1       2.795   9.966  17.821  0.00  0.00    +0.000 C 
ATOM      3  C   UNL     1       2.149  11.339  17.982  0.00  0.00    +0.000 C 
ATOM      4  C   UNL     1       1.260  11.204  19.211  0.00  0.00    +0.000 C 
ATOM      5  C   UNL     1       0.093  12.183  19.365  0.00  0.00    +0.000 C 
ATOM      6  C   UNL     1       0.538  13.660  19.367  0.00  0.00    +0.000 C 
ATOM      7  C   UNL     1      -0.641  14.603  19.561  0.00  0.00    +0.000 C 
ATOM      8  C   UNL     1      -1.485  14.287  20.804  0.00  0.00    +0.000 C 
ATOM      9  C   UNL     1      -0.725  14.723  22.075  0.00  0.00    +0.000 C 
ATOM     10  C   UNL     1      -1.506  14.419  23.349  0.00  0.00    +0.000 C 
ATOM     11  C   UNL     1      -1.892  12.948  23.425  0.00  0.00    +0.000 C 
ATOM     12  C   UNL     1      -2.684  12.535  22.203  0.00  0.00    +0.000 C 
ATOM     13  C   UNL     1      -1.936  12.791  20.853  0.00  0.00    +0.000 C 
ATOM     14  C   UNL     1      -2.969  12.529  19.727  0.00  0.00    +0.000 C 
ATOM     15  C   UNL     1      -0.679  11.857  20.686  0.00  0.00    +0.000 C 
ATOM     16  C   UNL     1      -0.985  10.353  20.872  0.00  0.00    +0.000 C 
ATOM     17  C   UNL     1       0.199   9.427  20.566  0.00  0.00    +0.000 C 
ATOM     18  C   UNL     1       0.803   9.721  19.186  0.00  0.00    +0.000 C 
ATOM     19  C   UNL     1      -0.229   9.396  18.077  0.00  0.00    +0.000 C 
ENDROOT
BRANCH   1  21
ATOM     20  C   UNL     1       2.195   6.547  19.570  0.00  0.00    +0.000 C 
ATOM     21  C   UNL     1       2.193   7.575  18.434  0.00  0.00    +0.000 C 
BRANCH  21  22
ATOM     22  C   UNL     1       3.369   7.303  17.470  0.00  0.00    +0.000 C 
BRANCH  22  23
ATOM     23  C   UNL     1       4.316   6.168  17.888  0.00  0.00    +0.000 C 
BRANCH  23  24
ATOM     24  C   UNL     1       4.285   4.903  17.011  0.00  0.00    +0.000 C 
ATOM     25  O   UNL     1       4.996   4.934  15.993  0.00  0.00    +0.000 OA
BRANCH  24  26
ATOM     26  C   UNL     1       3.463   3.793  17.507  0.00  0.00    +0.000 A 
ATOM     27  N   UNL     1       2.177   3.563  17.156  0.00  0.00    +0.000 NA
ATOM     28  N   UNL     1       1.781   2.495  17.884  0.00  0.00    +0.000 NA
ATOM     29  N   UNL     1       2.796   2.071  18.640  0.00  0.00    +0.000 NA
ATOM     30  N   UNL     1       3.855   2.880  18.455  0.00  0.00    +0.000 NA
ENDBRANCH  24  26
ENDBRANCH  23  24
ENDBRANCH  22  23
ENDBRANCH  21  22
ENDBRANCH   1  21
BRANCH   6  31
ATOM     31  O   UNL     1       1.179  14.016  18.144  0.00  0.00    +0.000 OA
ATOM     32  H   UNL     1       0.951  14.938  17.941  0.00  0.00    +0.000 HD
ENDBRANCH   6  31
BRANCH  10  33
ATOM     33  O   UNL     1      -0.722  14.769  24.484  0.00  0.00    +0.000 OA
ATOM     34  H   UNL     1      -1.319  15.096  25.178  0.00  0.00    +0.000 HD
ENDBRANCH  10  33
TORSDOF 7
ENDMDL
MODEL 9
REMARK VINA RESULT:      -6.7      1.096      1.392
REMARK  Name = 
REMARK  10 active torsions:
REMARK  status: ('A' for Active; 'I' for Inactive)
REMARK    1  A    between atoms: C_1  and  C_2
REMARK    2  A    between atoms: C_2  and  C_3
REMARK    3  A    between atoms: C_2  and  C_12
REMARK    4  A    between atoms: C_3  and  C_4
REMARK    5  A    between atoms: C_4  and  C_5
REMARK    6  A    between atoms: C_5  and  C_7
REMARK    7  A    between atoms: C_17  and  O_18
REMARK    8  A    between atoms: C_22  and  O_23
REMARK    9  A    between atoms: C_26  and  C_27
REMARK   10  A    between atoms: C_31  and  C_32
REMARK                            x       y       z     vdW  Elec       q    Type
REMARK                         _______ _______ _______ _____ _____    ______ ____
ROOT
ATOM      1  C   UNL     1       2.197   8.585  19.133  0.00  0.00    +0.000 C 
ATOM      2  C   UNL     1       2.790   9.283  17.880  0.00  0.00    +0.000 C 
ATOM      3  C   UNL     1       2.225  10.699  17.851  0.00  0.00    +0.000 C 
ATOM      4  C   UNL     1       1.417  10.818  19.136  0.00  0.00    +0.000 C 
ATOM      5  C   UNL     1       0.313  11.877  19.197  0.00  0.00    +0.000 C 
ATOM      6  C   UNL     1       0.829  13.306  18.926  0.00  0.00    +0.000 C 
ATOM      7  C   UNL     1      -0.287  14.336  19.033  0.00  0.00    +0.000 C 
ATOM      8  C   UNL     1      -1.056  14.277  20.361  0.00  0.00    +0.000 C 
ATOM      9  C   UNL     1      -0.189  14.867  21.493  0.00  0.00    +0.000 C 
ATOM     10  C   UNL     1      -0.893  14.820  22.845  0.00  0.00    +0.000 C 
ATOM     11  C   UNL     1      -1.344  13.406  23.187  0.00  0.00    +0.000 C 
ATOM     12  C   UNL     1      -2.238  12.849  22.101  0.00  0.00    +0.000 C 
ATOM     13  C   UNL     1      -1.576  12.837  20.684  0.00  0.00    +0.000 C 
ATOM     14  C   UNL     1      -2.696  12.458  19.682  0.00  0.00    +0.000 C 
ATOM     15  C   UNL     1      -0.379  11.816  20.598  0.00  0.00    +0.000 C 
ATOM     16  C   UNL     1      -0.745  10.383  21.049  0.00  0.00    +0.000 C 
ATOM     17  C   UNL     1       0.369   9.351  20.829  0.00  0.00    +0.000 C 
ATOM     18  C   UNL     1       0.888   9.380  19.386  0.00  0.00    +0.000 C 
ATOM     19  C   UNL     1      -0.233   8.942  18.410  0.00  0.00    +0.000 C 
ENDROOT
BRANCH   1  21
ATOM     20  C   UNL     1       1.921   6.247  20.198  0.00  0.00    +0.000 C 
ATOM     21  C   UNL     1       2.117   7.062  18.916  0.00  0.00    +0.000 C 
BRANCH  21  22
ATOM     22  C   UNL     1       3.339   6.535  18.133  0.00  0.00    +0.000 C 
BRANCH  22  23
ATOM     23  C   UNL     1       3.209   5.101  17.595  0.00  0.00    +0.000 C 
BRANCH  23  24
ATOM     24  C   UNL     1       4.194   4.069  18.173  0.00  0.00    +0.000 C 
ATOM     25  O   UNL     1       3.683   3.037  18.637  0.00  0.00    +0.000 OA
BRANCH  24  26
ATOM     26  C   UNL     1       5.618   4.401  18.059  0.00  0.00    +0.000 A 
ATOM     27  N   UNL     1       6.336   4.355  16.913  0.00  0.00    +0.000 NA
ATOM     28  N   UNL     1       7.605   4.667  17.259  0.00  0.00    +0.000 NA
ATOM     29  N   UNL     1       7.660   4.916  18.569  0.00  0.00    +0.000 NA
ATOM     30  N   UNL     1       6.443   4.727  19.109  0.00  0.00    +0.000 NA
ENDBRANCH  24  26
ENDBRANCH  23  24
ENDBRANCH  22  23
ENDBRANCH  21  22
ENDBRANCH   1  21
BRANCH   6  31
ATOM     31  O   UNL     1       1.399  13.420  17.625  0.00  0.00    +0.000 OA
ATOM     32  H   UNL     1       2.312  13.090  17.665  0.00  0.00    +0.000 HD
ENDBRANCH   6  31
BRANCH  10  33
ATOM     33  O   UNL     1      -0.016  15.303  23.856  0.00  0.00    +0.000 OA
ATOM     34  H   UNL     1      -0.450  16.047  24.307  0.00  0.00    +0.000 HD
ENDBRANCH  10  33
TORSDOF 7
ENDMDL
