MODEL 1
REMARK VINA RESULT:      -6.4      0.000      0.000
REMARK  Name = 
REMARK  4 active torsions:
REMARK  status: ('A' for Active; 'I' for Inactive)
REMARK    1  A    between atoms: C_6  and  C_7
REMARK    2  A    between atoms: C_7  and  O_8
REMARK    3  A    between atoms: C_7  and  C_9
REMARK    4  A    between atoms: C_7  and  C_13
REMARK                            x       y       z     vdW  Elec       q    Type
REMARK                         _______ _______ _______ _____ _____    ______ ____
ROOT
ATOM      1  C   UNL     1       2.626   3.673  19.834  0.00  0.00    +0.000 C 
ENDROOT
BRANCH   1   7
ATOM      2  O   UNL     1       5.710   3.902  19.675  0.00  0.00    +0.000 OA
ATOM      3  C   UNL     1       4.919   3.744  18.746  0.00  0.00    +0.000 C 
ATOM      4  C   UNL     1       5.200   4.221  17.342  0.00  0.00    +0.000 C 
ATOM      5  C   UNL     1       3.875   3.972  16.644  0.00  0.00    +0.000 C 
ATOM      6  C   UNL     1       3.217   2.827  17.401  0.00  0.00    +0.000 C 
ATOM      7  C   UNL     1       3.632   2.980  18.872  0.00  0.00    +0.000 C 
ENDBRANCH   1   7
BRANCH   1   8
ATOM      8  C   UNL     1       1.233   3.686  19.191  0.00  0.00    +0.000 C 
ATOM      9  F   UNL     1       1.136   4.560  18.165  0.00  0.00    +0.000 F 
ATOM     10  F   UNL     1       0.751   2.506  18.771  0.00  0.00    +0.000 F 
ATOM     11  F   UNL     1       0.347   4.122  20.140  0.00  0.00    +0.000 F 
ENDBRANCH   1   8
BRANCH   1  12
ATOM     12  C   UNL     1       2.556   2.910  21.172  0.00  0.00    +0.000 C 
ATOM     13  F   UNL     1       1.537   2.023  21.198  0.00  0.00    +0.000 F 
ATOM     14  F   UNL     1       3.703   2.225  21.403  0.00  0.00    +0.000 F 
ATOM     15  F   UNL     1       2.394   3.708  22.248  0.00  0.00    +0.000 F 
ENDBRANCH   1  12
BRANCH   1  16
ATOM     16  O   UNL     1       3.103   5.048  20.022  0.00  0.00    +0.000 OA
ATOM     17  H   UNL     1       4.081   5.043  19.966  0.00  0.00    +0.000 HD
ENDBRANCH   1  16
TORSDOF 4
ENDMDL
MODEL 2
REMARK VINA RESULT:      -6.4      1.504      1.962
REMARK  Name = 
REMARK  4 active torsions:
REMARK  status: ('A' for Active; 'I' for Inactive)
REMARK    1  A    between atoms: C_6  and  C_7
REMARK    2  A    between atoms: C_7  and  O_8
REMARK    3  A    between atoms: C_7  and  C_9
REMARK    4  A    between atoms: C_7  and  C_13
REMARK                            x       y       z     vdW  Elec       q    Type
REMARK                         _______ _______ _______ _____ _____    ______ ____
ROOT
ATOM      1  C   UNL     1       3.483   4.393  19.144  0.00  0.00    +0.000 C 
ENDROOT
BRANCH   1   7
ATOM      2  O   UNL     1       6.448   5.056  19.735  0.00  0.00    +0.000 OA
ATOM      3  C   UNL     1       5.834   5.232  18.684  0.00  0.00    +0.000 C 
ATOM      4  C   UNL     1       6.192   6.318  17.699  0.00  0.00    +0.000 C 
ATOM      5  C   UNL     1       5.047   6.244  16.704  0.00  0.00    +0.000 C 
ATOM      6  C   UNL     1       4.544   4.808  16.760  0.00  0.00    +0.000 C 
ATOM      7  C   UNL     1       4.725   4.337  18.211  0.00  0.00    +0.000 C 
ENDBRANCH   1   7
BRANCH   1   8
ATOM      8  C   UNL     1       2.211   4.517  18.293  0.00  0.00    +0.000 C 
ATOM      9  F   UNL     1       2.002   5.773  17.841  0.00  0.00    +0.000 F 
ATOM     10  F   UNL     1       2.100   3.681  17.249  0.00  0.00    +0.000 F 
ATOM     11  F   UNL     1       1.146   4.228  19.104  0.00  0.00    +0.000 F 
ENDBRANCH   1   8
BRANCH   1  12
ATOM     12  C   UNL     1       3.396   3.110  19.994  0.00  0.00    +0.000 C 
ATOM     13  F   UNL     1       2.786   3.326  21.179  0.00  0.00    +0.000 F 
ATOM     14  F   UNL     1       2.703   2.142  19.346  0.00  0.00    +0.000 F 
ATOM     15  F   UNL     1       4.596   2.561  20.278  0.00  0.00    +0.000 F 
ENDBRANCH   1  12
BRANCH   1  16
ATOM     16  O   UNL     1       3.641   5.586  19.983  0.00  0.00    +0.000 OA
ATOM     17  H   UNL     1       2.828   5.694  20.519  0.00  0.00    +0.000 HD
ENDBRANCH   1  16
TORSDOF 4
ENDMDL
MODEL 3
REMARK VINA RESULT:      -6.3      1.951      2.657
REMARK  Name = 
REMARK  4 active torsions:
REMARK  status: ('A' for Active; 'I' for Inactive)
REMARK    1  A    between atoms: C_6  and  C_7
REMARK    2  A    between atoms: C_7  and  O_8
REMARK    3  A    between atoms: C_7  and  C_9
REMARK    4  A    between atoms: C_7  and  C_13
REMARK                            x       y       z     vdW  Elec       q    Type
REMARK                         _______ _______ _______ _____ _____    ______ ____
ROOT
ATOM      1  C   UNL     1       2.995   3.479  19.050  0.00  0.00    +0.000 C 
ENDROOT
BRANCH   1   7
ATOM      2  O   UNL     1       4.726   3.869  16.512  0.00  0.00    +0.000 OA
ATOM      3  C   UNL     1       4.079   4.722  17.119  0.00  0.00    +0.000 C 
ATOM      4  C   UNL     1       4.459   6.182  17.130  0.00  0.00    +0.000 C 
ATOM      5  C   UNL     1       3.495   6.761  18.150  0.00  0.00    +0.000 C 
ATOM      6  C   UNL     1       2.275   5.849  18.129  0.00  0.00    +0.000 C 
ATOM      7  C   UNL     1       2.793   4.432  17.838  0.00  0.00    +0.000 C 
ENDBRANCH   1   7
BRANCH   1   8
ATOM      8  C   UNL     1       2.065   3.905  20.193  0.00  0.00    +0.000 C 
ATOM      9  F   UNL     1       2.445   5.064  20.776  0.00  0.00    +0.000 F 
ATOM     10  F   UNL     1       0.758   4.001  19.904  0.00  0.00    +0.000 F 
ATOM     11  F   UNL     1       2.150   2.948  21.169  0.00  0.00    +0.000 F 
ENDBRANCH   1   8
BRANCH   1  12
ATOM     12  C   UNL     1       2.666   2.029  18.647  0.00  0.00    +0.000 C 
ATOM     13  F   UNL     1       2.336   1.926  17.341  0.00  0.00    +0.000 F 
ATOM     14  F   UNL     1       3.723   1.210  18.868  0.00  0.00    +0.000 F 
ATOM     15  F   UNL     1       1.643   1.487  19.341  0.00  0.00    +0.000 F 
ENDBRANCH   1  12
BRANCH   1  16
ATOM     16  O   UNL     1       4.395   3.619  19.465  0.00  0.00    +0.000 OA
ATOM     17  H   UNL     1       4.959   3.188  18.791  0.00  0.00    +0.000 HD
ENDBRANCH   1  16
TORSDOF 4
ENDMDL
MODEL 4
REMARK VINA RESULT:      -6.3      1.538      2.130
REMARK  Name = 
REMARK  4 active torsions:
REMARK  status: ('A' for Active; 'I' for Inactive)
REMARK    1  A    between atoms: C_6  and  C_7
REMARK    2  A    between atoms: C_7  and  O_8
REMARK    3  A    between atoms: C_7  and  C_9
REMARK    4  A    between atoms: C_7  and  C_13
REMARK                            x       y       z     vdW  Elec       q    Type
REMARK                         _______ _______ _______ _____ _____    ______ ____
ROOT
ATOM      1  C   UNL     1       3.536   3.964  18.917  0.00  0.00    +0.000 C 
ENDROOT
BRANCH   1   7
ATOM      2  O   UNL     1       6.354   4.983  19.695  0.00  0.00    +0.000 OA
ATOM      3  C   UNL     1       5.775   5.122  18.618  0.00  0.00    +0.000 C 
ATOM      4  C   UNL     1       6.034   6.287  17.694  0.00  0.00    +0.000 C 
ATOM      5  C   UNL     1       4.962   6.106  16.635  0.00  0.00    +0.000 C 
ATOM      6  C   UNL     1       4.651   4.615  16.612  0.00  0.00    +0.000 C 
ATOM      7  C   UNL     1       4.820   4.111  18.053  0.00  0.00    +0.000 C 
ENDBRANCH   1   7
BRANCH   1   8
ATOM      8  C   UNL     1       2.301   4.016  18.008  0.00  0.00    +0.000 C 
ATOM      9  F   UNL     1       1.977   5.274  17.634  0.00  0.00    +0.000 F 
ATOM     10  F   UNL     1       2.332   3.255  16.903  0.00  0.00    +0.000 F 
ATOM     11  F   UNL     1       1.236   3.555  18.735  0.00  0.00    +0.000 F 
ENDBRANCH   1   8
BRANCH   1  12
ATOM     12  C   UNL     1       3.551   2.618  19.669  0.00  0.00    +0.000 C 
ATOM     13  F   UNL     1       4.799   2.256  20.038  0.00  0.00    +0.000 F 
ATOM     14  F   UNL     1       2.792   2.678  20.791  0.00  0.00    +0.000 F 
ATOM     15  F   UNL     1       3.051   1.588  18.955  0.00  0.00    +0.000 F 
ENDBRANCH   1  12
BRANCH   1  16
ATOM     16  O   UNL     1       3.522   5.100  19.846  0.00  0.00    +0.000 OA
ATOM     17  H   UNL     1       2.918   5.782  19.486  0.00  0.00    +0.000 HD
ENDBRANCH   1  16
TORSDOF 4
ENDMDL
MODEL 5
REMARK VINA RESULT:      -6.3      1.522      2.145
REMARK  Name = 
REMARK  4 active torsions:
REMARK  status: ('A' for Active; 'I' for Inactive)
REMARK    1  A    between atoms: C_6  and  C_7
REMARK    2  A    between atoms: C_7  and  O_8
REMARK    3  A    between atoms: C_7  and  C_9
REMARK    4  A    between atoms: C_7  and  C_13
REMARK                            x       y       z     vdW  Elec       q    Type
REMARK                         _______ _______ _______ _____ _____    ______ ____
ROOT
ATOM      1  C   UNL     1       3.495   4.347  19.133  0.00  0.00    +0.000 C 
ENDROOT
BRANCH   1   7
ATOM      2  O   UNL     1       6.450   5.068  19.713  0.00  0.00    +0.000 OA
ATOM      3  C   UNL     1       5.828   5.231  18.664  0.00  0.00    +0.000 C 
ATOM      4  C   UNL     1       6.161   6.324  17.678  0.00  0.00    +0.000 C 
ATOM      5  C   UNL     1       5.015   6.227  16.687  0.00  0.00    +0.000 C 
ATOM      6  C   UNL     1       4.540   4.781  16.744  0.00  0.00    +0.000 C 
ATOM      7  C   UNL     1       4.735   4.315  18.195  0.00  0.00    +0.000 C 
ENDBRANCH   1   7
BRANCH   1   8
ATOM      8  C   UNL     1       2.219   4.444  18.286  0.00  0.00    +0.000 C 
ATOM      9  F   UNL     1       2.287   3.720  17.147  0.00  0.00    +0.000 F 
ATOM     10  F   UNL     1       1.064   4.138  18.898  0.00  0.00    +0.000 F 
ATOM     11  F   UNL     1       2.086   5.750  17.894  0.00  0.00    +0.000 F 
ENDBRANCH   1   8
BRANCH   1  12
ATOM     12  C   UNL     1       3.437   3.063  19.984  0.00  0.00    +0.000 C 
ATOM     13  F   UNL     1       4.669   2.591  20.275  0.00  0.00    +0.000 F 
ATOM     14  F   UNL     1       2.795   3.285  21.157  0.00  0.00    +0.000 F 
ATOM     15  F   UNL     1       2.769   2.048  19.397  0.00  0.00    +0.000 F 
ENDBRANCH   1  12
BRANCH   1  16
ATOM     16  O   UNL     1       3.633   5.544  19.970  0.00  0.00    +0.000 OA
ATOM     17  H   UNL     1       3.079   5.424  20.769  0.00  0.00    +0.000 HD
ENDBRANCH   1  16
TORSDOF 4
ENDMDL
MODEL 6
REMARK VINA RESULT:      -6.3      1.672      2.426
REMARK  Name = 
REMARK  4 active torsions:
REMARK  status: ('A' for Active; 'I' for Inactive)
REMARK    1  A    between atoms: C_6  and  C_7
REMARK    2  A    between atoms: C_7  and  O_8
REMARK    3  A    between atoms: C_7  and  C_9
REMARK    4  A    between atoms: C_7  and  C_13
REMARK                            x       y       z     vdW  Elec       q    Type
REMARK                         _______ _______ _______ _____ _____    ______ ____
ROOT
ATOM      1  C   UNL     1       2.480   3.601  19.496  0.00  0.00    +0.000 C 
ENDROOT
BRANCH   1   7
ATOM      2  O   UNL     1       2.828   6.676  19.581  0.00  0.00    +0.000 OA
ATOM      3  C   UNL     1       3.441   5.869  18.883  0.00  0.00    +0.000 C 
ATOM      4  C   UNL     1       4.030   6.230  17.541  0.00  0.00    +0.000 C 
ATOM      5  C   UNL     1       4.490   4.881  17.016  0.00  0.00    +0.000 C 
ATOM      6  C   UNL     1       4.770   4.031  18.248  0.00  0.00    +0.000 C 
ATOM      7  C   UNL     1       3.758   4.468  19.319  0.00  0.00    +0.000 C 
ENDBRANCH   1   7
BRANCH   1   8
ATOM      8  C   UNL     1       2.718   2.212  18.887  0.00  0.00    +0.000 C 
ATOM      9  F   UNL     1       2.629   2.208  17.539  0.00  0.00    +0.000 F 
ATOM     10  F   UNL     1       3.860   1.593  19.225  0.00  0.00    +0.000 F 
ATOM     11  F   UNL     1       1.716   1.392  19.332  0.00  0.00    +0.000 F 
ENDBRANCH   1   8
BRANCH   1  12
ATOM     12  C   UNL     1       2.146   3.443  20.992  0.00  0.00    +0.000 C 
ATOM     13  F   UNL     1       2.388   4.576  21.689  0.00  0.00    +0.000 F 
ATOM     14  F   UNL     1       0.841   3.124  21.169  0.00  0.00    +0.000 F 
ATOM     15  F   UNL     1       2.840   2.463  21.607  0.00  0.00    +0.000 F 
ENDBRANCH   1  12
BRANCH   1  16
ATOM     16  O   UNL     1       1.404   4.287  18.772  0.00  0.00    +0.000 OA
ATOM     17  H   UNL     1       1.573   5.251  18.815  0.00  0.00    +0.000 HD
ENDBRANCH   1  16
TORSDOF 4
ENDMDL
MODEL 7
REMARK VINA RESULT:      -6.2      3.949      5.180
REMARK  Name = 
REMARK  4 active torsions:
REMARK  status: ('A' for Active; 'I' for Inactive)
REMARK    1  A    between atoms: C_6  and  C_7
REMARK    2  A    between atoms: C_7  and  O_8
REMARK    3  A    between atoms: C_7  and  C_9
REMARK    4  A    between atoms: C_7  and  C_13
REMARK                            x       y       z     vdW  Elec       q    Type
REMARK                         _______ _______ _______ _____ _____    ______ ____
ROOT
ATOM      1  C   UNL     1       6.239   5.237  17.902  0.00  0.00    +0.000 C 
ENDROOT
BRANCH   1   7
ATOM      2  O   UNL     1       5.057   3.089  19.793  0.00  0.00    +0.000 OA
ATOM      3  C   UNL     1       4.447   3.947  19.155  0.00  0.00    +0.000 C 
ATOM      4  C   UNL     1       3.023   3.764  18.690  0.00  0.00    +0.000 C 
ATOM      5  C   UNL     1       2.811   4.980  17.807  0.00  0.00    +0.000 C 
ATOM      6  C   UNL     1       3.761   6.046  18.336  0.00  0.00    +0.000 C 
ATOM      7  C   UNL     1       5.007   5.306  18.847  0.00  0.00    +0.000 C 
ENDBRANCH   1   7
BRANCH   1   8
ATOM      8  C   UNL     1       6.125   6.333  16.834  0.00  0.00    +0.000 C 
ATOM      9  F   UNL     1       5.168   6.074  15.915  0.00  0.00    +0.000 F 
ATOM     10  F   UNL     1       5.940   7.587  17.275  0.00  0.00    +0.000 F 
ATOM     11  F   UNL     1       7.309   6.361  16.146  0.00  0.00    +0.000 F 
ENDBRANCH   1   8
BRANCH   1  12
ATOM     12  C   UNL     1       7.538   5.448  18.703  0.00  0.00    +0.000 C 
ATOM     13  F   UNL     1       7.327   5.395  20.036  0.00  0.00    +0.000 F 
ATOM     14  F   UNL     1       8.460   4.503  18.396  0.00  0.00    +0.000 F 
ATOM     15  F   UNL     1       8.144   6.630  18.460  0.00  0.00    +0.000 F 
ENDBRANCH   1  12
BRANCH   1  16
ATOM     16  O   UNL     1       6.207   3.914  17.266  0.00  0.00    +0.000 OA
ATOM     17  H   UNL     1       6.181   4.042  16.295  0.00  0.00    +0.000 HD
ENDBRANCH   1  16
TORSDOF 4
ENDMDL
MODEL 8
REMARK VINA RESULT:      -6.2      2.390      3.946
REMARK  Name = 
REMARK  4 active torsions:
REMARK  status: ('A' for Active; 'I' for Inactive)
REMARK    1  A    between atoms: C_6  and  C_7
REMARK    2  A    between atoms: C_7  and  O_8
REMARK    3  A    between atoms: C_7  and  C_9
REMARK    4  A    between atoms: C_7  and  C_13
REMARK                            x       y       z     vdW  Elec       q    Type
REMARK                         _______ _______ _______ _____ _____    ______ ____
ROOT
ATOM      1  C   UNL     1       4.094   3.751  19.028  0.00  0.00    +0.000 C 
ENDROOT
BRANCH   1   7
ATOM      2  O   UNL     1       3.555   2.152  21.624  0.00  0.00    +0.000 OA
ATOM      3  C   UNL     1       2.795   2.930  21.049  0.00  0.00    +0.000 C 
ATOM      4  C   UNL     1       1.292   2.813  21.127  0.00  0.00    +0.000 C 
ATOM      5  C   UNL     1       0.833   3.850  20.119  0.00  0.00    +0.000 C 
ATOM      6  C   UNL     1       1.944   4.891  20.061  0.00  0.00    +0.000 C 
ATOM      7  C   UNL     1       3.262   4.134  20.285  0.00  0.00    +0.000 C 
ENDBRANCH   1   7
BRANCH   1   8
ATOM      8  C   UNL     1       3.143   3.422  17.870  0.00  0.00    +0.000 C 
ATOM      9  F   UNL     1       2.489   2.252  18.042  0.00  0.00    +0.000 F 
ATOM     10  F   UNL     1       2.233   4.356  17.551  0.00  0.00    +0.000 F 
ATOM     11  F   UNL     1       3.908   3.262  16.745  0.00  0.00    +0.000 F 
ENDBRANCH   1   8
BRANCH   1  12
ATOM     12  C   UNL     1       5.005   4.923  18.614  0.00  0.00    +0.000 C 
ATOM     13  F   UNL     1       4.344   5.847  17.882  0.00  0.00    +0.000 F 
ATOM     14  F   UNL     1       5.516   5.551  19.701  0.00  0.00    +0.000 F 
ATOM     15  F   UNL     1       6.075   4.551  17.881  0.00  0.00    +0.000 F 
ENDBRANCH   1  12
BRANCH   1  16
ATOM     16  O   UNL     1       4.874   2.562  19.388  0.00  0.00    +0.000 OA
ATOM     17  H   UNL     1       5.800   2.705  19.102  0.00  0.00    +0.000 HD
ENDBRANCH   1  16
TORSDOF 4
ENDMDL
MODEL 9
REMARK VINA RESULT:      -6.2      1.879      2.598
REMARK  Name = 
REMARK  4 active torsions:
REMARK  status: ('A' for Active; 'I' for Inactive)
REMARK    1  A    between atoms: C_6  and  C_7
REMARK    2  A    between atoms: C_7  and  O_8
REMARK    3  A    between atoms: C_7  and  C_9
REMARK    4  A    between atoms: C_7  and  C_13
REMARK                            x       y       z     vdW  Elec       q    Type
REMARK                         _______ _______ _______ _____ _____    ______ ____
ROOT
ATOM      1  C   UNL     1       2.639   3.801  19.478  0.00  0.00    +0.000 C 
ENDROOT
BRANCH   1   7
ATOM      2  O   UNL     1       4.202   3.491  16.823  0.00  0.00    +0.000 OA
ATOM      3  C   UNL     1       3.757   4.526  17.317  0.00  0.00    +0.000 C 
ATOM      4  C   UNL     1       4.374   5.882  17.070  0.00  0.00    +0.000 C 
ATOM      5  C   UNL     1       3.604   6.769  18.032  0.00  0.00    +0.000 C 
ATOM      6  C   UNL     1       2.252   6.095  18.224  0.00  0.00    +0.000 C 
ATOM      7  C   UNL     1       2.503   4.581  18.141  0.00  0.00    +0.000 C 
ENDBRANCH   1   7
BRANCH   1   8
ATOM      8  C   UNL     1       1.876   4.545  20.582  0.00  0.00    +0.000 C 
ATOM      9  F   UNL     1       2.054   3.998  21.805  0.00  0.00    +0.000 F 
ATOM     10  F   UNL     1       2.100   5.864  20.687  0.00  0.00    +0.000 F 
ATOM     11  F   UNL     1       0.539   4.425  20.309  0.00  0.00    +0.000 F 
ENDBRANCH   1   8
BRANCH   1  12
ATOM     12  C   UNL     1       2.055   2.383  19.330  0.00  0.00    +0.000 C 
ATOM     13  F   UNL     1       1.062   2.335  18.415  0.00  0.00    +0.000 F 
ATOM     14  F   UNL     1       3.009   1.500  18.947  0.00  0.00    +0.000 F 
ATOM     15  F   UNL     1       1.542   1.881  20.474  0.00  0.00    +0.000 F 
ENDBRANCH   1  12
BRANCH   1  16
ATOM     16  O   UNL     1       4.071   3.764  19.798  0.00  0.00    +0.000 OA
ATOM     17  H   UNL     1       4.189   3.239  20.616  0.00  0.00    +0.000 HD
ENDBRANCH   1  16
TORSDOF 4
ENDMDL
