MODEL 1
REMARK VINA RESULT:      -7.8      0.000      0.000
REMARK  Name = 
REMARK  5 active torsions:
REMARK  status: ('A' for Active; 'I' for Inactive)
REMARK    1  A    between atoms: C_1  and  C_2
REMARK    2  A    between atoms: C_2  and  N_3
REMARK    3  A    between atoms: C_2  and  C_20
REMARK    4  A    between atoms: C_9  and  N_10
REMARK    5  A    between atoms: C_13  and  C_14
REMARK                            x       y       z     vdW  Elec       q    Type
REMARK                         _______ _______ _______ _____ _____    ______ ____
ROOT
ATOM      1  N   UNL     1       5.269   3.726  16.928  0.00  0.00    +0.000 N 
ATOM      2  C   UNL     1       4.372   3.517  17.964  0.00  0.00    +0.000 A 
ATOM      3  N   UNL     1       3.918   2.275  18.130  0.00  0.00    +0.000 NA
ATOM      4  C   UNL     1       2.925   2.109  19.025  0.00  0.00    +0.000 A 
ATOM      5  C   UNL     1       2.412   3.126  19.794  0.00  0.00    +0.000 A 
ATOM      6 BR   UNL     1       0.991   2.795  20.991  0.00  0.00    +0.000 Br
ATOM      7  C   UNL     1       3.010   4.363  19.639  0.00  0.00    +0.000 A 
ATOM      8  N   UNL     1       3.980   4.548  18.720  0.00  0.00    +0.000 NA
ATOM      9  H   UNL     1       6.175   3.417  17.264  0.00  0.00    +0.000 HD
ENDROOT
BRANCH   7  10
ATOM     10  N   UNL     1       2.691   5.424  20.505  0.00  0.00    +0.000 N 
ATOM     11  C   UNL     1       2.161   6.631  20.221  0.00  0.00    +0.000 A 
ATOM     12  C   UNL     1       1.884   7.130  18.926  0.00  0.00    +0.000 A 
ATOM     13  C   UNL     1       1.547   8.447  19.107  0.00  0.00    +0.000 A 
ATOM     14  N   UNL     1       1.543   8.639  20.455  0.00  0.00    +0.000 N 
ATOM     15  N   UNL     1       1.919   7.556  21.156  0.00  0.00    +0.000 NA
ATOM     16  H   UNL     1       2.869   5.229  21.483  0.00  0.00    +0.000 HD
ATOM     17  H   UNL     1       1.329   9.491  20.961  0.00  0.00    +0.000 HD
BRANCH  13  18
ATOM     18  C   UNL     1       1.307   9.440  17.998  0.00  0.00    +0.000 C 
ATOM     19  C   UNL     1       0.617  10.752  18.283  0.00  0.00    +0.000 C 
ATOM     20  C   UNL     1       2.088  10.737  18.048  0.00  0.00    +0.000 C 
ENDBRANCH  13  18
ENDBRANCH   7  10
BRANCH   1  22
ATOM     21  C   UNL     1       5.664   5.091  14.905  0.00  0.00    +0.000 C 
ATOM     22  C   UNL     1       5.319   5.091  16.405  0.00  0.00    +0.000 C 
BRANCH  22  23
ATOM     23  C   UNL     1       6.390   5.857  17.169  0.00  0.00    +0.000 A 
ATOM     24  C   UNL     1       7.125   5.232  18.191  0.00  0.00    +0.000 A 
ATOM     25  C   UNL     1       8.074   5.947  18.923  0.00  0.00    +0.000 A 
ATOM     26  C   UNL     1       8.303   7.293  18.643  0.00  0.00    +0.000 A 
ATOM     27  C   UNL     1       7.593   7.927  17.631  0.00  0.00    +0.000 A 
ATOM     28  C   UNL     1       6.647   7.214  16.895  0.00  0.00    +0.000 A 
ENDBRANCH  22  23
ENDBRANCH   1  22
TORSDOF 4
ENDMDL
MODEL 2
REMARK VINA RESULT:      -7.7      2.180      5.175
REMARK  Name = 
REMARK  5 active torsions:
REMARK  status: ('A' for Active; 'I' for Inactive)
REMARK    1  A    between atoms: C_1  and  C_2
REMARK    2  A    between atoms: C_2  and  N_3
REMARK    3  A    between atoms: C_2  and  C_20
REMARK    4  A    between atoms: C_9  and  N_10
REMARK    5  A    between atoms: C_13  and  C_14
REMARK                            x       y       z     vdW  Elec       q    Type
REMARK                         _______ _______ _______ _____ _____    ______ ____
ROOT
ATOM      1  N   UNL     1       4.317   7.598  16.890  0.00  0.00    +0.000 N 
ATOM      2  C   UNL     1       3.313   7.779  17.829  0.00  0.00    +0.000 A 
ATOM      3  N   UNL     1       2.523   8.842  17.673  0.00  0.00    +0.000 NA
ATOM      4  C   UNL     1       1.661   9.106  18.674  0.00  0.00    +0.000 A 
ATOM      5  C   UNL     1       1.523   8.317  19.791  0.00  0.00    +0.000 A 
ATOM      6 BR   UNL     1       0.313   8.799  21.156  0.00  0.00    +0.000 Br
ATOM      7  C   UNL     1       2.302   7.175  19.826  0.00  0.00    +0.000 A 
ATOM      8  N   UNL     1       3.194   6.921  18.848  0.00  0.00    +0.000 NA
ATOM      9  H   UNL     1       3.880   7.181  16.076  0.00  0.00    +0.000 HD
ENDROOT
BRANCH   7  10
ATOM     10  N   UNL     1       2.106   6.208  20.828  0.00  0.00    +0.000 N 
ATOM     11  C   UNL     1       2.234   4.868  20.761  0.00  0.00    +0.000 A 
ATOM     12  C   UNL     1       2.524   4.121  19.593  0.00  0.00    +0.000 A 
ATOM     13  C   UNL     1       2.363   2.808  19.953  0.00  0.00    +0.000 A 
ATOM     14  N   UNL     1       2.093   2.825  21.286  0.00  0.00    +0.000 N 
ATOM     15  N   UNL     1       2.001   4.063  21.803  0.00  0.00    +0.000 NA
ATOM     16  H   UNL     1       1.854   6.592  21.732  0.00  0.00    +0.000 HD
ATOM     17  H   UNL     1       1.925   2.034  21.898  0.00  0.00    +0.000 HD
BRANCH  13  18
ATOM     18  C   UNL     1       2.422   1.636  19.003  0.00  0.00    +0.000 C 
ATOM     19  C   UNL     1       2.675   1.858  17.532  0.00  0.00    +0.000 C 
ATOM     20  C   UNL     1       3.766   1.311  18.386  0.00  0.00    +0.000 C 
ENDBRANCH  13  18
ENDBRANCH   7  10
BRANCH   1  22
ATOM     21  C   UNL     1       6.721   7.715  17.455  0.00  0.00    +0.000 C 
ATOM     22  C   UNL     1       5.472   6.824  17.346  0.00  0.00    +0.000 C 
BRANCH  22  23
ATOM     23  C   UNL     1       5.730   5.714  16.336  0.00  0.00    +0.000 A 
ATOM     24  C   UNL     1       6.825   5.786  15.459  0.00  0.00    +0.000 A 
ATOM     25  C   UNL     1       7.035   4.791  14.502  0.00  0.00    +0.000 A 
ATOM     26  C   UNL     1       6.158   3.713  14.410  0.00  0.00    +0.000 A 
ATOM     27  C   UNL     1       5.073   3.619  15.275  0.00  0.00    +0.000 A 
ATOM     28  C   UNL     1       4.864   4.609  16.234  0.00  0.00    +0.000 A 
ENDBRANCH  22  23
ENDBRANCH   1  22
TORSDOF 4
ENDMDL
MODEL 3
REMARK VINA RESULT:      -7.7      0.329      1.029
REMARK  Name = 
REMARK  5 active torsions:
REMARK  status: ('A' for Active; 'I' for Inactive)
REMARK    1  A    between atoms: C_1  and  C_2
REMARK    2  A    between atoms: C_2  and  N_3
REMARK    3  A    between atoms: C_2  and  C_20
REMARK    4  A    between atoms: C_9  and  N_10
REMARK    5  A    between atoms: C_13  and  C_14
REMARK                            x       y       z     vdW  Elec       q    Type
REMARK                         _______ _______ _______ _____ _____    ______ ____
ROOT
ATOM      1  N   UNL     1       5.317   3.806  17.163  0.00  0.00    +0.000 N 
ATOM      2  C   UNL     1       4.440   3.562  18.209  0.00  0.00    +0.000 A 
ATOM      3  N   UNL     1       4.072   2.295  18.407  0.00  0.00    +0.000 NA
ATOM      4  C   UNL     1       3.097   2.084  19.311  0.00  0.00    +0.000 A 
ATOM      5  C   UNL     1       2.519   3.083  20.059  0.00  0.00    +0.000 A 
ATOM      6 BR   UNL     1       1.129   2.685  21.271  0.00  0.00    +0.000 Br
ATOM      7  C   UNL     1       3.031   4.353  19.871  0.00  0.00    +0.000 A 
ATOM      8  N   UNL     1       3.982   4.581  18.943  0.00  0.00    +0.000 NA
ATOM      9  H   UNL     1       6.243   3.567  17.501  0.00  0.00    +0.000 HD
ENDROOT
BRANCH   7  10
ATOM     10  N   UNL     1       2.644   5.411  20.713  0.00  0.00    +0.000 N 
ATOM     11  C   UNL     1       2.130   6.615  20.394  0.00  0.00    +0.000 A 
ATOM     12  C   UNL     1       1.946   7.116  19.082  0.00  0.00    +0.000 A 
ATOM     13  C   UNL     1       1.590   8.431  19.242  0.00  0.00    +0.000 A 
ATOM     14  N   UNL     1       1.487   8.620  20.585  0.00  0.00    +0.000 N 
ATOM     15  N   UNL     1       1.815   7.537  21.310  0.00  0.00    +0.000 NA
ATOM     16  H   UNL     1       2.751   5.214  21.702  0.00  0.00    +0.000 HD
ATOM     17  H   UNL     1       1.232   9.469  21.077  0.00  0.00    +0.000 HD
BRANCH  13  18
ATOM     18  C   UNL     1       1.428   9.426  18.119  0.00  0.00    +0.000 C 
ATOM     19  C   UNL     1       0.093  10.085  17.870  0.00  0.00    +0.000 C 
ATOM     20  C   UNL     1       1.188  10.871  18.504  0.00  0.00    +0.000 C 
ENDBRANCH  13  18
ENDBRANCH   7  10
BRANCH   1  22
ATOM     21  C   UNL     1       5.566   5.140  15.097  0.00  0.00    +0.000 C 
ATOM     22  C   UNL     1       5.272   5.158  16.607  0.00  0.00    +0.000 C 
BRANCH  22  23
ATOM     23  C   UNL     1       6.323   6.002  17.316  0.00  0.00    +0.000 A 
ATOM     24  C   UNL     1       6.520   7.346  16.959  0.00  0.00    +0.000 A 
ATOM     25  C   UNL     1       7.516   8.106  17.576  0.00  0.00    +0.000 A 
ATOM     26  C   UNL     1       8.324   7.534  18.557  0.00  0.00    +0.000 A 
ATOM     27  C   UNL     1       8.139   6.208  18.929  0.00  0.00    +0.000 A 
ATOM     28  C   UNL     1       7.143   5.448  18.318  0.00  0.00    +0.000 A 
ENDBRANCH  22  23
ENDBRANCH   1  22
TORSDOF 4
ENDMDL
MODEL 4
REMARK VINA RESULT:      -7.5      3.280      5.326
REMARK  Name = 
REMARK  5 active torsions:
REMARK  status: ('A' for Active; 'I' for Inactive)
REMARK    1  A    between atoms: C_1  and  C_2
REMARK    2  A    between atoms: C_2  and  N_3
REMARK    3  A    between atoms: C_2  and  C_20
REMARK    4  A    between atoms: C_9  and  N_10
REMARK    5  A    between atoms: C_13  and  C_14
REMARK                            x       y       z     vdW  Elec       q    Type
REMARK                         _______ _______ _______ _____ _____    ______ ____
ROOT
ATOM      1  N   UNL     1       2.442   6.698  20.085  0.00  0.00    +0.000 N 
ATOM      2  C   UNL     1       1.746   7.790  20.582  0.00  0.00    +0.000 A 
ATOM      3  N   UNL     1       1.227   7.671  21.804  0.00  0.00    +0.000 NA
ATOM      4  C   UNL     1       0.415   8.664  22.214  0.00  0.00    +0.000 A 
ATOM      5  C   UNL     1       0.149   9.790  21.471  0.00  0.00    +0.000 A 
ATOM      6 BR   UNL     1      -1.038  11.104  22.121  0.00  0.00    +0.000 Br
ATOM      7  C   UNL     1       0.810   9.886  20.260  0.00  0.00    +0.000 A 
ATOM      8  N   UNL     1       1.597   8.881  19.824  0.00  0.00    +0.000 NA
ATOM      9  H   UNL     1       3.365   6.729  20.503  0.00  0.00    +0.000 HD
ENDROOT
BRANCH   7  10
ATOM     10  N   UNL     1       0.756  11.074  19.510  0.00  0.00    +0.000 N 
ATOM     11  C   UNL     1      -0.226  11.536  18.709  0.00  0.00    +0.000 A 
ATOM     12  C   UNL     1      -1.418  10.849  18.379  0.00  0.00    +0.000 A 
ATOM     13  C   UNL     1      -2.012  11.601  17.398  0.00  0.00    +0.000 A 
ATOM     14  N   UNL     1      -1.230  12.706  17.263  0.00  0.00    +0.000 N 
ATOM     15  N   UNL     1      -0.134  12.691  18.041  0.00  0.00    +0.000 NA
ATOM     16  H   UNL     1       1.569  11.669  19.615  0.00  0.00    +0.000 HD
ATOM     17  H   UNL     1      -1.365  13.491  16.636  0.00  0.00    +0.000 HD
BRANCH  13  18
ATOM     18  C   UNL     1      -3.242  11.197  16.622  0.00  0.00    +0.000 C 
ATOM     19  C   UNL     1      -3.134  10.815  15.166  0.00  0.00    +0.000 C 
ATOM     20  C   UNL     1      -3.343   9.750  16.187  0.00  0.00    +0.000 C 
ENDBRANCH  13  18
ENDBRANCH   7  10
BRANCH   1  22
ATOM     21  C   UNL     1       1.634   5.446  18.113  0.00  0.00    +0.000 C 
ATOM     22  C   UNL     1       2.507   6.604  18.627  0.00  0.00    +0.000 C 
BRANCH  22  23
ATOM     23  C   UNL     1       3.956   6.359  18.228  0.00  0.00    +0.000 A 
ATOM     24  C   UNL     1       4.827   5.667  19.087  0.00  0.00    +0.000 A 
ATOM     25  C   UNL     1       6.167   5.484  18.742  0.00  0.00    +0.000 A 
ATOM     26  C   UNL     1       6.654   5.987  17.537  0.00  0.00    +0.000 A 
ATOM     27  C   UNL     1       5.806   6.668  16.671  0.00  0.00    +0.000 A 
ATOM     28  C   UNL     1       4.466   6.848  17.011  0.00  0.00    +0.000 A 
ENDBRANCH  22  23
ENDBRANCH   1  22
TORSDOF 4
ENDMDL
MODEL 5
REMARK VINA RESULT:      -7.5      3.299      5.287
REMARK  Name = 
REMARK  5 active torsions:
REMARK  status: ('A' for Active; 'I' for Inactive)
REMARK    1  A    between atoms: C_1  and  C_2
REMARK    2  A    between atoms: C_2  and  N_3
REMARK    3  A    between atoms: C_2  and  C_20
REMARK    4  A    between atoms: C_9  and  N_10
REMARK    5  A    between atoms: C_13  and  C_14
REMARK                            x       y       z     vdW  Elec       q    Type
REMARK                         _______ _______ _______ _____ _____    ______ ____
ROOT
ATOM      1  N   UNL     1       2.572   6.407  19.587  0.00  0.00    +0.000 N 
ATOM      2  C   UNL     1       1.962   7.519  20.147  0.00  0.00    +0.000 A 
ATOM      3  N   UNL     1       1.662   7.454  21.445  0.00  0.00    +0.000 NA
ATOM      4  C   UNL     1       0.923   8.463  21.945  0.00  0.00    +0.000 A 
ATOM      5  C   UNL     1       0.523   9.554  21.210  0.00  0.00    +0.000 A 
ATOM      6 BR   UNL     1      -0.547  10.894  21.997  0.00  0.00    +0.000 Br
ATOM      7  C   UNL     1       0.965   9.597  19.901  0.00  0.00    +0.000 A 
ATOM      8  N   UNL     1       1.675   8.575  19.380  0.00  0.00    +0.000 NA
ATOM      9  H   UNL     1       3.553   6.459  19.838  0.00  0.00    +0.000 HD
ENDROOT
BRANCH   7  10
ATOM     10  N   UNL     1       0.771  10.751  19.120  0.00  0.00    +0.000 N 
ATOM     11  C   UNL     1      -0.341  11.181  18.491  0.00  0.00    +0.000 A 
ATOM     12  C   UNL     1      -1.572  10.486  18.416  0.00  0.00    +0.000 A 
ATOM     13  C   UNL     1      -2.337  11.197  17.527  0.00  0.00    +0.000 A 
ATOM     14  N   UNL     1      -1.596  12.291  17.201  0.00  0.00    +0.000 N 
ATOM     15  N   UNL     1      -0.376  12.305  17.766  0.00  0.00    +0.000 NA
ATOM     16  H   UNL     1       1.589  11.345  19.048  0.00  0.00    +0.000 HD
ATOM     17  H   UNL     1      -1.845  13.047  16.574  0.00  0.00    +0.000 HD
BRANCH  13  18
ATOM     18  C   UNL     1      -3.686  10.766  17.008  0.00  0.00    +0.000 C 
ATOM     19  C   UNL     1      -4.829  10.518  17.963  0.00  0.00    +0.000 C 
ATOM     20  C   UNL     1      -4.826  11.755  17.133  0.00  0.00    +0.000 C 
ENDBRANCH  13  18
ENDBRANCH   7  10
BRANCH   1  22
ATOM     21  C   UNL     1       1.450   5.067  17.839  0.00  0.00    +0.000 C 
ATOM     22  C   UNL     1       2.387   6.248  18.144  0.00  0.00    +0.000 C 
BRANCH  22  23
ATOM     23  C   UNL     1       3.748   5.989  17.513  0.00  0.00    +0.000 A 
ATOM     24  C   UNL     1       4.125   4.689  17.136  0.00  0.00    +0.000 A 
ATOM     25  C   UNL     1       5.391   4.444  16.600  0.00  0.00    +0.000 A 
ATOM     26  C   UNL     1       6.294   5.492  16.434  0.00  0.00    +0.000 A 
ATOM     27  C   UNL     1       5.936   6.786  16.794  0.00  0.00    +0.000 A 
ATOM     28  C   UNL     1       4.671   7.034  17.324  0.00  0.00    +0.000 A 
ENDBRANCH  22  23
ENDBRANCH   1  22
TORSDOF 4
ENDMDL
MODEL 6
REMARK VINA RESULT:      -7.5      6.278     10.316
REMARK  Name = 
REMARK  5 active torsions:
REMARK  status: ('A' for Active; 'I' for Inactive)
REMARK    1  A    between atoms: C_1  and  C_2
REMARK    2  A    between atoms: C_2  and  N_3
REMARK    3  A    between atoms: C_2  and  C_20
REMARK    4  A    between atoms: C_9  and  N_10
REMARK    5  A    between atoms: C_13  and  C_14
REMARK                            x       y       z     vdW  Elec       q    Type
REMARK                         _______ _______ _______ _____ _____    ______ ____
ROOT
ATOM      1  N   UNL     1      -0.920  11.667  22.634  0.00  0.00    +0.000 N 
ATOM      2  C   UNL     1      -0.403  10.950  21.565  0.00  0.00    +0.000 A 
ATOM      3  N   UNL     1       0.605  10.117  21.826  0.00  0.00    +0.000 NA
ATOM      4  C   UNL     1       1.211   9.552  20.765  0.00  0.00    +0.000 A 
ATOM      5  C   UNL     1       0.812   9.746  19.464  0.00  0.00    +0.000 A 
ATOM      6 BR   UNL     1       1.758   8.938  18.045  0.00  0.00    +0.000 Br
ATOM      7  C   UNL     1      -0.307  10.539  19.286  0.00  0.00    +0.000 A 
ATOM      8  N   UNL     1      -0.899  11.138  20.338  0.00  0.00    +0.000 NA
ATOM      9  H   UNL     1      -1.541  11.037  23.130  0.00  0.00    +0.000 HD
ENDROOT
BRANCH   7  10
ATOM     10  N   UNL     1      -0.907  10.650  18.019  0.00  0.00    +0.000 N 
ATOM     11  C   UNL     1      -2.119  11.139  17.687  0.00  0.00    +0.000 A 
ATOM     12  C   UNL     1      -3.112  11.580  18.594  0.00  0.00    +0.000 A 
ATOM     13  C   UNL     1      -4.230  11.799  17.832  0.00  0.00    +0.000 A 
ATOM     14  N   UNL     1      -3.843  11.581  16.546  0.00  0.00    +0.000 N 
ATOM     15  N   UNL     1      -2.568  11.172  16.427  0.00  0.00    +0.000 NA
ATOM     16  H   UNL     1      -0.323  10.335  17.253  0.00  0.00    +0.000 HD
ATOM     17  H   UNL     1      -4.404  11.658  15.705  0.00  0.00    +0.000 HD
BRANCH  13  18
ATOM     18  C   UNL     1      -5.595  12.143  18.376  0.00  0.00    +0.000 C 
ATOM     19  C   UNL     1      -6.773  12.294  17.444  0.00  0.00    +0.000 C 
ATOM     20  C   UNL     1      -6.664  11.074  18.292  0.00  0.00    +0.000 C 
ENDBRANCH  13  18
ENDBRANCH   7  10
BRANCH   1  22
ATOM     21  C   UNL     1      -0.912  14.112  22.996  0.00  0.00    +0.000 C 
ATOM     22  C   UNL     1      -1.583  12.924  22.286  0.00  0.00    +0.000 C 
BRANCH  22  23
ATOM     23  C   UNL     1      -3.039  12.833  22.722  0.00  0.00    +0.000 A 
ATOM     24  C   UNL     1      -4.076  13.036  21.796  0.00  0.00    +0.000 A 
ATOM     25  C   UNL     1      -5.410  12.999  22.205  0.00  0.00    +0.000 A 
ATOM     26  C   UNL     1      -5.725  12.756  23.540  0.00  0.00    +0.000 A 
ATOM     27  C   UNL     1      -4.714  12.544  24.470  0.00  0.00    +0.000 A 
ATOM     28  C   UNL     1      -3.380  12.576  24.063  0.00  0.00    +0.000 A 
ENDBRANCH  22  23
ENDBRANCH   1  22
TORSDOF 4
ENDMDL
MODEL 7
REMARK VINA RESULT:      -7.3      3.514      6.036
REMARK  Name = 
REMARK  5 active torsions:
REMARK  status: ('A' for Active; 'I' for Inactive)
REMARK    1  A    between atoms: C_1  and  C_2
REMARK    2  A    between atoms: C_2  and  N_3
REMARK    3  A    between atoms: C_2  and  C_20
REMARK    4  A    between atoms: C_9  and  N_10
REMARK    5  A    between atoms: C_13  and  C_14
REMARK                            x       y       z     vdW  Elec       q    Type
REMARK                         _______ _______ _______ _____ _____    ______ ____
ROOT
ATOM      1  N   UNL     1       2.072   7.278  21.231  0.00  0.00    +0.000 N 
ATOM      2  C   UNL     1       1.279   8.391  21.467  0.00  0.00    +0.000 A 
ATOM      3  N   UNL     1       1.212   8.830  22.725  0.00  0.00    +0.000 NA
ATOM      4  C   UNL     1       0.315   9.802  22.978  0.00  0.00    +0.000 A 
ATOM      5  C   UNL     1      -0.472  10.385  22.013  0.00  0.00    +0.000 A 
ATOM      6 BR   UNL     1      -1.729  11.713  22.481  0.00  0.00    +0.000 Br
ATOM      7  C   UNL     1      -0.266   9.948  20.718  0.00  0.00    +0.000 A 
ATOM      8  N   UNL     1       0.603   8.950  20.458  0.00  0.00    +0.000 NA
ATOM      9  H   UNL     1       3.029   7.609  21.189  0.00  0.00    +0.000 HD
ENDROOT
BRANCH   7  10
ATOM     10  N   UNL     1      -0.881  10.605  19.637  0.00  0.00    +0.000 N 
ATOM     11  C   UNL     1      -0.526  11.748  19.016  0.00  0.00    +0.000 A 
ATOM     12  C   UNL     1       0.537  12.602  19.396  0.00  0.00    +0.000 A 
ATOM     13  C   UNL     1       0.401  13.721  18.616  0.00  0.00    +0.000 A 
ATOM     14  N   UNL     1      -0.633  13.454  17.772  0.00  0.00    +0.000 N 
ATOM     15  N   UNL     1      -1.221  12.266  17.997  0.00  0.00    +0.000 NA
ATOM     16  H   UNL     1      -1.694  10.125  19.268  0.00  0.00    +0.000 HD
ATOM     17  H   UNL     1      -1.014  14.050  17.046  0.00  0.00    +0.000 HD
BRANCH  13  18
ATOM     18  C   UNL     1       1.220  14.980  18.758  0.00  0.00    +0.000 C 
ATOM     19  C   UNL     1       2.483  14.981  19.585  0.00  0.00    +0.000 C 
ATOM     20  C   UNL     1       2.583  14.999  18.099  0.00  0.00    +0.000 C 
ENDBRANCH  13  18
ENDBRANCH   7  10
BRANCH   1  22
ATOM     21  C   UNL     1       1.229   5.088  20.453  0.00  0.00    +0.000 C 
ATOM     22  C   UNL     1       1.715   6.491  20.051  0.00  0.00    +0.000 C 
BRANCH  22  23
ATOM     23  C   UNL     1       2.951   6.363  19.171  0.00  0.00    +0.000 A 
ATOM     24  C   UNL     1       3.978   5.465  19.506  0.00  0.00    +0.000 A 
ATOM     25  C   UNL     1       5.133   5.382  18.725  0.00  0.00    +0.000 A 
ATOM     26  C   UNL     1       5.275   6.192  17.600  0.00  0.00    +0.000 A 
ATOM     27  C   UNL     1       4.267   7.081  17.247  0.00  0.00    +0.000 A 
ATOM     28  C   UNL     1       3.111   7.163  18.023  0.00  0.00    +0.000 A 
ENDBRANCH  22  23
ENDBRANCH   1  22
TORSDOF 4
ENDMDL
MODEL 8
REMARK VINA RESULT:      -7.3      3.631      6.178
REMARK  Name = 
REMARK  5 active torsions:
REMARK  status: ('A' for Active; 'I' for Inactive)
REMARK    1  A    between atoms: C_1  and  C_2
REMARK    2  A    between atoms: C_2  and  N_3
REMARK    3  A    between atoms: C_2  and  C_20
REMARK    4  A    between atoms: C_9  and  N_10
REMARK    5  A    between atoms: C_13  and  C_14
REMARK                            x       y       z     vdW  Elec       q    Type
REMARK                         _______ _______ _______ _____ _____    ______ ____
ROOT
ATOM      1  N   UNL     1       2.156   7.314  21.192  0.00  0.00    +0.000 N 
ATOM      2  C   UNL     1       1.334   8.408  21.414  0.00  0.00    +0.000 A 
ATOM      3  N   UNL     1       1.272   8.876  22.661  0.00  0.00    +0.000 NA
ATOM      4  C   UNL     1       0.350   9.827  22.904  0.00  0.00    +0.000 A 
ATOM      5  C   UNL     1      -0.469  10.362  21.938  0.00  0.00    +0.000 A 
ATOM      6 BR   UNL     1      -1.758  11.663  22.393  0.00  0.00    +0.000 Br
ATOM      7  C   UNL     1      -0.268   9.900  20.650  0.00  0.00    +0.000 A 
ATOM      8  N   UNL     1       0.627   8.923  20.402  0.00  0.00    +0.000 NA
ATOM      9  H   UNL     1       3.102   7.672  21.128  0.00  0.00    +0.000 HD
ENDROOT
BRANCH   7  10
ATOM     10  N   UNL     1      -0.918  10.512  19.564  0.00  0.00    +0.000 N 
ATOM     11  C   UNL     1      -0.653  11.687  18.959  0.00  0.00    +0.000 A 
ATOM     12  C   UNL     1       0.324  12.626  19.367  0.00  0.00    +0.000 A 
ATOM     13  C   UNL     1       0.106  13.737  18.593  0.00  0.00    +0.000 A 
ATOM     14  N   UNL     1      -0.886  13.390  17.728  0.00  0.00    +0.000 N 
ATOM     15  N   UNL     1      -1.371  12.154  17.932  0.00  0.00    +0.000 NA
ATOM     16  H   UNL     1      -1.680   9.967  19.176  0.00  0.00    +0.000 HD
ATOM     17  H   UNL     1      -1.303  13.958  17.000  0.00  0.00    +0.000 HD
BRANCH  13  18
ATOM     18  C   UNL     1       0.809  15.062  18.762  0.00  0.00    +0.000 C 
ATOM     19  C   UNL     1       0.070  16.355  18.518  0.00  0.00    +0.000 C 
ATOM     20  C   UNL     1       0.371  15.937  19.916  0.00  0.00    +0.000 C 
ENDBRANCH  13  18
ENDBRANCH   7  10
BRANCH   1  22
ATOM     21  C   UNL     1       1.335   5.093  20.481  0.00  0.00    +0.000 C 
ATOM     22  C   UNL     1       1.806   6.488  20.036  0.00  0.00    +0.000 C 
BRANCH  22  23
ATOM     23  C   UNL     1       3.043   6.347  19.159  0.00  0.00    +0.000 A 
ATOM     24  C   UNL     1       3.176   7.106  17.984  0.00  0.00    +0.000 A 
ATOM     25  C   UNL     1       4.288   6.942  17.155  0.00  0.00    +0.000 A 
ATOM     26  C   UNL     1       5.279   6.021  17.489  0.00  0.00    +0.000 A 
ATOM     27  C   UNL     1       5.169   5.267  18.651  0.00  0.00    +0.000 A 
ATOM     28  C   UNL     1       4.062   5.432  19.483  0.00  0.00    +0.000 A 
ENDBRANCH  22  23
ENDBRANCH   1  22
TORSDOF 4
ENDMDL
MODEL 9
REMARK VINA RESULT:      -7.2      6.579      9.442
REMARK  Name = 
REMARK  5 active torsions:
REMARK  status: ('A' for Active; 'I' for Inactive)
REMARK    1  A    between atoms: C_1  and  C_2
REMARK    2  A    between atoms: C_2  and  N_3
REMARK    3  A    between atoms: C_2  and  C_20
REMARK    4  A    between atoms: C_9  and  N_10
REMARK    5  A    between atoms: C_13  and  C_14
REMARK                            x       y       z     vdW  Elec       q    Type
REMARK                         _______ _______ _______ _____ _____    ______ ____
ROOT
ATOM      1  N   UNL     1      -1.174  11.104  17.806  0.00  0.00    +0.000 N 
ATOM      2  C   UNL     1      -2.543  11.309  17.731  0.00  0.00    +0.000 A 
ATOM      3  N   UNL     1      -3.097  11.263  16.519  0.00  0.00    +0.000 NA
ATOM      4  C   UNL     1      -4.391  11.625  16.432  0.00  0.00    +0.000 A 
ATOM      5  C   UNL     1      -5.160  11.976  17.516  0.00  0.00    +0.000 A 
ATOM      6 BR   UNL     1      -6.955  12.508  17.280  0.00  0.00    +0.000 Br
ATOM      7  C   UNL     1      -4.542  11.895  18.750  0.00  0.00    +0.000 A 
ATOM      8  N   UNL     1      -3.237  11.568  18.845  0.00  0.00    +0.000 NA
ATOM      9  H   UNL     1      -1.028  10.102  17.753  0.00  0.00    +0.000 HD
ENDROOT
BRANCH   7  10
ATOM     10  N   UNL     1      -5.286  12.050  19.933  0.00  0.00    +0.000 N 
ATOM     11  C   UNL     1      -4.877  12.445  21.156  0.00  0.00    +0.000 A 
ATOM     12  C   UNL     1      -3.540  12.714  21.535  0.00  0.00    +0.000 A 
ATOM     13  C   UNL     1      -3.575  12.885  22.895  0.00  0.00    +0.000 A 
ATOM     14  N   UNL     1      -4.890  12.810  23.238  0.00  0.00    +0.000 N 
ATOM     15  N   UNL     1      -5.703  12.537  22.203  0.00  0.00    +0.000 NA
ATOM     16  H   UNL     1      -6.275  11.856  19.830  0.00  0.00    +0.000 HD
ATOM     17  H   UNL     1      -5.299  12.900  24.161  0.00  0.00    +0.000 HD
BRANCH  13  18
ATOM     18  C   UNL     1      -2.363  13.050  23.779  0.00  0.00    +0.000 C 
ATOM     19  C   UNL     1      -1.060  13.550  23.203  0.00  0.00    +0.000 C 
ATOM     20  C   UNL     1      -1.886  14.462  24.043  0.00  0.00    +0.000 C 
ENDBRANCH  13  18
ENDBRANCH   7  10
BRANCH   1  22
ATOM     21  C   UNL     1       0.661  12.588  18.542  0.00  0.00    +0.000 C 
ATOM     22  C   UNL     1      -0.513  11.691  18.971  0.00  0.00    +0.000 C 
BRANCH  22  23
ATOM     23  C   UNL     1       0.010  10.558  19.844  0.00  0.00    +0.000 A 
ATOM     24  C   UNL     1       0.943   9.638  19.338  0.00  0.00    +0.000 A 
ATOM     25  C   UNL     1       1.386   8.572  20.123  0.00  0.00    +0.000 A 
ATOM     26  C   UNL     1       0.906   8.413  21.422  0.00  0.00    +0.000 A 
ATOM     27  C   UNL     1      -0.011   9.318  21.943  0.00  0.00    +0.000 A 
ATOM     28  C   UNL     1      -0.452  10.386  21.163  0.00  0.00    +0.000 A 
ENDBRANCH  22  23
ENDBRANCH   1  22
TORSDOF 4
ENDMDL
