MODEL 1
REMARK VINA RESULT:      -9.2      0.000      0.000
REMARK  Name = 
REMARK  6 active torsions:
REMARK  status: ('A' for Active; 'I' for Inactive)
REMARK    1  A    between atoms: C_1  and  C_2
REMARK    2  A    between atoms: C_6  and  C_7
REMARK    3  A    between atoms: C_8  and  C_9
REMARK    4  A    between atoms: C_9  and  O_10
REMARK    5  A    between atoms: N_17  and  C_18
REMARK    6  A    between atoms: C_23  and  C_24
REMARK                            x       y       z     vdW  Elec       q    Type
REMARK                         _______ _______ _______ _____ _____    ______ ____
ROOT
ATOM      1  C   UNL     1       1.910   3.902  19.951  0.00  0.00    +0.000 C 
ATOM      2  C   UNL     1       1.705   3.765  18.426  0.00  0.00    +0.000 C 
ATOM      3  C   UNL     1       3.009   3.536  17.633  0.00  0.00    +0.000 C 
ATOM      4  C   UNL     1       3.120   2.047  17.304  0.00  0.00    +0.000 C 
ATOM      5  C   UNL     1       3.657   1.434  18.601  0.00  0.00    +0.000 C 
ATOM      6  C   UNL     1       4.096   2.633  19.480  0.00  0.00    +0.000 C 
ATOM      7  C   UNL     1       3.034   3.008  20.523  0.00  0.00    +0.000 C 
ATOM      8  N   UNL     1       4.154   3.723  18.508  0.00  0.00    +0.000 N 
ENDROOT
BRANCH   8   9
ATOM      9  C   UNL     1       5.309   4.433  18.391  0.00  0.00    +0.000 A 
ATOM     10  N   UNL     1       5.844   4.851  19.580  0.00  0.00    +0.000 NA
ATOM     11  C   UNL     1       6.991   5.574  19.604  0.00  0.00    +0.000 A 
ATOM     12  C   UNL     1       7.702   5.905  18.475  0.00  0.00    +0.000 A 
ATOM     13  C   UNL     1       7.182   5.495  17.259  0.00  0.00    +0.000 A 
ATOM     14  C   UNL     1       5.972   4.770  17.211  0.00  0.00    +0.000 A 
BRANCH  14  15
ATOM     15  C   UNL     1       5.531   4.366  15.913  0.00  0.00    +0.000 C 
ATOM     16  N   UNL     1       5.220   4.043  14.842  0.00  0.00    +0.000 NA
ENDBRANCH  14  15
ENDBRANCH   8   9
BRANCH   1  18
ATOM     17  C   UNL     1       2.117   6.538  20.082  0.00  0.00    +0.000 C 
ATOM     18  C   UNL     1       2.132   5.343  20.202  0.00  0.00    +0.000 C 
BRANCH  17  24
ATOM     19  C   UNL     1       0.014  10.941  20.910  0.00  0.00    +0.000 C 
ATOM     20  C   UNL     1       0.809  10.031  20.022  0.00  0.00    +0.000 A 
ATOM     21  C   UNL     1       1.158  10.411  18.721  0.00  0.00    +0.000 A 
ATOM     22  C   UNL     1       1.862   9.534  17.894  0.00  0.00    +0.000 A 
ATOM     23  C   UNL     1       2.219   8.270  18.364  0.00  0.00    +0.000 A 
ATOM     24  C   UNL     1       1.878   7.883  19.663  0.00  0.00    +0.000 A 
ATOM     25  C   UNL     1       1.176   8.760  20.488  0.00  0.00    +0.000 A 
ENDBRANCH  17  24
ENDBRANCH   1  18
BRANCH   1  26
ATOM     26  O   UNL     1       0.656   3.555  20.555  0.00  0.00    +0.000 OA
ATOM     27  H   UNL     1       0.741   2.685  20.978  0.00  0.00    +0.000 HD
ENDBRANCH   1  26
TORSDOF 5
ENDMDL
MODEL 2
REMARK VINA RESULT:      -9.0      1.388      1.703
REMARK  Name = 
REMARK  6 active torsions:
REMARK  status: ('A' for Active; 'I' for Inactive)
REMARK    1  A    between atoms: C_1  and  C_2
REMARK    2  A    between atoms: C_6  and  C_7
REMARK    3  A    between atoms: C_8  and  C_9
REMARK    4  A    between atoms: C_9  and  O_10
REMARK    5  A    between atoms: N_17  and  C_18
REMARK    6  A    between atoms: C_23  and  C_24
REMARK                            x       y       z     vdW  Elec       q    Type
REMARK                         _______ _______ _______ _____ _____    ______ ____
ROOT
ATOM      1  C   UNL     1       1.875   4.257  19.935  0.00  0.00    +0.000 C 
ATOM      2  C   UNL     1       1.531   4.199  18.430  0.00  0.00    +0.000 C 
ATOM      3  C   UNL     1       2.759   4.045  17.508  0.00  0.00    +0.000 C 
ATOM      4  C   UNL     1       2.866   2.579  17.086  0.00  0.00    +0.000 C 
ATOM      5  C   UNL     1       3.533   1.908  18.292  0.00  0.00    +0.000 C 
ATOM      6  C   UNL     1       4.030   3.067  19.193  0.00  0.00    +0.000 C 
ATOM      7  C   UNL     1       3.064   3.360  20.349  0.00  0.00    +0.000 C 
ATOM      8  N   UNL     1       3.978   4.210  18.284  0.00  0.00    +0.000 N 
ENDROOT
BRANCH   8   9
ATOM      9  C   UNL     1       5.103   4.953  18.101  0.00  0.00    +0.000 A 
ATOM     10  N   UNL     1       6.272   4.291  18.366  0.00  0.00    +0.000 NA
ATOM     11  C   UNL     1       7.466   4.918  18.231  0.00  0.00    +0.000 A 
ATOM     12  C   UNL     1       7.595   6.216  17.796  0.00  0.00    +0.000 A 
ATOM     13  C   UNL     1       6.428   6.909  17.520  0.00  0.00    +0.000 A 
ATOM     14  C   UNL     1       5.174   6.284  17.688  0.00  0.00    +0.000 A 
BRANCH  14  15
ATOM     15  C   UNL     1       4.029   7.069  17.350  0.00  0.00    +0.000 C 
ATOM     16  N   UNL     1       3.129   7.744  17.061  0.00  0.00    +0.000 NA
ENDBRANCH  14  15
ENDBRANCH   8   9
BRANCH   1  18
ATOM     17  C   UNL     1       1.900   6.860  20.417  0.00  0.00    +0.000 C 
ATOM     18  C   UNL     1       2.093   5.687  20.246  0.00  0.00    +0.000 C 
BRANCH  17  24
ATOM     19  C   UNL     1      -0.672  10.077  23.162  0.00  0.00    +0.000 C 
ATOM     20  C   UNL     1       0.018   9.732  21.876  0.00  0.00    +0.000 A 
ATOM     21  C   UNL     1      -0.052  10.580  20.765  0.00  0.00    +0.000 A 
ATOM     22  C   UNL     1       0.560  10.222  19.563  0.00  0.00    +0.000 A 
ATOM     23  C   UNL     1       1.246   9.011  19.465  0.00  0.00    +0.000 A 
ATOM     24  C   UNL     1       1.325   8.160  20.570  0.00  0.00    +0.000 A 
ATOM     25  C   UNL     1       0.714   8.518  21.771  0.00  0.00    +0.000 A 
ENDBRANCH  17  24
ENDBRANCH   1  18
BRANCH   1  26
ATOM     26  O   UNL     1       0.689   3.848  20.632  0.00  0.00    +0.000 OA
ATOM     27  H   UNL     1       0.138   4.629  20.798  0.00  0.00    +0.000 HD
ENDBRANCH   1  26
TORSDOF 5
ENDMDL
MODEL 3
REMARK VINA RESULT:      -8.7      1.330      1.984
REMARK  Name = 
REMARK  6 active torsions:
REMARK  status: ('A' for Active; 'I' for Inactive)
REMARK    1  A    between atoms: C_1  and  C_2
REMARK    2  A    between atoms: C_6  and  C_7
REMARK    3  A    between atoms: C_8  and  C_9
REMARK    4  A    between atoms: C_9  and  O_10
REMARK    5  A    between atoms: N_17  and  C_18
REMARK    6  A    between atoms: C_23  and  C_24
REMARK                            x       y       z     vdW  Elec       q    Type
REMARK                         _______ _______ _______ _____ _____    ______ ____
ROOT
ATOM      1  C   UNL     1       1.829   4.287  20.012  0.00  0.00    +0.000 C 
ATOM      2  C   UNL     1       1.483   4.178  18.511  0.00  0.00    +0.000 C 
ATOM      3  C   UNL     1       2.710   4.004  17.591  0.00  0.00    +0.000 C 
ATOM      4  C   UNL     1       2.827   2.527  17.216  0.00  0.00    +0.000 C 
ATOM      5  C   UNL     1       3.501   1.899  18.440  0.00  0.00    +0.000 C 
ATOM      6  C   UNL     1       3.992   3.090  19.303  0.00  0.00    +0.000 C 
ATOM      7  C   UNL     1       3.026   3.412  20.452  0.00  0.00    +0.000 C 
ATOM      8  N   UNL     1       3.929   4.203  18.358  0.00  0.00    +0.000 N 
ENDROOT
BRANCH   8   9
ATOM      9  C   UNL     1       5.048   4.949  18.149  0.00  0.00    +0.000 A 
ATOM     10  N   UNL     1       6.224   4.282  18.362  0.00  0.00    +0.000 NA
ATOM     11  C   UNL     1       7.414   4.910  18.195  0.00  0.00    +0.000 A 
ATOM     12  C   UNL     1       7.529   6.215  17.779  0.00  0.00    +0.000 A 
ATOM     13  C   UNL     1       6.354   6.913  17.556  0.00  0.00    +0.000 A 
ATOM     14  C   UNL     1       5.106   6.286  17.757  0.00  0.00    +0.000 A 
BRANCH  14  15
ATOM     15  C   UNL     1       3.951   7.078  17.473  0.00  0.00    +0.000 C 
ATOM     16  N   UNL     1       3.042   7.759  17.230  0.00  0.00    +0.000 NA
ENDBRANCH  14  15
ENDBRANCH   8   9
BRANCH   1  18
ATOM     17  C   UNL     1       1.828   6.893  20.474  0.00  0.00    +0.000 C 
ATOM     18  C   UNL     1       2.037   5.727  20.277  0.00  0.00    +0.000 C 
BRANCH  17  24
ATOM     19  C   UNL     1       0.672  11.424  18.849  0.00  0.00    +0.000 C 
ATOM     20  C   UNL     1       0.707  10.414  19.957  0.00  0.00    +0.000 A 
ATOM     21  C   UNL     1       0.342  10.759  21.264  0.00  0.00    +0.000 A 
ATOM     22  C   UNL     1       0.422   9.817  22.292  0.00  0.00    +0.000 A 
ATOM     23  C   UNL     1       0.869   8.525  22.018  0.00  0.00    +0.000 A 
ATOM     24  C   UNL     1       1.232   8.170  20.716  0.00  0.00    +0.000 A 
ATOM     25  C   UNL     1       1.152   9.111  19.690  0.00  0.00    +0.000 A 
ENDBRANCH  17  24
ENDBRANCH   1  18
BRANCH   1  26
ATOM     26  O   UNL     1       0.648   3.891  20.724  0.00  0.00    +0.000 OA
ATOM     27  H   UNL     1       0.892   3.232  21.395  0.00  0.00    +0.000 HD
ENDBRANCH   1  26
TORSDOF 5
ENDMDL
MODEL 4
REMARK VINA RESULT:      -8.7      0.598      1.350
REMARK  Name = 
REMARK  6 active torsions:
REMARK  status: ('A' for Active; 'I' for Inactive)
REMARK    1  A    between atoms: C_1  and  C_2
REMARK    2  A    between atoms: C_6  and  C_7
REMARK    3  A    between atoms: C_8  and  C_9
REMARK    4  A    between atoms: C_9  and  O_10
REMARK    5  A    between atoms: N_17  and  C_18
REMARK    6  A    between atoms: C_23  and  C_24
REMARK                            x       y       z     vdW  Elec       q    Type
REMARK                         _______ _______ _______ _____ _____    ______ ____
ROOT
ATOM      1  C   UNL     1       1.842   4.134  19.865  0.00  0.00    +0.000 C 
ATOM      2  C   UNL     1       1.664   3.998  18.336  0.00  0.00    +0.000 C 
ATOM      3  C   UNL     1       2.973   3.715  17.570  0.00  0.00    +0.000 C 
ATOM      4  C   UNL     1       3.033   2.222  17.250  0.00  0.00    +0.000 C 
ATOM      5  C   UNL     1       3.520   1.594  18.560  0.00  0.00    +0.000 C 
ATOM      6  C   UNL     1       3.987   2.779  19.443  0.00  0.00    +0.000 C 
ATOM      7  C   UNL     1       2.919   3.200  20.463  0.00  0.00    +0.000 C 
ATOM      8  N   UNL     1       4.107   3.862  18.469  0.00  0.00    +0.000 N 
ENDROOT
BRANCH   8   9
ATOM      9  C   UNL     1       5.290   4.527  18.372  0.00  0.00    +0.000 A 
ATOM     10  N   UNL     1       5.822   4.920  19.571  0.00  0.00    +0.000 NA
ATOM     11  C   UNL     1       6.996   5.598  19.616  0.00  0.00    +0.000 A 
ATOM     12  C   UNL     1       7.737   5.903  18.500  0.00  0.00    +0.000 A 
ATOM     13  C   UNL     1       7.222   5.517  17.274  0.00  0.00    +0.000 A 
ATOM     14  C   UNL     1       5.985   4.840  17.204  0.00  0.00    +0.000 A 
BRANCH  14  15
ATOM     15  C   UNL     1       5.550   4.457  15.898  0.00  0.00    +0.000 C 
ATOM     16  N   UNL     1       5.214   4.189  14.819  0.00  0.00    +0.000 NA
ENDBRANCH  14  15
ENDBRANCH   8   9
BRANCH   1  18
ATOM     17  C   UNL     1       1.958   6.743  20.298  0.00  0.00    +0.000 C 
ATOM     18  C   UNL     1       2.115   5.566  20.115  0.00  0.00    +0.000 C 
BRANCH  17  24
ATOM     19  C   UNL     1       1.026  11.308  18.627  0.00  0.00    +0.000 C 
ATOM     20  C   UNL     1       1.006  10.307  19.744  0.00  0.00    +0.000 A 
ATOM     21  C   UNL     1       0.648  10.680  21.045  0.00  0.00    +0.000 A 
ATOM     22  C   UNL     1       0.676   9.745  22.081  0.00  0.00    +0.000 A 
ATOM     23  C   UNL     1       1.065   8.430  21.821  0.00  0.00    +0.000 A 
ATOM     24  C   UNL     1       1.421   8.048  20.525  0.00  0.00    +0.000 A 
ATOM     25  C   UNL     1       1.392   8.983  19.491  0.00  0.00    +0.000 A 
ENDBRANCH  17  24
ENDBRANCH   1  18
BRANCH   1  26
ATOM     26  O   UNL     1       0.564   3.838  20.445  0.00  0.00    +0.000 OA
ATOM     27  H   UNL     1      -0.125   3.979  19.775  0.00  0.00    +0.000 HD
ENDBRANCH   1  26
TORSDOF 5
ENDMDL
MODEL 5
REMARK VINA RESULT:      -8.5      1.218      1.504
REMARK  Name = 
REMARK  6 active torsions:
REMARK  status: ('A' for Active; 'I' for Inactive)
REMARK    1  A    between atoms: C_1  and  C_2
REMARK    2  A    between atoms: C_6  and  C_7
REMARK    3  A    between atoms: C_8  and  C_9
REMARK    4  A    between atoms: C_9  and  O_10
REMARK    5  A    between atoms: N_17  and  C_18
REMARK    6  A    between atoms: C_23  and  C_24
REMARK                            x       y       z     vdW  Elec       q    Type
REMARK                         _______ _______ _______ _____ _____    ______ ____
ROOT
ATOM      1  C   UNL     1       2.128   4.738  19.494  0.00  0.00    +0.000 C 
ATOM      2  C   UNL     1       2.171   4.525  17.964  0.00  0.00    +0.000 C 
ATOM      3  C   UNL     1       3.588   4.294  17.399  0.00  0.00    +0.000 C 
ATOM      4  C   UNL     1       3.778   2.795  17.166  0.00  0.00    +0.000 C 
ATOM      5  C   UNL     1       4.113   2.257  18.561  0.00  0.00    +0.000 C 
ATOM      6  C   UNL     1       4.385   3.507  19.437  0.00  0.00    +0.000 C 
ATOM      7  C   UNL     1       3.164   3.902  20.280  0.00  0.00    +0.000 C 
ATOM      8  N   UNL     1       4.576   4.552  18.434  0.00  0.00    +0.000 N 
ENDROOT
BRANCH   8   9
ATOM      9  C   UNL     1       5.721   5.286  18.465  0.00  0.00    +0.000 A 
ATOM     10  N   UNL     1       6.508   5.069  19.563  0.00  0.00    +0.000 NA
ATOM     11  C   UNL     1       7.675   5.742  19.721  0.00  0.00    +0.000 A 
ATOM     12  C   UNL     1       8.161   6.641  18.802  0.00  0.00    +0.000 A 
ATOM     13  C   UNL     1       7.384   6.879  17.680  0.00  0.00    +0.000 A 
ATOM     14  C   UNL     1       6.151   6.214  17.515  0.00  0.00    +0.000 A 
BRANCH  14  15
ATOM     15  C   UNL     1       5.435   6.503  16.313  0.00  0.00    +0.000 C 
ATOM     16  N   UNL     1       4.890   6.771  15.322  0.00  0.00    +0.000 NA
ENDBRANCH  14  15
ENDBRANCH   8   9
BRANCH   1  18
ATOM     17  C   UNL     1       2.032   7.346  19.939  0.00  0.00    +0.000 C 
ATOM     18  C   UNL     1       2.280   6.194  19.705  0.00  0.00    +0.000 C 
BRANCH  17  24
ATOM     19  C   UNL     1      -0.603   9.994  23.186  0.00  0.00    +0.000 C 
ATOM     20  C   UNL     1       0.071   9.878  21.852  0.00  0.00    +0.000 A 
ATOM     21  C   UNL     1      -0.057  10.883  20.885  0.00  0.00    +0.000 A 
ATOM     22  C   UNL     1       0.542  10.740  19.633  0.00  0.00    +0.000 A 
ATOM     23  C   UNL     1       1.272   9.588  19.339  0.00  0.00    +0.000 A 
ATOM     24  C   UNL     1       1.409   8.581  20.299  0.00  0.00    +0.000 A 
ATOM     25  C   UNL     1       0.811   8.726  21.550  0.00  0.00    +0.000 A 
ENDBRANCH  17  24
ENDBRANCH   1  18
BRANCH   1  26
ATOM     26  O   UNL     1       0.801   4.386  19.909  0.00  0.00    +0.000 OA
ATOM     27  H   UNL     1       0.695   3.424  19.841  0.00  0.00    +0.000 HD
ENDBRANCH   1  26
TORSDOF 5
ENDMDL
MODEL 6
REMARK VINA RESULT:      -8.0      0.824      2.024
REMARK  Name = 
REMARK  6 active torsions:
REMARK  status: ('A' for Active; 'I' for Inactive)
REMARK    1  A    between atoms: C_1  and  C_2
REMARK    2  A    between atoms: C_6  and  C_7
REMARK    3  A    between atoms: C_8  and  C_9
REMARK    4  A    between atoms: C_9  and  O_10
REMARK    5  A    between atoms: N_17  and  C_18
REMARK    6  A    between atoms: C_23  and  C_24
REMARK                            x       y       z     vdW  Elec       q    Type
REMARK                         _______ _______ _______ _____ _____    ______ ____
ROOT
ATOM      1  C   UNL     1       2.481   4.278  19.887  0.00  0.00    +0.000 C 
ATOM      2  C   UNL     1       1.649   3.809  18.672  0.00  0.00    +0.000 C 
ATOM      3  C   UNL     1       2.496   3.302  17.486  0.00  0.00    +0.000 C 
ATOM      4  C   UNL     1       2.498   1.774  17.512  0.00  0.00    +0.000 C 
ATOM      5  C   UNL     1       3.554   1.436  18.569  0.00  0.00    +0.000 C 
ATOM      6  C   UNL     1       4.292   2.767  18.863  0.00  0.00    +0.000 C 
ATOM      7  C   UNL     1       3.766   3.455  20.131  0.00  0.00    +0.000 C 
ATOM      8  N   UNL     1       3.899   3.596  17.725  0.00  0.00    +0.000 N 
ENDROOT
BRANCH   8   9
ATOM      9  C   UNL     1       4.873   4.168  16.966  0.00  0.00    +0.000 A 
ATOM     10  N   UNL     1       4.702   4.020  15.615  0.00  0.00    +0.000 NA
ATOM     11  C   UNL     1       5.604   4.536  14.744  0.00  0.00    +0.000 A 
ATOM     12  C   UNL     1       6.707   5.257  15.136  0.00  0.00    +0.000 A 
ATOM     13  C   UNL     1       6.904   5.421  16.497  0.00  0.00    +0.000 A 
ATOM     14  C   UNL     1       5.994   4.862  17.419  0.00  0.00    +0.000 A 
BRANCH  14  15
ATOM     15  C   UNL     1       6.265   5.111  18.800  0.00  0.00    +0.000 C 
ATOM     16  N   UNL     1       6.520   5.346  19.908  0.00  0.00    +0.000 NA
ENDBRANCH  14  15
ENDBRANCH   8   9
BRANCH   1  18
ATOM     17  C   UNL     1       2.586   6.891  19.473  0.00  0.00    +0.000 C 
ATOM     18  C   UNL     1       2.747   5.716  19.665  0.00  0.00    +0.000 C 
BRANCH  17  24
ATOM     19  C   UNL     1      -0.261  10.582  21.137  0.00  0.00    +0.000 C 
ATOM     20  C   UNL     1       0.609   9.999  20.064  0.00  0.00    +0.000 A 
ATOM     21  C   UNL     1       0.748  10.628  18.821  0.00  0.00    +0.000 A 
ATOM     22  C   UNL     1       1.528  10.049  17.819  0.00  0.00    +0.000 A 
ATOM     23  C   UNL     1       2.173   8.835  18.054  0.00  0.00    +0.000 A 
ATOM     24  C   UNL     1       2.044   8.201  19.293  0.00  0.00    +0.000 A 
ATOM     25  C   UNL     1       1.265   8.781  20.294  0.00  0.00    +0.000 A 
ENDBRANCH  17  24
ENDBRANCH   1  18
BRANCH   1  26
ATOM     26  O   UNL     1       1.614   4.179  21.027  0.00  0.00    +0.000 OA
ATOM     27  H   UNL     1       2.127   3.849  21.782  0.00  0.00    +0.000 HD
ENDBRANCH   1  26
TORSDOF 5
ENDMDL
MODEL 7
REMARK VINA RESULT:      -7.8      1.234      1.404
REMARK  Name = 
REMARK  6 active torsions:
REMARK  status: ('A' for Active; 'I' for Inactive)
REMARK    1  A    between atoms: C_1  and  C_2
REMARK    2  A    between atoms: C_6  and  C_7
REMARK    3  A    between atoms: C_8  and  C_9
REMARK    4  A    between atoms: C_9  and  O_10
REMARK    5  A    between atoms: N_17  and  C_18
REMARK    6  A    between atoms: C_23  and  C_24
REMARK                            x       y       z     vdW  Elec       q    Type
REMARK                         _______ _______ _______ _____ _____    ______ ____
ROOT
ATOM      1  C   UNL     1       2.173   4.674  18.733  0.00  0.00    +0.000 C 
ATOM      2  C   UNL     1       2.616   3.945  17.445  0.00  0.00    +0.000 C 
ATOM      3  C   UNL     1       4.133   3.672  17.365  0.00  0.00    +0.000 C 
ATOM      4  C   UNL     1       4.382   2.212  17.746  0.00  0.00    +0.000 C 
ATOM      5  C   UNL     1       4.342   2.231  19.277  0.00  0.00    +0.000 C 
ATOM      6  C   UNL     1       4.370   3.728  19.678  0.00  0.00    +0.000 C 
ATOM      7  C   UNL     1       2.969   4.270  19.996  0.00  0.00    +0.000 C 
ATOM      8  N   UNL     1       4.814   4.370  18.443  0.00  0.00    +0.000 N 
ENDROOT
BRANCH   8   9
ATOM      9  C   UNL     1       5.908   5.178  18.483  0.00  0.00    +0.000 A 
ATOM     10  N   UNL     1       6.720   4.984  19.567  0.00  0.00    +0.000 NA
ATOM     11  C   UNL     1       7.842   5.728  19.732  0.00  0.00    +0.000 A 
ATOM     12  C   UNL     1       8.257   6.682  18.833  0.00  0.00    +0.000 A 
ATOM     13  C   UNL     1       7.453   6.898  17.726  0.00  0.00    +0.000 A 
ATOM     14  C   UNL     1       6.264   6.157  17.555  0.00  0.00    +0.000 A 
BRANCH  14  15
ATOM     15  C   UNL     1       5.518   6.431  16.368  0.00  0.00    +0.000 C 
ATOM     16  N   UNL     1       4.952   6.672  15.382  0.00  0.00    +0.000 NA
ENDBRANCH  14  15
ENDBRANCH   8   9
BRANCH   1  18
ATOM     17  C   UNL     1       2.122   7.310  18.502  0.00  0.00    +0.000 C 
ATOM     18  C   UNL     1       2.259   6.119  18.431  0.00  0.00    +0.000 C 
BRANCH  17  24
ATOM     19  C   UNL     1       0.071  10.387  21.793  0.00  0.00    +0.000 C 
ATOM     20  C   UNL     1       0.757  10.165  20.478  0.00  0.00    +0.000 A 
ATOM     21  C   UNL     1       0.925  11.211  19.563  0.00  0.00    +0.000 A 
ATOM     22  C   UNL     1       1.529  10.978  18.326  0.00  0.00    +0.000 A 
ATOM     23  C   UNL     1       1.966   9.694  17.997  0.00  0.00    +0.000 A 
ATOM     24  C   UNL     1       1.806   8.645  18.906  0.00  0.00    +0.000 A 
ATOM     25  C   UNL     1       1.204   8.879  20.141  0.00  0.00    +0.000 A 
ENDBRANCH  17  24
ENDBRANCH   1  18
BRANCH   1  26
ATOM     26  O   UNL     1       0.784   4.360  18.912  0.00  0.00    +0.000 OA
ATOM     27  H   UNL     1       0.708   3.449  19.237  0.00  0.00    +0.000 HD
ENDBRANCH   1  26
TORSDOF 5
ENDMDL
MODEL 8
REMARK VINA RESULT:      -7.7      3.403      6.014
REMARK  Name = 
REMARK  6 active torsions:
REMARK  status: ('A' for Active; 'I' for Inactive)
REMARK    1  A    between atoms: C_1  and  C_2
REMARK    2  A    between atoms: C_6  and  C_7
REMARK    3  A    between atoms: C_8  and  C_9
REMARK    4  A    between atoms: C_9  and  O_10
REMARK    5  A    between atoms: N_17  and  C_18
REMARK    6  A    between atoms: C_23  and  C_24
REMARK                            x       y       z     vdW  Elec       q    Type
REMARK                         _______ _______ _______ _____ _____    ______ ____
ROOT
ATOM      1  C   UNL     1       6.704   5.398  16.990  0.00  0.00    +0.000 C 
ATOM      2  C   UNL     1       6.717   4.948  18.468  0.00  0.00    +0.000 C 
ATOM      3  C   UNL     1       5.332   4.975  19.148  0.00  0.00    +0.000 C 
ATOM      4  C   UNL     1       4.781   3.550  19.181  0.00  0.00    +0.000 C 
ATOM      5  C   UNL     1       4.220   3.351  17.770  0.00  0.00    +0.000 C 
ATOM      6  C   UNL     1       4.216   4.758  17.119  0.00  0.00    +0.000 C 
ATOM      7  C   UNL     1       5.435   4.981  16.211  0.00  0.00    +0.000 C 
ATOM      8  N   UNL     1       4.372   5.635  18.278  0.00  0.00    +0.000 N 
ENDROOT
BRANCH   8   9
ATOM      9  C   UNL     1       3.455   6.619  18.481  0.00  0.00    +0.000 A 
ATOM     10  N   UNL     1       3.531   7.660  17.595  0.00  0.00    +0.000 NA
ATOM     11  C   UNL     1       2.679   8.711  17.690  0.00  0.00    +0.000 A 
ATOM     12  C   UNL     1       1.681   8.794  18.631  0.00  0.00    +0.000 A 
ATOM     13  C   UNL     1       1.582   7.753  19.540  0.00  0.00    +0.000 A 
ATOM     14  C   UNL     1       2.481   6.668  19.478  0.00  0.00    +0.000 A 
BRANCH  14  15
ATOM     15  C   UNL     1       2.281   5.629  20.439  0.00  0.00    +0.000 C 
ATOM     16  N   UNL     1       2.135   4.752  21.187  0.00  0.00    +0.000 NA
ENDBRANCH  14  15
ENDBRANCH   8   9
BRANCH   1  18
ATOM     17  C   UNL     1       7.294   7.956  17.330  0.00  0.00    +0.000 C 
ATOM     18  C   UNL     1       6.916   6.861  17.010  0.00  0.00    +0.000 C 
BRANCH  17  24
ATOM     19  C   UNL     1       8.350  12.791  17.350  0.00  0.00    +0.000 C 
ATOM     20  C   UNL     1       8.517  11.426  17.946  0.00  0.00    +0.000 A 
ATOM     21  C   UNL     1       9.436  11.192  18.977  0.00  0.00    +0.000 A 
ATOM     22  C   UNL     1       9.609   9.906  19.491  0.00  0.00    +0.000 A 
ATOM     23  C   UNL     1       8.864   8.845  18.976  0.00  0.00    +0.000 A 
ATOM     24  C   UNL     1       7.942   9.069  17.950  0.00  0.00    +0.000 A 
ATOM     25  C   UNL     1       7.769  10.354  17.437  0.00  0.00    +0.000 A 
ENDBRANCH  17  24
ENDBRANCH   1  18
BRANCH   1  26
ATOM     26  O   UNL     1       7.863   4.810  16.383  0.00  0.00    +0.000 OA
ATOM     27  H   UNL     1       7.578   4.231  15.658  0.00  0.00    +0.000 HD
ENDBRANCH   1  26
TORSDOF 5
ENDMDL
MODEL 9
REMARK VINA RESULT:      -7.7      2.431      6.503
REMARK  Name = 
REMARK  6 active torsions:
REMARK  status: ('A' for Active; 'I' for Inactive)
REMARK    1  A    between atoms: C_1  and  C_2
REMARK    2  A    between atoms: C_6  and  C_7
REMARK    3  A    between atoms: C_8  and  C_9
REMARK    4  A    between atoms: C_9  and  O_10
REMARK    5  A    between atoms: N_17  and  C_18
REMARK    6  A    between atoms: C_23  and  C_24
REMARK                            x       y       z     vdW  Elec       q    Type
REMARK                         _______ _______ _______ _____ _____    ______ ____
ROOT
ATOM      1  C   UNL     1       3.643   3.010  18.225  0.00  0.00    +0.000 C 
ATOM      2  C   UNL     1       4.063   3.351  19.673  0.00  0.00    +0.000 C 
ATOM      3  C   UNL     1       3.365   4.597  20.255  0.00  0.00    +0.000 C 
ATOM      4  C   UNL     1       2.227   4.134  21.166  0.00  0.00    +0.000 C 
ATOM      5  C   UNL     1       1.096   3.806  20.186  0.00  0.00    +0.000 C 
ATOM      6  C   UNL     1       1.548   4.378  18.818  0.00  0.00    +0.000 C 
ATOM      7  C   UNL     1       2.158   3.300  17.910  0.00  0.00    +0.000 C 
ATOM      8  N   UNL     1       2.630   5.283  19.204  0.00  0.00    +0.000 N 
ENDROOT
BRANCH   8   9
ATOM      9  C   UNL     1       2.567   6.583  18.809  0.00  0.00    +0.000 A 
ATOM     10  N   UNL     1       3.183   6.846  17.615  0.00  0.00    +0.000 NA
ATOM     11  C   UNL     1       3.200   8.104  17.109  0.00  0.00    +0.000 A 
ATOM     12  C   UNL     1       2.589   9.174  17.720  0.00  0.00    +0.000 A 
ATOM     13  C   UNL     1       1.958   8.935  18.929  0.00  0.00    +0.000 A 
ATOM     14  C   UNL     1       1.959   7.640  19.488  0.00  0.00    +0.000 A 
BRANCH  14  15
ATOM     15  C   UNL     1       1.258   7.486  20.723  0.00  0.00    +0.000 C 
ATOM     16  N   UNL     1       0.647   7.347  21.701  0.00  0.00    +0.000 NA
ENDBRANCH  14  15
ENDBRANCH   8   9
BRANCH   1  18
ATOM     17  C   UNL     1       5.212   4.092  16.388  0.00  0.00    +0.000 C 
ATOM     18  C   UNL     1       4.576   3.750  17.348  0.00  0.00    +0.000 C 
BRANCH  17  24
ATOM     19  C   UNL     1       5.267   2.798  11.611  0.00  0.00    +0.000 C 
ATOM     20  C   UNL     1       5.846   3.587  12.746  0.00  0.00    +0.000 A 
ATOM     21  C   UNL     1       7.027   4.323  12.590  0.00  0.00    +0.000 A 
ATOM     22  C   UNL     1       7.575   5.017  13.669  0.00  0.00    +0.000 A 
ATOM     23  C   UNL     1       6.947   4.977  14.914  0.00  0.00    +0.000 A 
ATOM     24  C   UNL     1       5.766   4.247  15.079  0.00  0.00    +0.000 A 
ATOM     25  C   UNL     1       5.218   3.555  14.000  0.00  0.00    +0.000 A 
ENDBRANCH  17  24
ENDBRANCH   1  18
BRANCH   1  26
ATOM     26  O   UNL     1       3.915   1.612  18.049  0.00  0.00    +0.000 OA
ATOM     27  H   UNL     1       4.510   1.501  17.290  0.00  0.00    +0.000 HD
ENDBRANCH   1  26
TORSDOF 5
ENDMDL
