MODEL 1
REMARK VINA RESULT:      -7.6      0.000      0.000
REMARK  Name = 
REMARK  9 active torsions:
REMARK  status: ('A' for Active; 'I' for Inactive)
REMARK    1  A    between atoms: C_2  and  C_3
REMARK    2  A    between atoms: C_3  and  N_4
REMARK    3  A    between atoms: N_7  and  C_8
REMARK    4  A    between atoms: C_8  and  C_9
REMARK    5  A    between atoms: C_9  and  C_10
REMARK    6  A    between atoms: C_10  and  C_11
REMARK    7  A    between atoms: C_11  and  C_12
REMARK    8  A    between atoms: C_12  and  C_13
REMARK    9  A    between atoms: C_13  and  N_14
REMARK                            x       y       z     vdW  Elec       q    Type
REMARK                         _______ _______ _______ _____ _____    ______ ____
ROOT
ATOM      1  N   UNL     1      10.312  12.612  19.011  0.00  0.00    +0.000 N 
ATOM      2  C   UNL     1      10.655  12.167  20.373  0.00  0.00    +0.000 C 
ATOM      3  C   UNL     1       9.550  12.366  21.430  0.00  0.00    +0.000 C 
ATOM      4  C   UNL     1       9.537  13.794  21.999  0.00  0.00    +0.000 C 
ATOM      5  C   UNL     1       8.247  14.532  21.632  0.00  0.00    +0.000 C 
ATOM      6  C   UNL     1       8.507  16.029  21.508  0.00  0.00    +0.000 C 
ATOM      7  C   UNL     1       7.825  16.627  20.276  0.00  0.00    +0.000 C 
ATOM      8  C   UNL     1       8.758  17.607  19.555  0.00  0.00    +0.000 C 
ATOM      9  C   UNL     1       9.179  17.108  18.176  0.00  0.00    +0.000 C 
ATOM     10  N   UNL     1      10.184  16.055  18.240  0.00  0.00    +0.000 N 
ATOM     11  C   UNL     1      10.583  15.378  17.127  0.00  0.00    +0.000 C 
ATOM     12  N   UNL     1      10.716  15.920  15.968  0.00  0.00    +0.000 NA
ATOM     13  N   UNL     1      10.822  14.038  17.209  0.00  0.00    +0.000 N 
ATOM     14  C   UNL     1      11.212  13.496  18.397  0.00  0.00    +0.000 C 
ATOM     15  O   UNL     1      12.264  13.829  18.919  0.00  0.00    +0.000 OA
ATOM     16  H   UNL     1      10.126  15.478  19.078  0.00  0.00    +0.000 HD
ATOM     17  H   UNL     1      10.601  16.928  16.101  0.00  0.00    +0.000 HD
ATOM     18  H   UNL     1      11.002  13.550  16.348  0.00  0.00    +0.000 HD
ENDROOT
BRANCH   1  19
ATOM     19  C   UNL     1       9.150  11.992  18.326  0.00  0.00    +0.000 C 
BRANCH  19  20
ATOM     20  C   UNL     1       9.413  10.551  17.971  0.00  0.00    +0.000 C 
BRANCH  20  21
ATOM     21  C   UNL     1       8.677   9.459  18.741  0.00  0.00    +0.000 C 
BRANCH  21  22
ATOM     22  C   UNL     1       8.056   8.473  17.726  0.00  0.00    +0.000 C 
BRANCH  22  23
ATOM     23  C   UNL     1       7.911   7.069  18.347  0.00  0.00    +0.000 C 
BRANCH  23  24
ATOM     24  C   UNL     1       6.698   6.293  17.830  0.00  0.00    +0.000 C 
BRANCH  24  28
ATOM     25  N   UNL     1       5.256   3.302  19.437  0.00  0.00    +0.000 N 
ATOM     26  C   UNL     1       5.326   4.558  18.893  0.00  0.00    +0.000 C 
ATOM     27  N   UNL     1       4.318   5.344  18.741  0.00  0.00    +0.000 NA
ATOM     28  N   UNL     1       6.561   4.981  18.479  0.00  0.00    +0.000 N 
ATOM     29  H   UNL     1       6.069   2.932  19.908  0.00  0.00    +0.000 HD
ATOM     30  H   UNL     1       3.489   4.940  19.147  0.00  0.00    +0.000 HD
ATOM     31  H   UNL     1       7.365   4.378  18.534  0.00  0.00    +0.000 HD
BRANCH  25  32
ATOM     32  C   UNL     1       4.038   2.477  19.455  0.00  0.00    +0.000 C 
BRANCH  32  34
ATOM     33  C   UNL     1       2.256   3.127  21.548  0.00  0.00    +0.000 C 
ATOM     34  C   UNL     1       3.079   2.827  20.581  0.00  0.00    +0.000 C 
ENDBRANCH  32  34
ENDBRANCH  25  32
ENDBRANCH  24  28
ENDBRANCH  23  24
ENDBRANCH  22  23
ENDBRANCH  21  22
ENDBRANCH  20  21
ENDBRANCH  19  20
ENDBRANCH   1  19
TORSDOF 9
ENDMDL
MODEL 2
REMARK VINA RESULT:      -7.6      3.464     11.501
REMARK  Name = 
REMARK  9 active torsions:
REMARK  status: ('A' for Active; 'I' for Inactive)
REMARK    1  A    between atoms: C_2  and  C_3
REMARK    2  A    between atoms: C_3  and  N_4
REMARK    3  A    between atoms: N_7  and  C_8
REMARK    4  A    between atoms: C_8  and  C_9
REMARK    5  A    between atoms: C_9  and  C_10
REMARK    6  A    between atoms: C_10  and  C_11
REMARK    7  A    between atoms: C_11  and  C_12
REMARK    8  A    between atoms: C_12  and  C_13
REMARK    9  A    between atoms: C_13  and  N_14
REMARK                            x       y       z     vdW  Elec       q    Type
REMARK                         _______ _______ _______ _____ _____    ______ ____
ROOT
ATOM      1  N   UNL     1       5.054   5.183  17.542  0.00  0.00    +0.000 N 
ATOM      2  C   UNL     1       4.536   6.419  16.930  0.00  0.00    +0.000 C 
ATOM      3  C   UNL     1       3.986   7.465  17.921  0.00  0.00    +0.000 C 
ATOM      4  C   UNL     1       2.535   7.171  18.333  0.00  0.00    +0.000 C 
ATOM      5  C   UNL     1       2.433   6.838  19.824  0.00  0.00    +0.000 C 
ATOM      6  C   UNL     1       1.278   5.876  20.077  0.00  0.00    +0.000 C 
ATOM      7  C   UNL     1       1.668   4.756  21.043  0.00  0.00    +0.000 C 
ATOM      8  C   UNL     1       1.131   3.404  20.560  0.00  0.00    +0.000 C 
ATOM      9  C   UNL     1       2.245   2.444  20.150  0.00  0.00    +0.000 C 
ATOM     10  N   UNL     1       2.829   2.778  18.857  0.00  0.00    +0.000 N 
ATOM     11  C   UNL     1       3.930   2.133  18.382  0.00  0.00    +0.000 C 
ATOM     12  N   UNL     1       4.157   0.878  18.557  0.00  0.00    +0.000 NA
ATOM     13  N   UNL     1       4.886   2.842  17.716  0.00  0.00    +0.000 N 
ATOM     14  C   UNL     1       4.537   3.977  17.047  0.00  0.00    +0.000 C 
ATOM     15  O   UNL     1       3.756   3.932  16.110  0.00  0.00    +0.000 OA
ATOM     16  H   UNL     1       2.804   3.773  18.637  0.00  0.00    +0.000 HD
ATOM     17  H   UNL     1       3.311   0.483  18.976  0.00  0.00    +0.000 HD
ATOM     18  H   UNL     1       5.737   2.358  17.480  0.00  0.00    +0.000 HD
ENDROOT
BRANCH   1  19
ATOM     19  C   UNL     1       6.178   5.278  18.507  0.00  0.00    +0.000 C 
BRANCH  19  20
ATOM     20  C   UNL     1       7.406   5.882  17.878  0.00  0.00    +0.000 C 
BRANCH  20  21
ATOM     21  C   UNL     1       8.003   7.142  18.496  0.00  0.00    +0.000 C 
BRANCH  21  22
ATOM     22  C   UNL     1       8.063   8.243  17.412  0.00  0.00    +0.000 C 
BRANCH  22  23
ATOM     23  C   UNL     1       7.972   9.644  18.051  0.00  0.00    +0.000 C 
BRANCH  23  24
ATOM     24  C   UNL     1       9.279  10.111  18.693  0.00  0.00    +0.000 C 
BRANCH  24  28
ATOM     25  N   UNL     1      10.496  13.526  18.009  0.00  0.00    +0.000 N 
ATOM     26  C   UNL     1      10.464  12.155  18.029  0.00  0.00    +0.000 C 
ATOM     27  N   UNL     1      11.342  11.396  17.473  0.00  0.00    +0.000 NA
ATOM     28  N   UNL     1       9.410  11.575  18.684  0.00  0.00    +0.000 N 
ATOM     29  H   UNL     1      10.073  14.032  18.772  0.00  0.00    +0.000 HD
ATOM     30  H   UNL     1      12.094  11.947  17.089  0.00  0.00    +0.000 HD
ATOM     31  H   UNL     1       8.676  12.133  19.088  0.00  0.00    +0.000 HD
BRANCH  25  32
ATOM     32  C   UNL     1      11.186  14.319  16.979  0.00  0.00    +0.000 C 
BRANCH  32  34
ATOM     33  C   UNL     1      10.686  17.093  17.159  0.00  0.00    +0.000 C 
ATOM     34  C   UNL     1      10.917  15.812  17.076  0.00  0.00    +0.000 C 
ENDBRANCH  32  34
ENDBRANCH  25  32
ENDBRANCH  24  28
ENDBRANCH  23  24
ENDBRANCH  22  23
ENDBRANCH  21  22
ENDBRANCH  20  21
ENDBRANCH  19  20
ENDBRANCH   1  19
TORSDOF 9
ENDMDL
MODEL 3
REMARK VINA RESULT:      -7.4      8.172     10.333
REMARK  Name = 
REMARK  9 active torsions:
REMARK  status: ('A' for Active; 'I' for Inactive)
REMARK    1  A    between atoms: C_2  and  C_3
REMARK    2  A    between atoms: C_3  and  N_4
REMARK    3  A    between atoms: N_7  and  C_8
REMARK    4  A    between atoms: C_8  and  C_9
REMARK    5  A    between atoms: C_9  and  C_10
REMARK    6  A    between atoms: C_10  and  C_11
REMARK    7  A    between atoms: C_11  and  C_12
REMARK    8  A    between atoms: C_12  and  C_13
REMARK    9  A    between atoms: C_13  and  N_14
REMARK                            x       y       z     vdW  Elec       q    Type
REMARK                         _______ _______ _______ _____ _____    ______ ____
ROOT
ATOM      1  N   UNL     1      -0.528  11.493  19.641  0.00  0.00    +0.000 N 
ATOM      2  C   UNL     1      -0.043  12.420  20.680  0.00  0.00    +0.000 C 
ATOM      3  C   UNL     1      -0.835  12.398  22.003  0.00  0.00    +0.000 C 
ATOM      4  C   UNL     1      -2.097  13.273  21.942  0.00  0.00    +0.000 C 
ATOM      5  C   UNL     1      -3.369  12.430  22.063  0.00  0.00    +0.000 C 
ATOM      6  C   UNL     1      -4.515  13.083  21.298  0.00  0.00    +0.000 C 
ATOM      7  C   UNL     1      -5.311  12.062  20.482  0.00  0.00    +0.000 C 
ATOM      8  C   UNL     1      -5.637  12.611  19.088  0.00  0.00    +0.000 C 
ATOM      9  C   UNL     1      -4.921  11.849  17.976  0.00  0.00    +0.000 C 
ATOM     10  N   UNL     1      -3.507  12.191  17.880  0.00  0.00    +0.000 N 
ATOM     11  C   UNL     1      -2.663  11.517  17.050  0.00  0.00    +0.000 C 
ATOM     12  N   UNL     1      -2.999  11.079  15.887  0.00  0.00    +0.000 NA
ATOM     13  N   UNL     1      -1.395  11.237  17.468  0.00  0.00    +0.000 N 
ATOM     14  C   UNL     1      -0.794  12.051  18.382  0.00  0.00    +0.000 C 
ATOM     15  O   UNL     1      -0.571  13.223  18.121  0.00  0.00    +0.000 OA
ATOM     16  H   UNL     1      -3.086  12.464  18.767  0.00  0.00    +0.000 HD
ATOM     17  H   UNL     1      -3.930  11.456  15.690  0.00  0.00    +0.000 HD
ATOM     18  H   UNL     1      -0.838  10.640  16.880  0.00  0.00    +0.000 HD
ENDROOT
BRANCH   1  19
ATOM     19  C   UNL     1      -0.552  10.038  19.934  0.00  0.00    +0.000 C 
BRANCH  19  20
ATOM     20  C   UNL     1       0.815   9.418  19.801  0.00  0.00    +0.000 C 
BRANCH  20  21
ATOM     21  C   UNL     1       1.491   9.417  18.434  0.00  0.00    +0.000 C 
BRANCH  21  22
ATOM     22  C   UNL     1       2.165   8.042  18.218  0.00  0.00    +0.000 C 
BRANCH  22  23
ATOM     23  C   UNL     1       2.302   7.285  19.555  0.00  0.00    +0.000 C 
BRANCH  23  24
ATOM     24  C   UNL     1       2.708   5.820  19.391  0.00  0.00    +0.000 C 
BRANCH  24  28
ATOM     25  N   UNL     1       6.338   5.164  19.339  0.00  0.00    +0.000 N 
ATOM     26  C   UNL     1       5.057   5.324  18.879  0.00  0.00    +0.000 C 
ATOM     27  N   UNL     1       4.713   5.263  17.640  0.00  0.00    +0.000 NA
ATOM     28  N   UNL     1       4.092   5.577  19.820  0.00  0.00    +0.000 N 
ATOM     29  H   UNL     1       6.477   4.804  20.271  0.00  0.00    +0.000 HD
ATOM     30  H   UNL     1       5.500   5.006  17.066  0.00  0.00    +0.000 HD
ATOM     31  H   UNL     1       4.328   5.682  20.792  0.00  0.00    +0.000 HD
BRANCH  25  32
ATOM     32  C   UNL     1       7.542   5.407  18.528  0.00  0.00    +0.000 C 
BRANCH  32  34
ATOM     33  C   UNL     1       7.808   8.082  17.661  0.00  0.00    +0.000 C 
ATOM     34  C   UNL     1       7.685   6.846  18.061  0.00  0.00    +0.000 C 
ENDBRANCH  32  34
ENDBRANCH  25  32
ENDBRANCH  24  28
ENDBRANCH  23  24
ENDBRANCH  22  23
ENDBRANCH  21  22
ENDBRANCH  20  21
ENDBRANCH  19  20
ENDBRANCH   1  19
TORSDOF 9
ENDMDL
MODEL 4
REMARK VINA RESULT:      -7.4      3.203     11.455
REMARK  Name = 
REMARK  9 active torsions:
REMARK  status: ('A' for Active; 'I' for Inactive)
REMARK    1  A    between atoms: C_2  and  C_3
REMARK    2  A    between atoms: C_3  and  N_4
REMARK    3  A    between atoms: N_7  and  C_8
REMARK    4  A    between atoms: C_8  and  C_9
REMARK    5  A    between atoms: C_9  and  C_10
REMARK    6  A    between atoms: C_10  and  C_11
REMARK    7  A    between atoms: C_11  and  C_12
REMARK    8  A    between atoms: C_12  and  C_13
REMARK    9  A    between atoms: C_13  and  N_14
REMARK                            x       y       z     vdW  Elec       q    Type
REMARK                         _______ _______ _______ _____ _____    ______ ____
ROOT
ATOM      1  N   UNL     1       4.974   5.094  17.328  0.00  0.00    +0.000 N 
ATOM      2  C   UNL     1       4.444   6.338  16.741  0.00  0.00    +0.000 C 
ATOM      3  C   UNL     1       4.007   7.411  17.758  0.00  0.00    +0.000 C 
ATOM      4  C   UNL     1       2.587   7.167  18.292  0.00  0.00    +0.000 C 
ATOM      5  C   UNL     1       2.597   6.855  19.791  0.00  0.00    +0.000 C 
ATOM      6  C   UNL     1       1.439   5.932  20.151  0.00  0.00    +0.000 C 
ATOM      7  C   UNL     1       1.874   4.813  21.098  0.00  0.00    +0.000 C 
ATOM      8  C   UNL     1       1.261   3.471  20.680  0.00  0.00    +0.000 C 
ATOM      9  C   UNL     1       2.309   2.473  20.196  0.00  0.00    +0.000 C 
ATOM     10  N   UNL     1       2.795   2.774  18.855  0.00  0.00    +0.000 N 
ATOM     11  C   UNL     1       3.835   2.089  18.301  0.00  0.00    +0.000 C 
ATOM     12  N   UNL     1       4.038   0.831  18.475  0.00  0.00    +0.000 NA
ATOM     13  N   UNL     1       4.753   2.761  17.549  0.00  0.00    +0.000 N 
ATOM     14  C   UNL     1       4.383   3.898  16.894  0.00  0.00    +0.000 C 
ATOM     15  O   UNL     1       3.527   3.865  16.024  0.00  0.00    +0.000 OA
ATOM     16  H   UNL     1       2.780   3.766  18.622  0.00  0.00    +0.000 HD
ATOM     17  H   UNL     1       3.219   0.467  18.968  0.00  0.00    +0.000 HD
ATOM     18  H   UNL     1       5.567   2.249  17.252  0.00  0.00    +0.000 HD
ENDROOT
BRANCH   1  19
ATOM     19  C   UNL     1       6.175   5.167  18.196  0.00  0.00    +0.000 C 
BRANCH  19  20
ATOM     20  C   UNL     1       7.255   6.025  17.589  0.00  0.00    +0.000 C 
BRANCH  20  21
ATOM     21  C   UNL     1       7.945   7.065  18.465  0.00  0.00    +0.000 C 
BRANCH  21  22
ATOM     22  C   UNL     1       7.951   8.416  17.714  0.00  0.00    +0.000 C 
BRANCH  22  23
ATOM     23  C   UNL     1       8.802   9.457  18.469  0.00  0.00    +0.000 C 
BRANCH  23  24
ATOM     24  C   UNL     1       8.576  10.894  17.997  0.00  0.00    +0.000 C 
BRANCH  24  28
ATOM     25  N   UNL     1      10.356  13.850  19.300  0.00  0.00    +0.000 N 
ATOM     26  C   UNL     1       9.876  12.936  18.398  0.00  0.00    +0.000 C 
ATOM     27  N   UNL     1      10.037  13.014  17.124  0.00  0.00    +0.000 NA
ATOM     28  N   UNL     1       9.170  11.879  18.911  0.00  0.00    +0.000 N 
ATOM     29  H   UNL     1      10.575  13.541  20.235  0.00  0.00    +0.000 HD
ATOM     30  H   UNL     1      10.628  13.796  16.889  0.00  0.00    +0.000 HD
ATOM     31  H   UNL     1       8.980  11.808  19.896  0.00  0.00    +0.000 HD
BRANCH  25  32
ATOM     32  C   UNL     1      10.655  15.254  18.972  0.00  0.00    +0.000 C 
BRANCH  32  34
ATOM     33  C   UNL     1       8.354  16.838  18.554  0.00  0.00    +0.000 C 
ATOM     34  C   UNL     1       9.417  16.106  18.747  0.00  0.00    +0.000 C 
ENDBRANCH  32  34
ENDBRANCH  25  32
ENDBRANCH  24  28
ENDBRANCH  23  24
ENDBRANCH  22  23
ENDBRANCH  21  22
ENDBRANCH  20  21
ENDBRANCH  19  20
ENDBRANCH   1  19
TORSDOF 9
ENDMDL
MODEL 5
REMARK VINA RESULT:      -7.3      3.960     10.738
REMARK  Name = 
REMARK  9 active torsions:
REMARK  status: ('A' for Active; 'I' for Inactive)
REMARK    1  A    between atoms: C_2  and  C_3
REMARK    2  A    between atoms: C_3  and  N_4
REMARK    3  A    between atoms: N_7  and  C_8
REMARK    4  A    between atoms: C_8  and  C_9
REMARK    5  A    between atoms: C_9  and  C_10
REMARK    6  A    between atoms: C_10  and  C_11
REMARK    7  A    between atoms: C_11  and  C_12
REMARK    8  A    between atoms: C_12  and  C_13
REMARK    9  A    between atoms: C_13  and  N_14
REMARK                            x       y       z     vdW  Elec       q    Type
REMARK                         _______ _______ _______ _____ _____    ______ ____
ROOT
ATOM      1  N   UNL     1       4.995   5.402  17.583  0.00  0.00    +0.000 N 
ATOM      2  C   UNL     1       4.395   6.566  16.908  0.00  0.00    +0.000 C 
ATOM      3  C   UNL     1       3.808   7.641  17.845  0.00  0.00    +0.000 C 
ATOM      4  C   UNL     1       2.385   7.295  18.311  0.00  0.00    +0.000 C 
ATOM      5  C   UNL     1       2.334   7.053  19.822  0.00  0.00    +0.000 C 
ATOM      6  C   UNL     1       1.241   6.047  20.164  0.00  0.00    +0.000 C 
ATOM      7  C   UNL     1       1.715   5.015  21.188  0.00  0.00    +0.000 C 
ATOM      8  C   UNL     1       1.245   3.606  20.804  0.00  0.00    +0.000 C 
ATOM      9  C   UNL     1       2.402   2.685  20.428  0.00  0.00    +0.000 C 
ATOM     10  N   UNL     1       2.938   2.967  19.103  0.00  0.00    +0.000 N 
ATOM     11  C   UNL     1       4.064   2.354  18.641  0.00  0.00    +0.000 C 
ATOM     12  N   UNL     1       4.365   1.128  18.888  0.00  0.00    +0.000 NA
ATOM     13  N   UNL     1       4.964   3.071  17.908  0.00  0.00    +0.000 N 
ATOM     14  C   UNL     1       4.536   4.140  17.178  0.00  0.00    +0.000 C 
ATOM     15  O   UNL     1       3.739   3.992  16.265  0.00  0.00    +0.000 OA
ATOM     16  H   UNL     1       2.852   3.943  18.820  0.00  0.00    +0.000 HD
ATOM     17  H   UNL     1       3.553   0.715  19.353  0.00  0.00    +0.000 HD
ATOM     18  H   UNL     1       5.835   2.621  17.682  0.00  0.00    +0.000 HD
ENDROOT
BRANCH   1  19
ATOM     19  C   UNL     1       6.132   5.620  18.512  0.00  0.00    +0.000 C 
BRANCH  19  20
ATOM     20  C   UNL     1       7.376   6.055  17.781  0.00  0.00    +0.000 C 
BRANCH  20  21
ATOM     21  C   UNL     1       7.545   7.530  17.433  0.00  0.00    +0.000 C 
BRANCH  21  22
ATOM     22  C   UNL     1       8.430   8.194  18.513  0.00  0.00    +0.000 C 
BRANCH  22  23
ATOM     23  C   UNL     1       8.549   9.711  18.265  0.00  0.00    +0.000 C 
BRANCH  23  24
ATOM     24  C   UNL     1       9.653  10.382  19.084  0.00  0.00    +0.000 C 
BRANCH  24  28
ATOM     25  N   UNL     1       8.748  11.564  22.459  0.00  0.00    +0.000 N 
ATOM     26  C   UNL     1       9.091  11.611  21.133  0.00  0.00    +0.000 C 
ATOM     27  N   UNL     1       9.183  12.691  20.440  0.00  0.00    +0.000 NA
ATOM     28  N   UNL     1       9.340  10.411  20.519  0.00  0.00    +0.000 N 
ATOM     29  H   UNL     1       9.097  10.804  23.024  0.00  0.00    +0.000 HD
ATOM     30  H   UNL     1       9.042  13.500  21.025  0.00  0.00    +0.000 HD
ATOM     31  H   UNL     1       9.230   9.540  21.013  0.00  0.00    +0.000 HD
BRANCH  25  32
ATOM     32  C   UNL     1       7.963  12.603  23.145  0.00  0.00    +0.000 C 
BRANCH  32  34
ATOM     33  C   UNL     1       7.519  12.069  25.883  0.00  0.00    +0.000 C 
ATOM     34  C   UNL     1       7.724  12.316  24.618  0.00  0.00    +0.000 C 
ENDBRANCH  32  34
ENDBRANCH  25  32
ENDBRANCH  24  28
ENDBRANCH  23  24
ENDBRANCH  22  23
ENDBRANCH  21  22
ENDBRANCH  20  21
ENDBRANCH  19  20
ENDBRANCH   1  19
TORSDOF 9
ENDMDL
MODEL 6
REMARK VINA RESULT:      -7.2      1.496      1.961
REMARK  Name = 
REMARK  9 active torsions:
REMARK  status: ('A' for Active; 'I' for Inactive)
REMARK    1  A    between atoms: C_2  and  C_3
REMARK    2  A    between atoms: C_3  and  N_4
REMARK    3  A    between atoms: N_7  and  C_8
REMARK    4  A    between atoms: C_8  and  C_9
REMARK    5  A    between atoms: C_9  and  C_10
REMARK    6  A    between atoms: C_10  and  C_11
REMARK    7  A    between atoms: C_11  and  C_12
REMARK    8  A    between atoms: C_12  and  C_13
REMARK    9  A    between atoms: C_13  and  N_14
REMARK                            x       y       z     vdW  Elec       q    Type
REMARK                         _______ _______ _______ _____ _____    ______ ____
ROOT
ATOM      1  N   UNL     1       9.835  11.421  19.956  0.00  0.00    +0.000 N 
ATOM      2  C   UNL     1       9.620  11.469  21.413  0.00  0.00    +0.000 C 
ATOM      3  C   UNL     1       8.490  12.408  21.882  0.00  0.00    +0.000 C 
ATOM      4  C   UNL     1       8.954  13.868  21.996  0.00  0.00    +0.000 C 
ATOM      5  C   UNL     1       8.232  14.766  20.987  0.00  0.00    +0.000 C 
ATOM      6  C   UNL     1       9.129  15.926  20.570  0.00  0.00    +0.000 C 
ATOM      7  C   UNL     1       9.083  16.169  19.060  0.00  0.00    +0.000 C 
ATOM      8  C   UNL     1      10.488  16.434  18.505  0.00  0.00    +0.000 C 
ATOM      9  C   UNL     1      10.969  15.325  17.575  0.00  0.00    +0.000 C 
ATOM     10  N   UNL     1      11.380  14.126  18.294  0.00  0.00    +0.000 N 
ATOM     11  C   UNL     1      11.704  12.975  17.639  0.00  0.00    +0.000 C 
ATOM     12  N   UNL     1      12.327  12.942  16.514  0.00  0.00    +0.000 NA
ATOM     13  N   UNL     1      11.319  11.777  18.164  0.00  0.00    +0.000 N 
ATOM     14  C   UNL     1      11.145  11.657  19.510  0.00  0.00    +0.000 C 
ATOM     15  O   UNL     1      12.081  11.820  20.277  0.00  0.00    +0.000 OA
ATOM     16  H   UNL     1      10.883  13.978  19.170  0.00  0.00    +0.000 HD
ATOM     17  H   UNL     1      12.627  13.900  16.316  0.00  0.00    +0.000 HD
ATOM     18  H   UNL     1      11.473  10.957  17.600  0.00  0.00    +0.000 HD
ENDROOT
BRANCH   1  19
ATOM     19  C   UNL     1       8.720  10.981  19.081  0.00  0.00    +0.000 C 
BRANCH  19  20
ATOM     20  C   UNL     1       8.954   9.598  18.530  0.00  0.00    +0.000 C 
BRANCH  20  21
ATOM     21  C   UNL     1       7.891   8.978  17.628  0.00  0.00    +0.000 C 
BRANCH  21  22
ATOM     22  C   UNL     1       7.827   7.461  17.914  0.00  0.00    +0.000 C 
BRANCH  22  23
ATOM     23  C   UNL     1       6.391   6.930  17.728  0.00  0.00    +0.000 C 
BRANCH  23  24
ATOM     24  C   UNL     1       6.111   5.636  18.494  0.00  0.00    +0.000 C 
BRANCH  24  28
ATOM     25  N   UNL     1       3.768   2.891  17.731  0.00  0.00    +0.000 N 
ATOM     26  C   UNL     1       4.759   3.592  18.368  0.00  0.00    +0.000 C 
ATOM     27  N   UNL     1       5.369   3.193  19.429  0.00  0.00    +0.000 NA
ATOM     28  N   UNL     1       5.100   4.804  17.827  0.00  0.00    +0.000 N 
ATOM     29  H   UNL     1       3.645   3.020  16.738  0.00  0.00    +0.000 HD
ATOM     30  H   UNL     1       5.072   2.263  19.680  0.00  0.00    +0.000 HD
ATOM     31  H   UNL     1       4.613   5.174  17.028  0.00  0.00    +0.000 HD
BRANCH  25  32
ATOM     32  C   UNL     1       2.915   1.887  18.387  0.00  0.00    +0.000 C 
BRANCH  32  34
ATOM     33  C   UNL     1       0.434   2.909  19.270  0.00  0.00    +0.000 C 
ATOM     34  C   UNL     1       1.580   2.437  18.862  0.00  0.00    +0.000 C 
ENDBRANCH  32  34
ENDBRANCH  25  32
ENDBRANCH  24  28
ENDBRANCH  23  24
ENDBRANCH  22  23
ENDBRANCH  21  22
ENDBRANCH  20  21
ENDBRANCH  19  20
ENDBRANCH   1  19
TORSDOF 9
ENDMDL
MODEL 7
REMARK VINA RESULT:      -7.2      3.244     11.026
REMARK  Name = 
REMARK  9 active torsions:
REMARK  status: ('A' for Active; 'I' for Inactive)
REMARK    1  A    between atoms: C_2  and  C_3
REMARK    2  A    between atoms: C_3  and  N_4
REMARK    3  A    between atoms: N_7  and  C_8
REMARK    4  A    between atoms: C_8  and  C_9
REMARK    5  A    between atoms: C_9  and  C_10
REMARK    6  A    between atoms: C_10  and  C_11
REMARK    7  A    between atoms: C_11  and  C_12
REMARK    8  A    between atoms: C_12  and  C_13
REMARK    9  A    between atoms: C_13  and  N_14
REMARK                            x       y       z     vdW  Elec       q    Type
REMARK                         _______ _______ _______ _____ _____    ______ ____
ROOT
ATOM      1  N   UNL     1       5.191   5.436  17.567  0.00  0.00    +0.000 N 
ATOM      2  C   UNL     1       4.480   6.367  16.673  0.00  0.00    +0.000 C 
ATOM      3  C   UNL     1       3.788   7.554  17.373  0.00  0.00    +0.000 C 
ATOM      4  C   UNL     1       2.405   7.178  17.928  0.00  0.00    +0.000 C 
ATOM      5  C   UNL     1       2.375   7.257  19.457  0.00  0.00    +0.000 C 
ATOM      6  C   UNL     1       1.386   6.245  20.024  0.00  0.00    +0.000 C 
ATOM      7  C   UNL     1       1.958   5.503  21.234  0.00  0.00    +0.000 C 
ATOM      8  C   UNL     1       1.631   4.007  21.164  0.00  0.00    +0.000 C 
ATOM      9  C   UNL     1       2.874   3.144  20.969  0.00  0.00    +0.000 C 
ATOM     10  N   UNL     1       3.382   3.190  19.604  0.00  0.00    +0.000 N 
ATOM     11  C   UNL     1       4.564   2.605  19.261  0.00  0.00    +0.000 C 
ATOM     12  N   UNL     1       4.984   1.494  19.755  0.00  0.00    +0.000 NA
ATOM     13  N   UNL     1       5.390   3.235  18.376  0.00  0.00    +0.000 N 
ATOM     14  C   UNL     1       4.860   4.078  17.445  0.00  0.00    +0.000 C 
ATOM     15  O   UNL     1       4.084   3.664  16.599  0.00  0.00    +0.000 OA
ATOM     16  H   UNL     1       3.200   4.071  19.124  0.00  0.00    +0.000 HD
ATOM     17  H   UNL     1       4.216   1.112  20.311  0.00  0.00    +0.000 HD
ATOM     18  H   UNL     1       6.302   2.834  18.233  0.00  0.00    +0.000 HD
ENDROOT
BRANCH   1  19
ATOM     19  C   UNL     1       6.299   5.955  18.407  0.00  0.00    +0.000 C 
BRANCH  19  20
ATOM     20  C   UNL     1       7.117   6.990  17.679  0.00  0.00    +0.000 C 
BRANCH  20  21
ATOM     21  C   UNL     1       8.268   7.667  18.415  0.00  0.00    +0.000 C 
BRANCH  21  22
ATOM     22  C   UNL     1       8.311   9.156  17.999  0.00  0.00    +0.000 C 
BRANCH  22  23
ATOM     23  C   UNL     1       9.028  10.002  19.071  0.00  0.00    +0.000 C 
BRANCH  23  24
ATOM     24  C   UNL     1       9.823  11.175  18.496  0.00  0.00    +0.000 C 
BRANCH  24  28
ATOM     25  N   UNL     1       8.899  14.696  19.090  0.00  0.00    +0.000 N 
ATOM     26  C   UNL     1       9.250  13.560  18.409  0.00  0.00    +0.000 C 
ATOM     27  N   UNL     1       9.346  13.476  17.128  0.00  0.00    +0.000 NA
ATOM     28  N   UNL     1       9.502  12.444  19.164  0.00  0.00    +0.000 N 
ATOM     29  H   UNL     1       9.244  14.825  20.029  0.00  0.00    +0.000 HD
ATOM     30  H   UNL     1       9.203  14.378  16.703  0.00  0.00    +0.000 HD
ATOM     31  H   UNL     1       9.389  12.454  20.164  0.00  0.00    +0.000 HD
BRANCH  25  32
ATOM     32  C   UNL     1       8.110  15.795  18.509  0.00  0.00    +0.000 C 
BRANCH  32  34
ATOM     33  C   UNL     1       5.399  15.137  18.069  0.00  0.00    +0.000 C 
ATOM     34  C   UNL     1       6.651  15.441  18.272  0.00  0.00    +0.000 C 
ENDBRANCH  32  34
ENDBRANCH  25  32
ENDBRANCH  24  28
ENDBRANCH  23  24
ENDBRANCH  22  23
ENDBRANCH  21  22
ENDBRANCH  20  21
ENDBRANCH  19  20
ENDBRANCH   1  19
TORSDOF 9
ENDMDL
MODEL 8
REMARK VINA RESULT:      -7.1      3.217     11.393
REMARK  Name = 
REMARK  9 active torsions:
REMARK  status: ('A' for Active; 'I' for Inactive)
REMARK    1  A    between atoms: C_2  and  C_3
REMARK    2  A    between atoms: C_3  and  N_4
REMARK    3  A    between atoms: N_7  and  C_8
REMARK    4  A    between atoms: C_8  and  C_9
REMARK    5  A    between atoms: C_9  and  C_10
REMARK    6  A    between atoms: C_10  and  C_11
REMARK    7  A    between atoms: C_11  and  C_12
REMARK    8  A    between atoms: C_12  and  C_13
REMARK    9  A    between atoms: C_13  and  N_14
REMARK                            x       y       z     vdW  Elec       q    Type
REMARK                         _______ _______ _______ _____ _____    ______ ____
ROOT
ATOM      1  N   UNL     1       5.166   5.420  17.772  0.00  0.00    +0.000 N 
ATOM      2  C   UNL     1       4.510   6.400  16.888  0.00  0.00    +0.000 C 
ATOM      3  C   UNL     1       3.765   7.542  17.609  0.00  0.00    +0.000 C 
ATOM      4  C   UNL     1       2.351   7.130  18.048  0.00  0.00    +0.000 C 
ATOM      5  C   UNL     1       2.219   7.119  19.574  0.00  0.00    +0.000 C 
ATOM      6  C   UNL     1       1.201   6.073  20.013  0.00  0.00    +0.000 C 
ATOM      7  C   UNL     1       1.695   5.263  21.213  0.00  0.00    +0.000 C 
ATOM      8  C   UNL     1       1.383   3.773  21.034  0.00  0.00    +0.000 C 
ATOM      9  C   UNL     1       2.642   2.926  20.872  0.00  0.00    +0.000 C 
ATOM     10  N   UNL     1       3.239   3.053  19.549  0.00  0.00    +0.000 N 
ATOM     11  C   UNL     1       4.445   2.493  19.252  0.00  0.00    +0.000 C 
ATOM     12  N   UNL     1       4.839   1.355  19.707  0.00  0.00    +0.000 NA
ATOM     13  N   UNL     1       5.324   3.175  18.462  0.00  0.00    +0.000 N 
ATOM     14  C   UNL     1       4.852   4.070  17.549  0.00  0.00    +0.000 C 
ATOM     15  O   UNL     1       4.136   3.705  16.631  0.00  0.00    +0.000 OA
ATOM     16  H   UNL     1       3.084   3.960  19.110  0.00  0.00    +0.000 HD
ATOM     17  H   UNL     1       4.037   0.939  20.188  0.00  0.00    +0.000 HD
ATOM     18  H   UNL     1       6.246   2.785  18.358  0.00  0.00    +0.000 HD
ENDROOT
BRANCH   1  19
ATOM     19  C   UNL     1       6.212   5.891  18.713  0.00  0.00    +0.000 C 
BRANCH  19  20
ATOM     20  C   UNL     1       7.454   6.344  17.989  0.00  0.00    +0.000 C 
BRANCH  20  21
ATOM     21  C   UNL     1       8.276   7.482  18.584  0.00  0.00    +0.000 C 
BRANCH  21  22
ATOM     22  C   UNL     1       7.983   8.772  17.786  0.00  0.00    +0.000 C 
BRANCH  22  23
ATOM     23  C   UNL     1       8.496  10.013  18.544  0.00  0.00    +0.000 C 
BRANCH  23  24
ATOM     24  C   UNL     1       9.775  10.608  17.953  0.00  0.00    +0.000 C 
BRANCH  24  28
ATOM     25  N   UNL     1      11.756  13.446  19.228  0.00  0.00    +0.000 N 
ATOM     26  C   UNL     1      11.250  12.531  18.343  0.00  0.00    +0.000 C 
ATOM     27  N   UNL     1      11.507  12.514  17.082  0.00  0.00    +0.000 NA
ATOM     28  N   UNL     1      10.403  11.582  18.855  0.00  0.00    +0.000 N 
ATOM     29  H   UNL     1      11.875  13.174  20.193  0.00  0.00    +0.000 HD
ATOM     30  H   UNL     1      12.191  13.218  16.851  0.00  0.00    +0.000 HD
ATOM     31  H   UNL     1      10.137  11.591  19.826  0.00  0.00    +0.000 HD
BRANCH  25  32
ATOM     32  C   UNL     1      12.222  14.790  18.850  0.00  0.00    +0.000 C 
BRANCH  32  34
ATOM     33  C   UNL     1      10.227  16.780  19.045  0.00  0.00    +0.000 C 
ATOM     34  C   UNL     1      11.149  15.861  18.955  0.00  0.00    +0.000 C 
ENDBRANCH  32  34
ENDBRANCH  25  32
ENDBRANCH  24  28
ENDBRANCH  23  24
ENDBRANCH  22  23
ENDBRANCH  21  22
ENDBRANCH  20  21
ENDBRANCH  19  20
ENDBRANCH   1  19
TORSDOF 9
ENDMDL
MODEL 9
REMARK VINA RESULT:      -7.1      7.968     10.135
REMARK  Name = 
REMARK  9 active torsions:
REMARK  status: ('A' for Active; 'I' for Inactive)
REMARK    1  A    between atoms: C_2  and  C_3
REMARK    2  A    between atoms: C_3  and  N_4
REMARK    3  A    between atoms: N_7  and  C_8
REMARK    4  A    between atoms: C_8  and  C_9
REMARK    5  A    between atoms: C_9  and  C_10
REMARK    6  A    between atoms: C_10  and  C_11
REMARK    7  A    between atoms: C_11  and  C_12
REMARK    8  A    between atoms: C_12  and  C_13
REMARK    9  A    between atoms: C_13  and  N_14
REMARK                            x       y       z     vdW  Elec       q    Type
REMARK                         _______ _______ _______ _____ _____    ______ ____
ROOT
ATOM      1  N   UNL     1      -0.271  11.334  20.020  0.00  0.00    +0.000 N 
ATOM      2  C   UNL     1       0.173  12.214  21.116  0.00  0.00    +0.000 C 
ATOM      3  C   UNL     1      -0.725  12.209  22.369  0.00  0.00    +0.000 C 
ATOM      4  C   UNL     1      -1.932  13.150  22.227  0.00  0.00    +0.000 C 
ATOM      5  C   UNL     1      -3.251  12.373  22.224  0.00  0.00    +0.000 C 
ATOM      6  C   UNL     1      -4.295  13.099  21.384  0.00  0.00    +0.000 C 
ATOM      7  C   UNL     1      -5.072  12.138  20.482  0.00  0.00    +0.000 C 
ATOM      8  C   UNL     1      -5.254  12.729  19.079  0.00  0.00    +0.000 C 
ATOM      9  C   UNL     1      -4.488  11.952  18.012  0.00  0.00    +0.000 C 
ATOM     10  N   UNL     1      -3.056  12.221  18.040  0.00  0.00    +0.000 N 
ATOM     11  C   UNL     1      -2.182  11.519  17.265  0.00  0.00    +0.000 C 
ATOM     12  N   UNL     1      -2.443  11.123  16.069  0.00  0.00    +0.000 NA
ATOM     13  N   UNL     1      -0.969  11.166  17.778  0.00  0.00    +0.000 N 
ATOM     14  C   UNL     1      -0.404  11.929  18.756  0.00  0.00    +0.000 C 
ATOM     15  O   UNL     1      -0.102  13.092  18.543  0.00  0.00    +0.000 OA
ATOM     16  H   UNL     1      -2.696  12.455  18.964  0.00  0.00    +0.000 HD
ATOM     17  H   UNL     1      -3.334  11.551  15.806  0.00  0.00    +0.000 HD
ATOM     18  H   UNL     1      -0.396  10.552  17.223  0.00  0.00    +0.000 HD
ENDROOT
BRANCH   1  19
ATOM     19  C   UNL     1      -0.393   9.877  20.275  0.00  0.00    +0.000 C 
BRANCH  19  20
ATOM     20  C   UNL     1       0.905   9.154  20.024  0.00  0.00    +0.000 C 
BRANCH  20  21
ATOM     21  C   UNL     1       1.514   8.326  21.150  0.00  0.00    +0.000 C 
BRANCH  21  22
ATOM     22  C   UNL     1       1.426   6.831  20.767  0.00  0.00    +0.000 C 
BRANCH  22  23
ATOM     23  C   UNL     1       2.362   6.515  19.583  0.00  0.00    +0.000 C 
BRANCH  23  24
ATOM     24  C   UNL     1       3.306   5.340  19.844  0.00  0.00    +0.000 C 
BRANCH  24  28
ATOM     25  N   UNL     1       6.852   5.155  18.845  0.00  0.00    +0.000 N 
ATOM     26  C   UNL     1       5.569   4.747  19.104  0.00  0.00    +0.000 C 
ATOM     27  N   UNL     1       5.127   3.555  18.901  0.00  0.00    +0.000 NA
ATOM     28  N   UNL     1       4.711   5.692  19.602  0.00  0.00    +0.000 N 
ATOM     29  H   UNL     1       7.240   5.909  19.393  0.00  0.00    +0.000 HD
ATOM     30  H   UNL     1       5.873   2.948  18.600  0.00  0.00    +0.000 HD
ATOM     31  H   UNL     1       5.004   6.647  19.728  0.00  0.00    +0.000 HD
BRANCH  25  32
ATOM     32  C   UNL     1       7.743   4.508  17.869  0.00  0.00    +0.000 C 
BRANCH  32  34
ATOM     33  C   UNL     1       6.878   4.775  15.193  0.00  0.00    +0.000 C 
ATOM     34  C   UNL     1       7.277   4.652  16.429  0.00  0.00    +0.000 C 
ENDBRANCH  32  34
ENDBRANCH  25  32
ENDBRANCH  24  28
ENDBRANCH  23  24
ENDBRANCH  22  23
ENDBRANCH  21  22
ENDBRANCH  20  21
ENDBRANCH  19  20
ENDBRANCH   1  19
TORSDOF 9
ENDMDL
