MODEL 1
REMARK VINA RESULT:      -7.1      0.000      0.000
REMARK  Name = 
REMARK  5 active torsions:
REMARK  status: ('A' for Active; 'I' for Inactive)
REMARK    1  A    between atoms: C_1  and  C_2
REMARK    2  A    between atoms: N_9  and  C_10
REMARK    3  A    between atoms: C_12  and  C_13
REMARK    4  A    between atoms: C_14  and  O_15
REMARK    5  A    between atoms: C_16  and  O_17
REMARK                            x       y       z     vdW  Elec       q    Type
REMARK                         _______ _______ _______ _____ _____    ______ ____
ROOT
ATOM      1  C   UNL     1       3.191   6.790  17.423  0.00  0.00    +0.000 C 
ATOM      2  C   UNL     1       4.596   6.280  17.600  0.00  0.00    +0.000 A 
ATOM      3  C   UNL     1       5.437   6.488  16.578  0.00  0.00    +0.000 A 
ATOM      4  C   UNL     1       6.842   6.120  16.695  0.00  0.00    +0.000 A 
ATOM      5  O   UNL     1       7.579   6.092  15.715  0.00  0.00    +0.000 OA
ATOM      6  N   UNL     1       7.256   5.842  17.957  0.00  0.00    +0.000 N 
ATOM      7  C   UNL     1       6.431   5.470  18.983  0.00  0.00    +0.000 A 
ATOM      8  O   UNL     1       6.924   4.974  19.997  0.00  0.00    +0.000 OA
ATOM      9  N   UNL     1       5.054   5.671  18.779  0.00  0.00    +0.000 N 
ATOM     10  H   UNL     1       8.226   5.594  18.072  0.00  0.00    +0.000 HD
ENDROOT
BRANCH   9  11
ATOM     11  C   UNL     1       4.218   5.018  19.808  0.00  0.00    +0.000 C 
ATOM     12  O   UNL     1       2.859   5.493  19.837  0.00  0.00    +0.000 OA
ATOM     13  C   UNL     1       1.989   4.466  19.316  0.00  0.00    +0.000 C 
ATOM     14  C   UNL     1       0.934   4.106  20.346  0.00  0.00    +0.000 C 
ATOM     15  C   UNL     1       2.858   3.285  18.877  0.00  0.00    +0.000 C 
ATOM     16  C   UNL     1       4.123   3.479  19.693  0.00  0.00    +0.000 C 
BRANCH  15  17
ATOM     17  O   UNL     1       3.212   3.358  17.486  0.00  0.00    +0.000 OA
ATOM     18  H   UNL     1       4.136   3.660  17.430  0.00  0.00    +0.000 HD
ENDBRANCH  15  17
BRANCH  16  19
ATOM     19  O   UNL     1       5.236   2.817  19.101  0.00  0.00    +0.000 OA
ATOM     20  H   UNL     1       5.150   1.882  19.378  0.00  0.00    +0.000 HD
ENDBRANCH  16  19
ENDBRANCH   9  11
TORSDOF 3
ENDMDL
MODEL 2
REMARK VINA RESULT:      -7.1      2.341      5.060
REMARK  Name = 
REMARK  5 active torsions:
REMARK  status: ('A' for Active; 'I' for Inactive)
REMARK    1  A    between atoms: C_1  and  C_2
REMARK    2  A    between atoms: N_9  and  C_10
REMARK    3  A    between atoms: C_12  and  C_13
REMARK    4  A    between atoms: C_14  and  O_15
REMARK    5  A    between atoms: C_16  and  O_17
REMARK                            x       y       z     vdW  Elec       q    Type
REMARK                         _______ _______ _______ _____ _____    ______ ____
ROOT
ATOM      1  C   UNL     1       2.701   6.386  19.933  0.00  0.00    +0.000 C 
ATOM      2  C   UNL     1       2.361   4.920  19.935  0.00  0.00    +0.000 A 
ATOM      3  C   UNL     1       1.992   4.397  21.112  0.00  0.00    +0.000 A 
ATOM      4  C   UNL     1       1.548   3.012  21.194  0.00  0.00    +0.000 A 
ATOM      5  O   UNL     1       1.417   2.446  22.274  0.00  0.00    +0.000 OA
ATOM      6  N   UNL     1       1.277   2.427  19.999  0.00  0.00    +0.000 N 
ATOM      7  C   UNL     1       1.773   2.848  18.796  0.00  0.00    +0.000 A 
ATOM      8  O   UNL     1       1.698   2.096  17.823  0.00  0.00    +0.000 OA
ATOM      9  N   UNL     1       2.360   4.125  18.778  0.00  0.00    +0.000 N 
ATOM     10  H   UNL     1       0.957   1.472  20.025  0.00  0.00    +0.000 HD
ENDROOT
BRANCH   9  11
ATOM     11  C   UNL     1       3.094   4.404  17.525  0.00  0.00    +0.000 C 
ATOM     12  O   UNL     1       3.483   5.782  17.376  0.00  0.00    +0.000 OA
ATOM     13  C   UNL     1       4.911   5.891  17.548  0.00  0.00    +0.000 C 
ATOM     14  C   UNL     1       5.538   6.517  16.316  0.00  0.00    +0.000 C 
ATOM     15  C   UNL     1       5.456   4.500  17.884  0.00  0.00    +0.000 C 
ATOM     16  C   UNL     1       4.386   3.579  17.328  0.00  0.00    +0.000 C 
BRANCH  15  17
ATOM     17  O   UNL     1       5.541   4.277  19.301  0.00  0.00    +0.000 OA
ATOM     18  H   UNL     1       4.670   4.478  19.686  0.00  0.00    +0.000 HD
ENDBRANCH  15  17
BRANCH  16  19
ATOM     19  O   UNL     1       4.422   2.298  17.948  0.00  0.00    +0.000 OA
ATOM     20  H   UNL     1       3.521   1.935  17.833  0.00  0.00    +0.000 HD
ENDBRANCH  16  19
ENDBRANCH   9  11
TORSDOF 3
ENDMDL
MODEL 3
REMARK VINA RESULT:      -6.8      1.319      1.477
REMARK  Name = 
REMARK  5 active torsions:
REMARK  status: ('A' for Active; 'I' for Inactive)
REMARK    1  A    between atoms: C_1  and  C_2
REMARK    2  A    between atoms: N_9  and  C_10
REMARK    3  A    between atoms: C_12  and  C_13
REMARK    4  A    between atoms: C_14  and  O_15
REMARK    5  A    between atoms: C_16  and  O_17
REMARK                            x       y       z     vdW  Elec       q    Type
REMARK                         _______ _______ _______ _____ _____    ______ ____
ROOT
ATOM      1  C   UNL     1       2.400   6.677  18.968  0.00  0.00    +0.000 C 
ATOM      2  C   UNL     1       3.621   6.202  18.226  0.00  0.00    +0.000 A 
ATOM      3  C   UNL     1       3.942   6.878  17.115  0.00  0.00    +0.000 A 
ATOM      4  C   UNL     1       5.162   6.557  16.385  0.00  0.00    +0.000 A 
ATOM      5  O   UNL     1       5.368   6.999  15.261  0.00  0.00    +0.000 OA
ATOM      6  N   UNL     1       6.036   5.765  17.056  0.00  0.00    +0.000 N 
ATOM      7  C   UNL     1       5.702   4.940  18.095  0.00  0.00    +0.000 A 
ATOM      8  O   UNL     1       6.496   4.067  18.445  0.00  0.00    +0.000 OA
ATOM      9  N   UNL     1       4.438   5.152  18.675  0.00  0.00    +0.000 N 
ATOM     10  H   UNL     1       6.894   5.534  16.581  0.00  0.00    +0.000 HD
ENDROOT
BRANCH   9  11
ATOM     11  C   UNL     1       4.044   4.075  19.607  0.00  0.00    +0.000 C 
ATOM     12  O   UNL     1       2.936   4.421  20.458  0.00  0.00    +0.000 OA
ATOM     13  C   UNL     1       1.769   3.683  20.037  0.00  0.00    +0.000 C 
ATOM     14  C   UNL     1       1.232   2.857  21.191  0.00  0.00    +0.000 C 
ATOM     15  C   UNL     1       2.148   2.858  18.806  0.00  0.00    +0.000 C 
ATOM     16  C   UNL     1       3.656   2.739  18.934  0.00  0.00    +0.000 C 
BRANCH  15  17
ATOM     17  O   UNL     1       1.861   3.549  17.579  0.00  0.00    +0.000 OA
ATOM     18  H   UNL     1       2.415   4.349  17.552  0.00  0.00    +0.000 HD
ENDBRANCH  15  17
BRANCH  16  19
ATOM     19  O   UNL     1       4.269   2.458  17.680  0.00  0.00    +0.000 OA
ATOM     20  H   UNL     1       3.604   1.938  17.184  0.00  0.00    +0.000 HD
ENDBRANCH  16  19
ENDBRANCH   9  11
TORSDOF 3
ENDMDL
MODEL 4
REMARK VINA RESULT:      -6.8      2.081      4.807
REMARK  Name = 
REMARK  5 active torsions:
REMARK  status: ('A' for Active; 'I' for Inactive)
REMARK    1  A    between atoms: C_1  and  C_2
REMARK    2  A    between atoms: N_9  and  C_10
REMARK    3  A    between atoms: C_12  and  C_13
REMARK    4  A    between atoms: C_14  and  O_15
REMARK    5  A    between atoms: C_16  and  O_17
REMARK                            x       y       z     vdW  Elec       q    Type
REMARK                         _______ _______ _______ _____ _____    ______ ____
ROOT
ATOM      1  C   UNL     1       1.659   4.178  17.724  0.00  0.00    +0.000 C 
ATOM      2  C   UNL     1       2.315   3.620  18.958  0.00  0.00    +0.000 A 
ATOM      3  C   UNL     1       1.543   3.523  20.049  0.00  0.00    +0.000 A 
ATOM      4  C   UNL     1       2.059   2.903  21.263  0.00  0.00    +0.000 A 
ATOM      5  O   UNL     1       1.464   2.997  22.330  0.00  0.00    +0.000 OA
ATOM      6  N   UNL     1       3.216   2.211  21.103  0.00  0.00    +0.000 N 
ATOM      7  C   UNL     1       4.104   2.404  20.081  0.00  0.00    +0.000 A 
ATOM      8  O   UNL     1       5.238   1.934  20.178  0.00  0.00    +0.000 OA
ATOM      9  N   UNL     1       3.641   3.160  18.989  0.00  0.00    +0.000 N 
ATOM     10  H   UNL     1       3.592   1.763  21.923  0.00  0.00    +0.000 HD
ENDROOT
BRANCH   9  11
ATOM     11  C   UNL     1       4.720   3.540  18.053  0.00  0.00    +0.000 C 
ATOM     12  O   UNL     1       4.244   3.990  16.772  0.00  0.00    +0.000 OA
ATOM     13  C   UNL     1       4.448   5.414  16.665  0.00  0.00    +0.000 C 
ATOM     14  C   UNL     1       5.302   5.728  15.450  0.00  0.00    +0.000 C 
ATOM     15  C   UNL     1       5.042   5.909  17.986  0.00  0.00    +0.000 C 
ATOM     16  C   UNL     1       5.666   4.652  18.563  0.00  0.00    +0.000 C 
BRANCH  15  17
ATOM     17  O   UNL     1       4.031   6.362  18.901  0.00  0.00    +0.000 OA
ATOM     18  H   UNL     1       4.251   6.016  19.783  0.00  0.00    +0.000 HD
ENDBRANCH  15  17
BRANCH  16  19
ATOM     19  O   UNL     1       5.829   4.747  19.974  0.00  0.00    +0.000 OA
ATOM     20  H   UNL     1       5.136   5.373  20.267  0.00  0.00    +0.000 HD
ENDBRANCH  16  19
ENDBRANCH   9  11
TORSDOF 3
ENDMDL
MODEL 5
REMARK VINA RESULT:      -6.5      1.612      1.648
REMARK  Name = 
REMARK  5 active torsions:
REMARK  status: ('A' for Active; 'I' for Inactive)
REMARK    1  A    between atoms: C_1  and  C_2
REMARK    2  A    between atoms: N_9  and  C_10
REMARK    3  A    between atoms: C_12  and  C_13
REMARK    4  A    between atoms: C_14  and  O_15
REMARK    5  A    between atoms: C_16  and  O_17
REMARK                            x       y       z     vdW  Elec       q    Type
REMARK                         _______ _______ _______ _____ _____    ______ ____
ROOT
ATOM      1  C   UNL     1       2.578   4.174  16.955  0.00  0.00    +0.000 C 
ATOM      2  C   UNL     1       4.056   4.238  17.228  0.00  0.00    +0.000 A 
ATOM      3  C   UNL     1       4.860   4.206  16.156  0.00  0.00    +0.000 A 
ATOM      4  C   UNL     1       6.300   4.363  16.312  0.00  0.00    +0.000 A 
ATOM      5  O   UNL     1       7.072   4.121  15.391  0.00  0.00    +0.000 OA
ATOM      6  N   UNL     1       6.697   4.814  17.529  0.00  0.00    +0.000 N 
ATOM      7  C   UNL     1       5.958   4.713  18.676  0.00  0.00    +0.000 A 
ATOM      8  O   UNL     1       6.511   4.892  19.761  0.00  0.00    +0.000 OA
ATOM      9  N   UNL     1       4.600   4.384  18.514  0.00  0.00    +0.000 N 
ATOM     10  H   UNL     1       7.687   4.943  17.664  0.00  0.00    +0.000 HD
ENDROOT
BRANCH   9  11
ATOM     11  C   UNL     1       3.934   4.043  19.788  0.00  0.00    +0.000 C 
ATOM     12  O   UNL     1       2.513   4.279  19.780  0.00  0.00    +0.000 OA
ATOM     13  C   UNL     1       1.825   3.011  19.759  0.00  0.00    +0.000 C 
ATOM     14  C   UNL     1       0.891   2.905  20.950  0.00  0.00    +0.000 C 
ATOM     15  C   UNL     1       2.876   1.901  19.692  0.00  0.00    +0.000 C 
ATOM     16  C   UNL     1       4.114   2.579  20.249  0.00  0.00    +0.000 C 
BRANCH  15  17
ATOM     17  O   UNL     1       3.160   1.501  18.341  0.00  0.00    +0.000 OA
ATOM     18  H   UNL     1       2.870   0.578  18.237  0.00  0.00    +0.000 HD
ENDBRANCH  15  17
BRANCH  16  19
ATOM     19  O   UNL     1       5.306   1.924  19.829  0.00  0.00    +0.000 OA
ATOM     20  H   UNL     1       5.858   1.861  20.635  0.00  0.00    +0.000 HD
ENDBRANCH  16  19
ENDBRANCH   9  11
TORSDOF 3
ENDMDL
MODEL 6
REMARK VINA RESULT:      -6.2      1.958      5.069
REMARK  Name = 
REMARK  5 active torsions:
REMARK  status: ('A' for Active; 'I' for Inactive)
REMARK    1  A    between atoms: C_1  and  C_2
REMARK    2  A    between atoms: N_9  and  C_10
REMARK    3  A    between atoms: C_12  and  C_13
REMARK    4  A    between atoms: C_14  and  O_15
REMARK    5  A    between atoms: C_16  and  O_17
REMARK                            x       y       z     vdW  Elec       q    Type
REMARK                         _______ _______ _______ _____ _____    ______ ____
ROOT
ATOM      1  C   UNL     1       4.705   2.123  19.607  0.00  0.00    +0.000 C 
ATOM      2  C   UNL     1       3.425   2.914  19.552  0.00  0.00    +0.000 A 
ATOM      3  C   UNL     1       2.297   2.209  19.393  0.00  0.00    +0.000 A 
ATOM      4  C   UNL     1       1.002   2.876  19.429  0.00  0.00    +0.000 A 
ATOM      5  O   UNL     1      -0.021   2.303  19.071  0.00  0.00    +0.000 OA
ATOM      6  N   UNL     1       1.027   4.147  19.903  0.00  0.00    +0.000 N 
ATOM      7  C   UNL     1       2.136   4.948  19.928  0.00  0.00    +0.000 A 
ATOM      8  O   UNL     1       1.996   6.157  20.112  0.00  0.00    +0.000 OA
ATOM      9  N   UNL     1       3.370   4.307  19.714  0.00  0.00    +0.000 N 
ATOM     10  H   UNL     1       0.145   4.631  19.950  0.00  0.00    +0.000 HD
ENDROOT
BRANCH   9  11
ATOM     11  C   UNL     1       4.482   5.257  19.500  0.00  0.00    +0.000 C 
ATOM     12  O   UNL     1       5.785   4.648  19.564  0.00  0.00    +0.000 OA
ATOM     13  C   UNL     1       6.348   4.598  18.236  0.00  0.00    +0.000 C 
ATOM     14  C   UNL     1       7.681   5.324  18.208  0.00  0.00    +0.000 C 
ATOM     15  C   UNL     1       5.312   5.161  17.260  0.00  0.00    +0.000 C 
ATOM     16  C   UNL     1       4.440   6.021  18.157  0.00  0.00    +0.000 C 
BRANCH  15  17
ATOM     17  O   UNL     1       4.485   4.133  16.691  0.00  0.00    +0.000 OA
ATOM     18  H   UNL     1       5.068   3.505  16.229  0.00  0.00    +0.000 HD
ENDBRANCH  15  17
BRANCH  16  19
ATOM     19  O   UNL     1       3.153   6.235  17.588  0.00  0.00    +0.000 OA
ATOM     20  H   UNL     1       3.239   7.062  17.072  0.00  0.00    +0.000 HD
ENDBRANCH  16  19
ENDBRANCH   9  11
TORSDOF 3
ENDMDL
MODEL 7
REMARK VINA RESULT:      -6.2      1.714      2.627
REMARK  Name = 
REMARK  5 active torsions:
REMARK  status: ('A' for Active; 'I' for Inactive)
REMARK    1  A    between atoms: C_1  and  C_2
REMARK    2  A    between atoms: N_9  and  C_10
REMARK    3  A    between atoms: C_12  and  C_13
REMARK    4  A    between atoms: C_14  and  O_15
REMARK    5  A    between atoms: C_16  and  O_17
REMARK                            x       y       z     vdW  Elec       q    Type
REMARK                         _______ _______ _______ _____ _____    ______ ____
ROOT
ATOM      1  C   UNL     1       4.432   3.154  16.381  0.00  0.00    +0.000 C 
ATOM      2  C   UNL     1       4.767   4.564  16.789  0.00  0.00    +0.000 A 
ATOM      3  C   UNL     1       6.034   4.953  16.598  0.00  0.00    +0.000 A 
ATOM      4  C   UNL     1       6.430   6.329  16.867  0.00  0.00    +0.000 A 
ATOM      5  O   UNL     1       7.610   6.657  16.914  0.00  0.00    +0.000 OA
ATOM      6  N   UNL     1       5.400   7.197  17.034  0.00  0.00    +0.000 N 
ATOM      7  C   UNL     1       4.128   6.838  17.389  0.00  0.00    +0.000 A 
ATOM      8  O   UNL     1       3.350   7.706  17.784  0.00  0.00    +0.000 OA
ATOM      9  N   UNL     1       3.818   5.470  17.289  0.00  0.00    +0.000 N 
ATOM     10  H   UNL     1       5.642   8.159  17.212  0.00  0.00    +0.000 HD
ENDROOT
BRANCH   9  11
ATOM     11  C   UNL     1       2.529   5.124  17.924  0.00  0.00    +0.000 C 
ATOM     12  O   UNL     1       1.973   3.877  17.466  0.00  0.00    +0.000 OA
ATOM     13  C   UNL     1       2.085   2.896  18.518  0.00  0.00    +0.000 C 
ATOM     14  C   UNL     1       0.714   2.343  18.863  0.00  0.00    +0.000 C 
ATOM     15  C   UNL     1       2.808   3.547  19.699  0.00  0.00    +0.000 C 
ATOM     16  C   UNL     1       2.565   5.027  19.466  0.00  0.00    +0.000 C 
BRANCH  15  17
ATOM     17  O   UNL     1       4.227   3.320  19.660  0.00  0.00    +0.000 OA
ATOM     18  H   UNL     1       4.560   3.369  20.573  0.00  0.00    +0.000 HD
ENDBRANCH  15  17
BRANCH  16  19
ATOM     19  O   UNL     1       3.535   5.829  20.130  0.00  0.00    +0.000 OA
ATOM     20  H   UNL     1       3.571   5.479  21.043  0.00  0.00    +0.000 HD
ENDBRANCH  16  19
ENDBRANCH   9  11
TORSDOF 3
ENDMDL
MODEL 8
REMARK VINA RESULT:      -6.1      1.631      3.080
REMARK  Name = 
REMARK  5 active torsions:
REMARK  status: ('A' for Active; 'I' for Inactive)
REMARK    1  A    between atoms: C_1  and  C_2
REMARK    2  A    between atoms: N_9  and  C_10
REMARK    3  A    between atoms: C_12  and  C_13
REMARK    4  A    between atoms: C_14  and  O_15
REMARK    5  A    between atoms: C_16  and  O_17
REMARK                            x       y       z     vdW  Elec       q    Type
REMARK                         _______ _______ _______ _____ _____    ______ ____
ROOT
ATOM      1  C   UNL     1       5.597   3.812  19.366  0.00  0.00    +0.000 C 
ATOM      2  C   UNL     1       5.938   5.043  18.569  0.00  0.00    +0.000 A 
ATOM      3  C   UNL     1       7.063   5.682  18.915  0.00  0.00    +0.000 A 
ATOM      4  C   UNL     1       7.529   6.824  18.139  0.00  0.00    +0.000 A 
ATOM      5  O   UNL     1       8.421   7.556  18.553  0.00  0.00    +0.000 OA
ATOM      6  N   UNL     1       6.917   6.985  16.938  0.00  0.00    +0.000 N 
ATOM      7  C   UNL     1       5.690   6.476  16.614  0.00  0.00    +0.000 A 
ATOM      8  O   UNL     1       5.108   6.907  15.618  0.00  0.00    +0.000 OA
ATOM      9  N   UNL     1       5.176   5.494  17.480  0.00  0.00    +0.000 N 
ATOM     10  H   UNL     1       7.225   7.761  16.374  0.00  0.00    +0.000 HD
ENDROOT
BRANCH   9  11
ATOM     11  C   UNL     1       3.756   5.180  17.216  0.00  0.00    +0.000 C 
ATOM     12  O   UNL     1       3.349   3.887  17.700  0.00  0.00    +0.000 OA
ATOM     13  C   UNL     1       2.490   4.061  18.847  0.00  0.00    +0.000 C 
ATOM     14  C   UNL     1       1.150   3.392  18.601  0.00  0.00    +0.000 C 
ATOM     15  C   UNL     1       2.391   5.559  19.142  0.00  0.00    +0.000 C 
ATOM     16  C   UNL     1       2.743   6.188  17.807  0.00  0.00    +0.000 C 
BRANCH  15  17
ATOM     17  O   UNL     1       3.367   5.990  20.106  0.00  0.00    +0.000 OA
ATOM     18  H   UNL     1       3.906   5.216  20.348  0.00  0.00    +0.000 HD
ENDBRANCH  15  17
BRANCH  16  19
ATOM     19  O   UNL     1       3.198   7.528  17.961  0.00  0.00    +0.000 OA
ATOM     20  H   UNL     1       3.629   7.549  18.839  0.00  0.00    +0.000 HD
ENDBRANCH  16  19
ENDBRANCH   9  11
TORSDOF 3
ENDMDL
MODEL 9
REMARK VINA RESULT:      -6.1      2.008      4.683
REMARK  Name = 
REMARK  5 active torsions:
REMARK  status: ('A' for Active; 'I' for Inactive)
REMARK    1  A    between atoms: C_1  and  C_2
REMARK    2  A    between atoms: N_9  and  C_10
REMARK    3  A    between atoms: C_12  and  C_13
REMARK    4  A    between atoms: C_14  and  O_15
REMARK    5  A    between atoms: C_16  and  O_17
REMARK                            x       y       z     vdW  Elec       q    Type
REMARK                         _______ _______ _______ _____ _____    ______ ____
ROOT
ATOM      1  C   UNL     1       3.748   7.265  17.719  0.00  0.00    +0.000 C 
ATOM      2  C   UNL     1       3.896   5.789  17.462  0.00  0.00    +0.000 A 
ATOM      3  C   UNL     1       2.904   5.006  17.907  0.00  0.00    +0.000 A 
ATOM      4  C   UNL     1       2.907   3.578  17.618  0.00  0.00    +0.000 A 
ATOM      5  O   UNL     1       2.143   2.809  18.189  0.00  0.00    +0.000 OA
ATOM      6  N   UNL     1       3.794   3.191  16.666  0.00  0.00    +0.000 N 
ATOM      7  C   UNL     1       4.908   3.898  16.305  0.00  0.00    +0.000 A 
ATOM      8  O   UNL     1       5.784   3.337  15.646  0.00  0.00    +0.000 OA
ATOM      9  N   UNL     1       4.968   5.232  16.747  0.00  0.00    +0.000 N 
ATOM     10  H   UNL     1       3.813   2.210  16.437  0.00  0.00    +0.000 HD
ENDROOT
BRANCH   9  11
ATOM     11  C   UNL     1       6.296   5.847  16.542  0.00  0.00    +0.000 C 
ATOM     12  O   UNL     1       6.314   7.270  16.757  0.00  0.00    +0.000 OA
ATOM     13  C   UNL     1       7.021   7.554  17.982  0.00  0.00    +0.000 C 
ATOM     14  C   UNL     1       8.186   8.488  17.708  0.00  0.00    +0.000 C 
ATOM     15  C   UNL     1       7.429   6.222  18.615  0.00  0.00    +0.000 C 
ATOM     16  C   UNL     1       7.425   5.274  17.429  0.00  0.00    +0.000 C 
BRANCH  15  17
ATOM     17  O   UNL     1       6.457   5.749  19.562  0.00  0.00    +0.000 OA
ATOM     18  H   UNL     1       5.655   6.292  19.462  0.00  0.00    +0.000 HD
ENDBRANCH  15  17
BRANCH  16  19
ATOM     19  O   UNL     1       7.283   3.919  17.841  0.00  0.00    +0.000 OA
ATOM     20  H   UNL     1       8.138   3.690  18.258  0.00  0.00    +0.000 HD
ENDBRANCH  16  19
ENDBRANCH   9  11
TORSDOF 3
ENDMDL
