MODEL 1
REMARK VINA RESULT:      -6.7      0.000      0.000
REMARK  Name = 
REMARK  6 active torsions:
REMARK  status: ('A' for Active; 'I' for Inactive)
REMARK    1  A    between atoms: C_1  and  C_2
REMARK    2  A    between atoms: C_2  and  C_3
REMARK    3  A    between atoms: C_3  and  C_4
REMARK    4  A    between atoms: C_4  and  C_5
REMARK    5  A    between atoms: C_5  and  C_6
REMARK    6  A    between atoms: C_9  and  C_10
REMARK                            x       y       z     vdW  Elec       q    Type
REMARK                         _______ _______ _______ _____ _____    ______ ____
ROOT
ATOM      1  C   UNL     1       6.901   4.484  13.476  0.00  0.00    +0.000 A 
ATOM      2  N   UNL     1       7.792   5.416  13.836  0.00  0.00    +0.000 NA
ATOM      3  O   UNL     1       7.636   5.484  15.225  0.00  0.00    +0.000 OA
ATOM      4  C   UNL     1       6.663   4.583  15.543  0.00  0.00    +0.000 A 
ATOM      5  N   UNL     1       6.183   3.940  14.504  0.00  0.00    +0.000 NA
ENDROOT
BRANCH   4   6
ATOM      6  C   UNL     1       6.299   4.436  16.966  0.00  0.00    +0.000 C 
ATOM      7  C   UNL     1       7.236   5.261  17.851  0.00  0.00    +0.000 C 
ATOM      8  N   UNL     1       6.822   5.303  19.265  0.00  0.00    +0.000 NA
ATOM      9  C   UNL     1       5.573   5.144  19.503  0.00  0.00    +0.000 C 
ATOM     10  N   UNL     1       4.577   4.880  18.609  0.00  0.00    +0.000 N 
ATOM     11  C   UNL     1       4.873   4.928  17.193  0.00  0.00    +0.000 C 
ATOM     12  H   UNL     1       3.627   5.105  18.882  0.00  0.00    +0.000 HD
ENDBRANCH   4   6
BRANCH   1  13
ATOM     13  C   UNL     1       6.751   3.978  12.098  0.00  0.00    +0.000 C 
BRANCH  13  14
ATOM     14  C   UNL     1       6.397   2.482  12.032  0.00  0.00    +0.000 C 
BRANCH  14  15
ATOM     15  C   UNL     1       5.127   2.319  11.199  0.00  0.00    +0.000 C 
BRANCH  15  17
ATOM     16  C   UNL     1       3.228   3.678  10.146  0.00  0.00    +0.000 C 
ATOM     17  C   UNL     1       4.044   3.385  11.390  0.00  0.00    +0.000 C 
ENDBRANCH  15  17
ENDBRANCH  14  15
ENDBRANCH  13  14
ENDBRANCH   1  13
TORSDOF 5
ENDMDL
MODEL 2
REMARK VINA RESULT:      -6.6      4.352      6.201
REMARK  Name = 
REMARK  6 active torsions:
REMARK  status: ('A' for Active; 'I' for Inactive)
REMARK    1  A    between atoms: C_1  and  C_2
REMARK    2  A    between atoms: C_2  and  C_3
REMARK    3  A    between atoms: C_3  and  C_4
REMARK    4  A    between atoms: C_4  and  C_5
REMARK    5  A    between atoms: C_5  and  C_6
REMARK    6  A    between atoms: C_9  and  C_10
REMARK                            x       y       z     vdW  Elec       q    Type
REMARK                         _______ _______ _______ _____ _____    ______ ____
ROOT
ATOM      1  C   UNL     1       3.850   2.788  18.641  0.00  0.00    +0.000 A 
ATOM      2  N   UNL     1       4.687   2.546  19.657  0.00  0.00    +0.000 NA
ATOM      3  O   UNL     1       5.517   3.673  19.660  0.00  0.00    +0.000 OA
ATOM      4  C   UNL     1       5.082   4.467  18.640  0.00  0.00    +0.000 A 
ATOM      5  N   UNL     1       4.058   3.970  17.986  0.00  0.00    +0.000 NA
ENDROOT
BRANCH   4   6
ATOM      6  C   UNL     1       5.782   5.748  18.419  0.00  0.00    +0.000 C 
ATOM      7  C   UNL     1       7.213   5.682  18.958  0.00  0.00    +0.000 C 
ATOM      8  N   UNL     1       8.025   6.862  18.613  0.00  0.00    +0.000 NA
ATOM      9  C   UNL     1       7.692   7.500  17.552  0.00  0.00    +0.000 C 
ATOM     10  N   UNL     1       6.633   7.255  16.727  0.00  0.00    +0.000 N 
ATOM     11  C   UNL     1       5.849   6.055  16.927  0.00  0.00    +0.000 C 
ATOM     12  H   UNL     1       6.684   7.612  15.779  0.00  0.00    +0.000 HD
ENDBRANCH   4   6
BRANCH   1  13
ATOM     13  C   UNL     1       2.708   1.921  18.292  0.00  0.00    +0.000 C 
BRANCH  13  14
ATOM     14  C   UNL     1       1.345   2.622  18.430  0.00  0.00    +0.000 C 
BRANCH  14  15
ATOM     15  C   UNL     1       1.072   2.868  19.912  0.00  0.00    +0.000 C 
BRANCH  15  17
ATOM     16  C   UNL     1       2.101   4.964  20.965  0.00  0.00    +0.000 C 
ATOM     17  C   UNL     1       0.877   4.326  20.337  0.00  0.00    +0.000 C 
ENDBRANCH  15  17
ENDBRANCH  14  15
ENDBRANCH  13  14
ENDBRANCH   1  13
TORSDOF 5
ENDMDL
MODEL 3
REMARK VINA RESULT:      -6.6      4.559      6.199
REMARK  Name = 
REMARK  6 active torsions:
REMARK  status: ('A' for Active; 'I' for Inactive)
REMARK    1  A    between atoms: C_1  and  C_2
REMARK    2  A    between atoms: C_2  and  C_3
REMARK    3  A    between atoms: C_3  and  C_4
REMARK    4  A    between atoms: C_4  and  C_5
REMARK    5  A    between atoms: C_5  and  C_6
REMARK    6  A    between atoms: C_9  and  C_10
REMARK                            x       y       z     vdW  Elec       q    Type
REMARK                         _______ _______ _______ _____ _____    ______ ____
ROOT
ATOM      1  C   UNL     1       4.049   3.262  18.363  0.00  0.00    +0.000 A 
ATOM      2  N   UNL     1       4.681   3.013  19.517  0.00  0.00    +0.000 NA
ATOM      3  O   UNL     1       5.787   3.868  19.464  0.00  0.00    +0.000 OA
ATOM      4  C   UNL     1       5.695   4.536  18.279  0.00  0.00    +0.000 A 
ATOM      5  N   UNL     1       4.643   4.202  17.568  0.00  0.00    +0.000 NA
ENDROOT
BRANCH   4   6
ATOM      6  C   UNL     1       6.743   5.527  17.964  0.00  0.00    +0.000 C 
ATOM      7  C   UNL     1       6.137   6.757  17.285  0.00  0.00    +0.000 C 
ATOM      8  N   UNL     1       7.096   7.860  17.103  0.00  0.00    +0.000 NA
ATOM      9  C   UNL     1       8.075   7.913  17.928  0.00  0.00    +0.000 C 
ATOM     10  N   UNL     1       8.376   7.032  18.927  0.00  0.00    +0.000 N 
ATOM     11  C   UNL     1       7.433   5.982  19.246  0.00  0.00    +0.000 C 
ATOM     12  H   UNL     1       8.961   7.364  19.686  0.00  0.00    +0.000 HD
ENDBRANCH   4   6
BRANCH   1  13
ATOM     13  C   UNL     1       2.751   2.667  17.990  0.00  0.00    +0.000 C 
BRANCH  13  14
ATOM     14  C   UNL     1       1.592   3.679  17.996  0.00  0.00    +0.000 C 
BRANCH  14  15
ATOM     15  C   UNL     1       1.233   4.000  19.445  0.00  0.00    +0.000 C 
BRANCH  15  17
ATOM     16  C   UNL     1       1.886   2.975  21.701  0.00  0.00    +0.000 C 
ATOM     17  C   UNL     1       1.124   2.808  20.401  0.00  0.00    +0.000 C 
ENDBRANCH  15  17
ENDBRANCH  14  15
ENDBRANCH  13  14
ENDBRANCH   1  13
TORSDOF 5
ENDMDL
MODEL 4
REMARK VINA RESULT:      -6.6      0.777      1.447
REMARK  Name = 
REMARK  6 active torsions:
REMARK  status: ('A' for Active; 'I' for Inactive)
REMARK    1  A    between atoms: C_1  and  C_2
REMARK    2  A    between atoms: C_2  and  C_3
REMARK    3  A    between atoms: C_3  and  C_4
REMARK    4  A    between atoms: C_4  and  C_5
REMARK    5  A    between atoms: C_5  and  C_6
REMARK    6  A    between atoms: C_9  and  C_10
REMARK                            x       y       z     vdW  Elec       q    Type
REMARK                         _______ _______ _______ _____ _____    ______ ____
ROOT
ATOM      1  C   UNL     1       6.706   4.465  13.595  0.00  0.00    +0.000 A 
ATOM      2  N   UNL     1       7.683   5.301  13.968  0.00  0.00    +0.000 NA
ATOM      3  O   UNL     1       7.363   5.591  15.298  0.00  0.00    +0.000 OA
ATOM      4  C   UNL     1       6.223   4.895  15.575  0.00  0.00    +0.000 A 
ATOM      5  N   UNL     1       5.782   4.185  14.562  0.00  0.00    +0.000 NA
ENDROOT
BRANCH   4   6
ATOM      6  C   UNL     1       5.659   5.010  16.935  0.00  0.00    +0.000 C 
ATOM      7  C   UNL     1       4.521   4.007  17.133  0.00  0.00    +0.000 C 
ATOM      8  N   UNL     1       4.031   3.943  18.521  0.00  0.00    +0.000 NA
ATOM      9  C   UNL     1       4.862   4.267  19.441  0.00  0.00    +0.000 C 
ATOM     10  N   UNL     1       6.139   4.726  19.290  0.00  0.00    +0.000 N 
ATOM     11  C   UNL     1       6.737   4.718  17.973  0.00  0.00    +0.000 C 
ATOM     12  H   UNL     1       6.770   4.625  20.077  0.00  0.00    +0.000 HD
ENDBRANCH   4   6
BRANCH   1  13
ATOM     13  C   UNL     1       6.655   3.792  12.283  0.00  0.00    +0.000 C 
BRANCH  13  14
ATOM     14  C   UNL     1       5.426   2.882  12.111  0.00  0.00    +0.000 C 
BRANCH  14  15
ATOM     15  C   UNL     1       4.806   3.155  10.742  0.00  0.00    +0.000 C 
BRANCH  15  17
ATOM     16  C   UNL     1       2.837   4.265   9.536  0.00  0.00    +0.000 C 
ATOM     17  C   UNL     1       3.301   3.435  10.718  0.00  0.00    +0.000 C 
ENDBRANCH  15  17
ENDBRANCH  14  15
ENDBRANCH  13  14
ENDBRANCH   1  13
TORSDOF 5
ENDMDL
MODEL 5
REMARK VINA RESULT:      -6.5      2.813      4.162
REMARK  Name = 
REMARK  6 active torsions:
REMARK  status: ('A' for Active; 'I' for Inactive)
REMARK    1  A    between atoms: C_1  and  C_2
REMARK    2  A    between atoms: C_2  and  C_3
REMARK    3  A    between atoms: C_3  and  C_4
REMARK    4  A    between atoms: C_4  and  C_5
REMARK    5  A    between atoms: C_5  and  C_6
REMARK    6  A    between atoms: C_9  and  C_10
REMARK                            x       y       z     vdW  Elec       q    Type
REMARK                         _______ _______ _______ _____ _____    ______ ____
ROOT
ATOM      1  C   UNL     1       6.241   4.519  17.325  0.00  0.00    +0.000 A 
ATOM      2  N   UNL     1       6.740   4.574  18.566  0.00  0.00    +0.000 NA
ATOM      3  O   UNL     1       5.695   4.072  19.350  0.00  0.00    +0.000 OA
ATOM      4  C   UNL     1       4.682   3.773  18.487  0.00  0.00    +0.000 A 
ATOM      5  N   UNL     1       4.970   4.026  17.231  0.00  0.00    +0.000 NA
ENDROOT
BRANCH   4   6
ATOM      6  C   UNL     1       3.442   3.205  19.051  0.00  0.00    +0.000 C 
ATOM      7  C   UNL     1       2.374   4.290  19.208  0.00  0.00    +0.000 C 
ATOM      8  N   UNL     1       1.055   3.763  19.598  0.00  0.00    +0.000 NA
ATOM      9  C   UNL     1       0.797   2.553  19.264  0.00  0.00    +0.000 C 
ATOM     10  N   UNL     1       1.621   1.664  18.639  0.00  0.00    +0.000 N 
ATOM     11  C   UNL     1       2.892   2.127  18.124  0.00  0.00    +0.000 C 
ATOM     12  H   UNL     1       1.191   0.885  18.154  0.00  0.00    +0.000 HD
ENDBRANCH   4   6
BRANCH   1  13
ATOM     13  C   UNL     1       7.013   4.856  16.113  0.00  0.00    +0.000 C 
BRANCH  13  14
ATOM     14  C   UNL     1       6.141   4.989  14.851  0.00  0.00    +0.000 C 
BRANCH  14  15
ATOM     15  C   UNL     1       6.179   3.665  14.091  0.00  0.00    +0.000 C 
BRANCH  15  17
ATOM     16  C   UNL     1       5.040   3.218  11.840  0.00  0.00    +0.000 C 
ATOM     17  C   UNL     1       6.259   3.757  12.565  0.00  0.00    +0.000 C 
ENDBRANCH  15  17
ENDBRANCH  14  15
ENDBRANCH  13  14
ENDBRANCH   1  13
TORSDOF 5
ENDMDL
MODEL 6
REMARK VINA RESULT:      -6.5      4.045      5.908
REMARK  Name = 
REMARK  6 active torsions:
REMARK  status: ('A' for Active; 'I' for Inactive)
REMARK    1  A    between atoms: C_1  and  C_2
REMARK    2  A    between atoms: C_2  and  C_3
REMARK    3  A    between atoms: C_3  and  C_4
REMARK    4  A    between atoms: C_4  and  C_5
REMARK    5  A    between atoms: C_5  and  C_6
REMARK    6  A    between atoms: C_9  and  C_10
REMARK                            x       y       z     vdW  Elec       q    Type
REMARK                         _______ _______ _______ _____ _____    ______ ____
ROOT
ATOM      1  C   UNL     1       5.376   4.259  17.170  0.00  0.00    +0.000 A 
ATOM      2  N   UNL     1       4.416   4.146  16.243  0.00  0.00    +0.000 NA
ATOM      3  O   UNL     1       3.332   3.641  16.969  0.00  0.00    +0.000 OA
ATOM      4  C   UNL     1       3.765   3.504  18.254  0.00  0.00    +0.000 A 
ATOM      5  N   UNL     1       5.013   3.875  18.430  0.00  0.00    +0.000 NA
ENDROOT
BRANCH   4   6
ATOM      6  C   UNL     1       2.806   2.994  19.254  0.00  0.00    +0.000 C 
ATOM      7  C   UNL     1       3.491   2.800  20.608  0.00  0.00    +0.000 C 
ATOM      8  N   UNL     1       2.555   2.462  21.696  0.00  0.00    +0.000 NA
ATOM      9  C   UNL     1       1.346   2.864  21.560  0.00  0.00    +0.000 C 
ATOM     10  N   UNL     1       0.797   3.520  20.497  0.00  0.00    +0.000 N 
ATOM     11  C   UNL     1       1.663   3.987  19.436  0.00  0.00    +0.000 C 
ATOM     12  H   UNL     1      -0.050   4.054  20.660  0.00  0.00    +0.000 HD
ENDBRANCH   4   6
BRANCH   1  13
ATOM     13  C   UNL     1       6.703   4.849  16.912  0.00  0.00    +0.000 C 
BRANCH  13  14
ATOM     14  C   UNL     1       7.611   4.876  18.154  0.00  0.00    +0.000 C 
BRANCH  14  15
ATOM     15  C   UNL     1       7.764   6.325  18.614  0.00  0.00    +0.000 C 
BRANCH  15  17
ATOM     16  C   UNL     1       8.107   8.758  17.886  0.00  0.00    +0.000 C 
ATOM     17  C   UNL     1       7.500   7.406  17.562  0.00  0.00    +0.000 C 
ENDBRANCH  15  17
ENDBRANCH  14  15
ENDBRANCH  13  14
ENDBRANCH   1  13
TORSDOF 5
ENDMDL
MODEL 7
REMARK VINA RESULT:      -6.4      2.056      3.114
REMARK  Name = 
REMARK  6 active torsions:
REMARK  status: ('A' for Active; 'I' for Inactive)
REMARK    1  A    between atoms: C_1  and  C_2
REMARK    2  A    between atoms: C_2  and  C_3
REMARK    3  A    between atoms: C_3  and  C_4
REMARK    4  A    between atoms: C_4  and  C_5
REMARK    5  A    between atoms: C_5  and  C_6
REMARK    6  A    between atoms: C_9  and  C_10
REMARK                            x       y       z     vdW  Elec       q    Type
REMARK                         _______ _______ _______ _____ _____    ______ ____
ROOT
ATOM      1  C   UNL     1       6.749   4.646  16.427  0.00  0.00    +0.000 A 
ATOM      2  N   UNL     1       7.759   4.547  17.300  0.00  0.00    +0.000 NA
ATOM      3  O   UNL     1       7.105   4.440  18.532  0.00  0.00    +0.000 OA
ATOM      4  C   UNL     1       5.770   4.488  18.259  0.00  0.00    +0.000 A 
ATOM      5  N   UNL     1       5.500   4.610  16.979  0.00  0.00    +0.000 NA
ENDROOT
BRANCH   4   6
ATOM      6  C   UNL     1       4.830   4.383  19.392  0.00  0.00    +0.000 C 
ATOM      7  C   UNL     1       3.725   5.435  19.277  0.00  0.00    +0.000 C 
ATOM      8  N   UNL     1       2.655   5.273  20.278  0.00  0.00    +0.000 NA
ATOM      9  C   UNL     1       2.468   4.091  20.734  0.00  0.00    +0.000 C 
ATOM     10  N   UNL     1       3.181   2.962  20.452  0.00  0.00    +0.000 N 
ATOM     11  C   UNL     1       4.177   3.005  19.403  0.00  0.00    +0.000 C 
ATOM     12  H   UNL     1       2.732   2.068  20.616  0.00  0.00    +0.000 HD
ENDBRANCH   4   6
BRANCH   1  13
ATOM     13  C   UNL     1       6.928   4.683  14.963  0.00  0.00    +0.000 C 
BRANCH  13  14
ATOM     14  C   UNL     1       5.983   3.731  14.208  0.00  0.00    +0.000 C 
BRANCH  14  15
ATOM     15  C   UNL     1       6.400   3.695  12.739  0.00  0.00    +0.000 C 
BRANCH  15  17
ATOM     16  C   UNL     1       5.759   1.671  11.305  0.00  0.00    +0.000 C 
ATOM     17  C   UNL     1       5.400   3.072  11.761  0.00  0.00    +0.000 C 
ENDBRANCH  15  17
ENDBRANCH  14  15
ENDBRANCH  13  14
ENDBRANCH   1  13
TORSDOF 5
ENDMDL
MODEL 8
REMARK VINA RESULT:      -6.4      1.189      1.333
REMARK  Name = 
REMARK  6 active torsions:
REMARK  status: ('A' for Active; 'I' for Inactive)
REMARK    1  A    between atoms: C_1  and  C_2
REMARK    2  A    between atoms: C_2  and  C_3
REMARK    3  A    between atoms: C_3  and  C_4
REMARK    4  A    between atoms: C_4  and  C_5
REMARK    5  A    between atoms: C_5  and  C_6
REMARK    6  A    between atoms: C_9  and  C_10
REMARK                            x       y       z     vdW  Elec       q    Type
REMARK                         _______ _______ _______ _____ _____    ______ ____
ROOT
ATOM      1  C   UNL     1       6.595   4.487  14.138  0.00  0.00    +0.000 A 
ATOM      2  N   UNL     1       7.596   5.197  14.671  0.00  0.00    +0.000 NA
ATOM      3  O   UNL     1       7.270   5.235  16.031  0.00  0.00    +0.000 OA
ATOM      4  C   UNL     1       6.103   4.541  16.161  0.00  0.00    +0.000 A 
ATOM      5  N   UNL     1       5.650   4.058  15.028  0.00  0.00    +0.000 NA
ENDROOT
BRANCH   4   6
ATOM      6  C   UNL     1       5.528   4.410  17.514  0.00  0.00    +0.000 C 
ATOM      7  C   UNL     1       5.059   5.770  18.036  0.00  0.00    +0.000 C 
ATOM      8  N   UNL     1       4.313   5.687  19.305  0.00  0.00    +0.000 NA
ATOM      9  C   UNL     1       3.706   4.585  19.544  0.00  0.00    +0.000 C 
ATOM     10  N   UNL     1       3.711   3.446  18.791  0.00  0.00    +0.000 N 
ATOM     11  C   UNL     1       4.325   3.473  17.481  0.00  0.00    +0.000 C 
ATOM     12  H   UNL     1       2.947   2.793  18.922  0.00  0.00    +0.000 HD
ENDBRANCH   4   6
BRANCH   1  13
ATOM     13  C   UNL     1       6.535   4.084  12.720  0.00  0.00    +0.000 C 
BRANCH  13  14
ATOM     14  C   UNL     1       5.508   2.973  12.443  0.00  0.00    +0.000 C 
BRANCH  14  15
ATOM     15  C   UNL     1       4.964   3.154  11.027  0.00  0.00    +0.000 C 
BRANCH  15  17
ATOM     16  C   UNL     1       3.011   4.116   9.676  0.00  0.00    +0.000 C 
ATOM     17  C   UNL     1       3.448   3.329  10.896  0.00  0.00    +0.000 C 
ENDBRANCH  15  17
ENDBRANCH  14  15
ENDBRANCH  13  14
ENDBRANCH   1  13
TORSDOF 5
ENDMDL
MODEL 9
REMARK VINA RESULT:      -6.3      1.340      2.064
REMARK  Name = 
REMARK  6 active torsions:
REMARK  status: ('A' for Active; 'I' for Inactive)
REMARK    1  A    between atoms: C_1  and  C_2
REMARK    2  A    between atoms: C_2  and  C_3
REMARK    3  A    between atoms: C_3  and  C_4
REMARK    4  A    between atoms: C_4  and  C_5
REMARK    5  A    between atoms: C_5  and  C_6
REMARK    6  A    between atoms: C_9  and  C_10
REMARK                            x       y       z     vdW  Elec       q    Type
REMARK                         _______ _______ _______ _____ _____    ______ ____
ROOT
ATOM      1  C   UNL     1       6.614   4.509  14.096  0.00  0.00    +0.000 A 
ATOM      2  N   UNL     1       7.610   5.357  14.379  0.00  0.00    +0.000 NA
ATOM      3  O   UNL     1       7.295   5.799  15.669  0.00  0.00    +0.000 OA
ATOM      4  C   UNL     1       6.138   5.164  16.015  0.00  0.00    +0.000 A 
ATOM      5  N   UNL     1       5.682   4.358  15.085  0.00  0.00    +0.000 NA
ENDROOT
BRANCH   4   6
ATOM      6  C   UNL     1       5.575   5.440  17.352  0.00  0.00    +0.000 C 
ATOM      7  C   UNL     1       4.284   6.253  17.237  0.00  0.00    +0.000 C 
ATOM      8  N   UNL     1       3.575   6.412  18.519  0.00  0.00    +0.000 NA
ATOM      9  C   UNL     1       3.766   5.502  19.399  0.00  0.00    +0.000 C 
ATOM     10  N   UNL     1       4.599   4.424  19.320  0.00  0.00    +0.000 N 
ATOM     11  C   UNL     1       5.251   4.130  18.062  0.00  0.00    +0.000 C 
ATOM     12  H   UNL     1       4.406   3.634  19.927  0.00  0.00    +0.000 HD
ENDBRANCH   4   6
BRANCH   1  13
ATOM     13  C   UNL     1       6.548   3.698  12.865  0.00  0.00    +0.000 C 
BRANCH  13  14
ATOM     14  C   UNL     1       5.127   3.578  12.287  0.00  0.00    +0.000 C 
BRANCH  14  15
ATOM     15  C   UNL     1       5.068   2.341  11.393  0.00  0.00    +0.000 C 
BRANCH  15  17
ATOM     16  C   UNL     1       6.175   0.034  11.263  0.00  0.00    +0.000 C 
ATOM     17  C   UNL     1       6.364   1.539  11.251  0.00  0.00    +0.000 C 
ENDBRANCH  15  17
ENDBRANCH  14  15
ENDBRANCH  13  14
ENDBRANCH   1  13
TORSDOF 5
ENDMDL
