MODEL 1
REMARK VINA RESULT:      -7.8      0.000      0.000
REMARK  Name = 
REMARK  2 active torsions:
REMARK  status: ('A' for Active; 'I' for Inactive)
REMARK    1  A    between atoms: C_8  and  N_9
REMARK    2  A    between atoms: C_20  and  N_21
REMARK                            x       y       z     vdW  Elec       q    Type
REMARK                         _______ _______ _______ _____ _____    ______ ____
ROOT
ATOM      1  C   UNL     1       0.025  12.274  20.189  0.00  0.00    +0.000 A 
ATOM      2  C   UNL     1       0.721  11.649  19.148  0.00  0.00    +0.000 A 
ATOM      3  C   UNL     1       1.141  10.339  19.269  0.00  0.00    +0.000 A 
ATOM      4  N   UNL     1       1.819   9.756  18.277  0.00  0.00    +0.000 NA
ATOM      5  C   UNL     1       2.176   8.492  18.519  0.00  0.00    +0.000 A 
ATOM      6  C   UNL     1       2.907   7.790  17.582  0.00  0.00    +0.000 A 
ATOM      7  C   UNL     1       3.298   6.471  17.831  0.00  0.00    +0.000 A 
ATOM      8  C   UNL     1       2.965   5.799  19.017  0.00  0.00    +0.000 A 
ATOM      9  C   UNL     1       2.204   6.506  19.957  0.00  0.00    +0.000 A 
ATOM     10  C   UNL     1       1.827   7.837  19.731  0.00  0.00    +0.000 A 
ATOM     11  O   UNL     1       1.175   8.429  20.650  0.00  0.00    +0.000 OA
ATOM     12  C   UNL     1       0.839   9.643  20.472  0.00  0.00    +0.000 A 
ATOM     13  C   UNL     1       0.159  10.287  21.510  0.00  0.00    +0.000 A 
ATOM     14  C   UNL     1      -0.264  11.619  21.395  0.00  0.00    +0.000 A 
ENDROOT
BRANCH   8  15
ATOM     15  N   UNL     1       3.386   4.511  19.243  0.00  0.00    +0.000 N 
ATOM     16  C   UNL     1       4.360   3.818  18.370  0.00  0.00    +0.000 C 
ATOM     17  C   UNL     1       3.757   2.513  17.836  0.00  0.00    +0.000 C 
ATOM     18  O   UNL     1       3.319   1.671  18.913  0.00  0.00    +0.000 OA
ATOM     19  C   UNL     1       2.315   2.334  19.698  0.00  0.00    +0.000 C 
ATOM     20  C   UNL     1       2.842   3.648  20.310  0.00  0.00    +0.000 C 
ENDBRANCH   8  15
BRANCH  14  21
ATOM     21  N   UNL     1      -0.925  12.257  22.416  0.00  0.00    +0.000 N 
ATOM     22  C   UNL     1      -1.940  11.602  23.273  0.00  0.00    +0.000 C 
ATOM     23  C   UNL     1      -3.253  12.400  23.259  0.00  0.00    +0.000 C 
ATOM     24  O   UNL     1      -3.035  13.776  23.610  0.00  0.00    +0.000 OA
ATOM     25  C   UNL     1      -2.121  14.392  22.691  0.00  0.00    +0.000 C 
ATOM     26  C   UNL     1      -0.750  13.693  22.710  0.00  0.00    +0.000 C 
ENDBRANCH  14  21
TORSDOF 2
ENDMDL
MODEL 2
REMARK VINA RESULT:      -7.8      0.155      8.949
REMARK  Name = 
REMARK  2 active torsions:
REMARK  status: ('A' for Active; 'I' for Inactive)
REMARK    1  A    between atoms: C_8  and  N_9
REMARK    2  A    between atoms: C_20  and  N_21
REMARK                            x       y       z     vdW  Elec       q    Type
REMARK                         _______ _______ _______ _____ _____    ______ ____
ROOT
ATOM      1  C   UNL     1       3.188   6.363  17.837  0.00  0.00    +0.000 A 
ATOM      2  C   UNL     1       2.828   7.691  17.579  0.00  0.00    +0.000 A 
ATOM      3  C   UNL     1       2.167   8.439  18.533  0.00  0.00    +0.000 A 
ATOM      4  N   UNL     1       1.812   9.700  18.271  0.00  0.00    +0.000 NA
ATOM      5  C   UNL     1       1.173  10.313  19.270  0.00  0.00    +0.000 A 
ATOM      6  C   UNL     1       0.728  11.610  19.112  0.00  0.00    +0.000 A 
ATOM      7  C   UNL     1       0.044  12.257  20.146  0.00  0.00    +0.000 A 
ATOM      8  C   UNL     1      -0.211  11.639  21.380  0.00  0.00    +0.000 A 
ATOM      9  C   UNL     1       0.260  10.330  21.546  0.00  0.00    +0.000 A 
ATOM     10  C   UNL     1       0.924   9.662  20.510  0.00  0.00    +0.000 A 
ATOM     11  O   UNL     1       1.284   8.459  20.718  0.00  0.00    +0.000 OA
ATOM     12  C   UNL     1       1.872   7.829  19.783  0.00  0.00    +0.000 A 
ATOM     13  C   UNL     1       2.222   6.496  20.019  0.00  0.00    +0.000 A 
ATOM     14  C   UNL     1       2.888   5.729  19.052  0.00  0.00    +0.000 A 
ENDROOT
BRANCH   8  15
ATOM     15  N   UNL     1      -0.909  12.292  22.368  0.00  0.00    +0.000 N 
ATOM     16  C   UNL     1      -1.930  11.625  23.206  0.00  0.00    +0.000 C 
ATOM     17  C   UNL     1      -3.270  12.363  23.096  0.00  0.00    +0.000 C 
ATOM     18  O   UNL     1      -3.123  13.748  23.441  0.00  0.00    +0.000 OA
ATOM     19  C   UNL     1      -2.188  14.393  22.563  0.00  0.00    +0.000 C 
ATOM     20  C   UNL     1      -0.792  13.739  22.631  0.00  0.00    +0.000 C 
ENDBRANCH   8  15
BRANCH  14  21
ATOM     21  N   UNL     1       3.225   4.417  19.277  0.00  0.00    +0.000 N 
ATOM     22  C   UNL     1       4.240   3.683  18.487  0.00  0.00    +0.000 C 
ATOM     23  C   UNL     1       3.640   2.391  17.908  0.00  0.00    +0.000 C 
ATOM     24  O   UNL     1       3.046   1.582  18.935  0.00  0.00    +0.000 OA
ATOM     25  C   UNL     1       2.003   2.305  19.605  0.00  0.00    +0.000 C 
ATOM     26  C   UNL     1       2.546   3.576  20.282  0.00  0.00    +0.000 C 
ENDBRANCH  14  21
TORSDOF 2
ENDMDL
MODEL 3
REMARK VINA RESULT:      -7.7      1.167      1.464
REMARK  Name = 
REMARK  2 active torsions:
REMARK  status: ('A' for Active; 'I' for Inactive)
REMARK    1  A    between atoms: C_8  and  N_9
REMARK    2  A    between atoms: C_20  and  N_21
REMARK                            x       y       z     vdW  Elec       q    Type
REMARK                         _______ _______ _______ _____ _____    ______ ____
ROOT
ATOM      1  C   UNL     1      -1.361  12.915  20.799  0.00  0.00    +0.000 A 
ATOM      2  C   UNL     1      -0.700  12.364  19.695  0.00  0.00    +0.000 A 
ATOM      3  C   UNL     1      -0.045  11.153  19.799  0.00  0.00    +0.000 A 
ATOM      4  N   UNL     1       0.598  10.643  18.744  0.00  0.00    +0.000 NA
ATOM      5  C   UNL     1       1.196   9.472  18.974  0.00  0.00    +0.000 A 
ATOM      6  C   UNL     1       1.918   8.857  17.971  0.00  0.00    +0.000 A 
ATOM      7  C   UNL     1       2.561   7.638  18.206  0.00  0.00    +0.000 A 
ATOM      8  C   UNL     1       2.499   6.981  19.444  0.00  0.00    +0.000 A 
ATOM      9  C   UNL     1       1.747   7.596  20.453  0.00  0.00    +0.000 A 
ATOM     10  C   UNL     1       1.119   8.830  20.240  0.00  0.00    +0.000 A 
ATOM     11  O   UNL     1       0.491   9.349  21.218  0.00  0.00    +0.000 OA
ATOM     12  C   UNL     1      -0.071  10.478  21.050  0.00  0.00    +0.000 A 
ATOM     13  C   UNL     1      -0.720  11.049  22.148  0.00  0.00    +0.000 A 
ATOM     14  C   UNL     1      -1.380  12.283  22.050  0.00  0.00    +0.000 A 
ENDROOT
BRANCH   8  15
ATOM     15  N   UNL     1       3.163   5.796  19.651  0.00  0.00    +0.000 N 
ATOM     16  C   UNL     1       4.472   5.489  19.033  0.00  0.00    +0.000 C 
ATOM     17  C   UNL     1       4.381   4.193  18.217  0.00  0.00    +0.000 C 
ATOM     18  O   UNL     1       3.912   3.107  19.030  0.00  0.00    +0.000 OA
ATOM     19  C   UNL     1       2.605   3.394  19.553  0.00  0.00    +0.000 C 
ATOM     20  C   UNL     1       2.603   4.668  20.422  0.00  0.00    +0.000 C 
ENDBRANCH   8  15
BRANCH  14  21
ATOM     21  N   UNL     1      -2.012  12.851  23.130  0.00  0.00    +0.000 N 
ATOM     22  C   UNL     1      -3.281  12.343  23.700  0.00  0.00    +0.000 C 
ATOM     23  C   UNL     1      -4.332  13.463  23.757  0.00  0.00    +0.000 C 
ATOM     24  O   UNL     1      -3.834  14.615  24.454  0.00  0.00    +0.000 OA
ATOM     25  C   UNL     1      -2.661  15.129  23.806  0.00  0.00    +0.000 C 
ATOM     26  C   UNL     1      -1.530  14.085  23.783  0.00  0.00    +0.000 C 
ENDBRANCH  14  21
TORSDOF 2
ENDMDL
MODEL 4
REMARK VINA RESULT:      -7.7      1.090      8.821
REMARK  Name = 
REMARK  2 active torsions:
REMARK  status: ('A' for Active; 'I' for Inactive)
REMARK    1  A    between atoms: C_8  and  N_9
REMARK    2  A    between atoms: C_20  and  N_21
REMARK                            x       y       z     vdW  Elec       q    Type
REMARK                         _______ _______ _______ _____ _____    ______ ____
ROOT
ATOM      1  C   UNL     1       3.121   6.904  18.233  0.00  0.00    +0.000 A 
ATOM      2  C   UNL     1       2.639   8.137  17.779  0.00  0.00    +0.000 A 
ATOM      3  C   UNL     1       1.796   8.896  18.566  0.00  0.00    +0.000 A 
ATOM      4  N   UNL     1       1.328  10.065  18.117  0.00  0.00    +0.000 NA
ATOM      5  C   UNL     1       0.517  10.699  18.967  0.00  0.00    +0.000 A 
ATOM      6  C   UNL     1      -0.055  11.903  18.607  0.00  0.00    +0.000 A 
ATOM      7  C   UNL     1      -0.917  12.568  19.484  0.00  0.00    +0.000 A 
ATOM      8  C   UNL     1      -1.232  12.065  20.755  0.00  0.00    +0.000 A 
ATOM      9  C   UNL     1      -0.633  10.855  21.127  0.00  0.00    +0.000 A 
ATOM     10  C   UNL     1       0.213  10.164  20.249  0.00  0.00    +0.000 A 
ATOM     11  O   UNL     1       0.684   9.048  20.638  0.00  0.00    +0.000 OA
ATOM     12  C   UNL     1       1.440   8.398  19.849  0.00  0.00    +0.000 A 
ATOM     13  C   UNL     1       1.914   7.156  20.281  0.00  0.00    +0.000 A 
ATOM     14  C   UNL     1       2.765   6.377  19.484  0.00  0.00    +0.000 A 
ENDROOT
BRANCH   8  15
ATOM     15  N   UNL     1      -2.104  12.730  21.584  0.00  0.00    +0.000 N 
ATOM     16  C   UNL     1      -1.967  12.734  23.057  0.00  0.00    +0.000 C 
ATOM     17  C   UNL     1      -3.251  12.204  23.710  0.00  0.00    +0.000 C 
ATOM     18  O   UNL     1      -4.393  12.960  23.281  0.00  0.00    +0.000 OA
ATOM     19  C   UNL     1      -4.552  12.875  21.857  0.00  0.00    +0.000 C 
ATOM     20  C   UNL     1      -3.319  13.420  21.109  0.00  0.00    +0.000 C 
ENDBRANCH   8  15
BRANCH  14  21
ATOM     21  N   UNL     1       3.226   5.153  19.902  0.00  0.00    +0.000 N 
ATOM     22  C   UNL     1       4.449   4.510  19.369  0.00  0.00    +0.000 C 
ATOM     23  C   UNL     1       4.133   3.099  18.846  0.00  0.00    +0.000 C 
ATOM     24  O   UNL     1       3.479   2.303  19.847  0.00  0.00    +0.000 OA
ATOM     25  C   UNL     1       2.250   2.920  20.258  0.00  0.00    +0.000 C 
ATOM     26  C   UNL     1       2.497   4.310  20.871  0.00  0.00    +0.000 C 
ENDBRANCH  14  21
TORSDOF 2
ENDMDL
MODEL 5
REMARK VINA RESULT:      -7.5      2.532      9.390
REMARK  Name = 
REMARK  2 active torsions:
REMARK  status: ('A' for Active; 'I' for Inactive)
REMARK    1  A    between atoms: C_8  and  N_9
REMARK    2  A    between atoms: C_20  and  N_21
REMARK                            x       y       z     vdW  Elec       q    Type
REMARK                         _______ _______ _______ _____ _____    ______ ____
ROOT
ATOM      1  C   UNL     1       3.686   4.693  19.441  0.00  0.00    +0.000 A 
ATOM      2  C   UNL     1       2.789   5.354  20.288  0.00  0.00    +0.000 A 
ATOM      3  C   UNL     1       2.310   6.608  19.965  0.00  0.00    +0.000 A 
ATOM      4  N   UNL     1       1.468   7.239  20.789  0.00  0.00    +0.000 NA
ATOM      5  C   UNL     1       1.084   8.447  20.368  0.00  0.00    +0.000 A 
ATOM      6  C   UNL     1       0.237   9.211  21.145  0.00  0.00    +0.000 A 
ATOM      7  C   UNL     1      -0.159  10.483  20.722  0.00  0.00    +0.000 A 
ATOM      8  C   UNL     1       0.264  11.036  19.503  0.00  0.00    +0.000 A 
ATOM      9  C   UNL     1       1.106  10.249  18.706  0.00  0.00    +0.000 A 
ATOM     10  C   UNL     1       1.531   8.984  19.130  0.00  0.00    +0.000 A 
ATOM     11  O   UNL     1       2.332   8.346  18.373  0.00  0.00    +0.000 OA
ATOM     12  C   UNL     1       2.744   7.202  18.749  0.00  0.00    +0.000 A 
ATOM     13  C   UNL     1       3.654   6.537  17.922  0.00  0.00    +0.000 A 
ATOM     14  C   UNL     1       4.148   5.266  18.248  0.00  0.00    +0.000 A 
ENDROOT
BRANCH   8  15
ATOM     15  N   UNL     1      -0.122  12.300  19.127  0.00  0.00    +0.000 N 
ATOM     16  C   UNL     1       0.792  13.256  18.464  0.00  0.00    +0.000 C 
ATOM     17  C   UNL     1       0.875  14.557  19.273  0.00  0.00    +0.000 C 
ATOM     18  O   UNL     1      -0.430  15.122  19.471  0.00  0.00    +0.000 OA
ATOM     19  C   UNL     1      -1.275  14.207  20.187  0.00  0.00    +0.000 C 
ATOM     20  C   UNL     1      -1.448  12.874  19.430  0.00  0.00    +0.000 C 
ENDBRANCH   8  15
BRANCH  14  21
ATOM     21  N   UNL     1       5.049   4.614  17.442  0.00  0.00    +0.000 N 
ATOM     22  C   UNL     1       6.491   4.489  17.755  0.00  0.00    +0.000 C 
ATOM     23  C   UNL     1       7.344   5.017  16.590  0.00  0.00    +0.000 C 
ATOM     24  O   UNL     1       6.989   4.383  15.352  0.00  0.00    +0.000 OA
ATOM     25  C   UNL     1       5.607   4.616  15.043  0.00  0.00    +0.000 C 
ATOM     26  C   UNL     1       4.684   4.040  16.132  0.00  0.00    +0.000 C 
ENDBRANCH  14  21
TORSDOF 2
ENDMDL
MODEL 6
REMARK VINA RESULT:      -7.5      1.064      1.520
REMARK  Name = 
REMARK  2 active torsions:
REMARK  status: ('A' for Active; 'I' for Inactive)
REMARK    1  A    between atoms: C_8  and  N_9
REMARK    2  A    between atoms: C_20  and  N_21
REMARK                            x       y       z     vdW  Elec       q    Type
REMARK                         _______ _______ _______ _____ _____    ______ ____
ROOT
ATOM      1  C   UNL     1      -1.073  12.856  19.542  0.00  0.00    +0.000 A 
ATOM      2  C   UNL     1      -0.277  12.165  18.621  0.00  0.00    +0.000 A 
ATOM      3  C   UNL     1       0.299  10.956  18.956  0.00  0.00    +0.000 A 
ATOM      4  N   UNL     1       1.071  10.313  18.075  0.00  0.00    +0.000 NA
ATOM      5  C   UNL     1       1.575   9.159  18.521  0.00  0.00    +0.000 A 
ATOM      6  C   UNL     1       2.413   8.415  17.715  0.00  0.00    +0.000 A 
ATOM      7  C   UNL     1       2.957   7.213  18.177  0.00  0.00    +0.000 A 
ATOM      8  C   UNL     1       2.678   6.702  19.454  0.00  0.00    +0.000 A 
ATOM      9  C   UNL     1       1.810   7.448  20.261  0.00  0.00    +0.000 A 
ATOM     10  C   UNL     1       1.277   8.667  19.821  0.00  0.00    +0.000 A 
ATOM     11  O   UNL     1       0.532   9.311  20.627  0.00  0.00    +0.000 OA
ATOM     12  C   UNL     1       0.053  10.428  20.253  0.00  0.00    +0.000 A 
ATOM     13  C   UNL     1      -0.729  11.138  21.168  0.00  0.00    +0.000 A 
ATOM     14  C   UNL     1      -1.311  12.370  20.836  0.00  0.00    +0.000 A 
ENDROOT
BRANCH   8  15
ATOM     15  N   UNL     1       3.249   5.530  19.888  0.00  0.00    +0.000 N 
ATOM     16  C   UNL     1       4.573   5.061  19.424  0.00  0.00    +0.000 C 
ATOM     17  C   UNL     1       4.453   3.659  18.811  0.00  0.00    +0.000 C 
ATOM     18  O   UNL     1       3.862   2.741  19.743  0.00  0.00    +0.000 OA
ATOM     19  C   UNL     1       2.546   3.176  20.117  0.00  0.00    +0.000 C 
ATOM     20  C   UNL     1       2.568   4.569  20.778  0.00  0.00    +0.000 C 
ENDBRANCH   8  15
BRANCH  14  21
ATOM     21  N   UNL     1      -2.073  13.074  21.736  0.00  0.00    +0.000 N 
ATOM     22  C   UNL     1      -1.619  14.317  22.402  0.00  0.00    +0.000 C 
ATOM     23  C   UNL     1      -1.729  14.182  23.929  0.00  0.00    +0.000 C 
ATOM     24  O   UNL     1      -3.052  13.791  24.327  0.00  0.00    +0.000 OA
ATOM     25  C   UNL     1      -3.406  12.533  23.735  0.00  0.00    +0.000 C 
ATOM     26  C   UNL     1      -3.398  12.614  22.198  0.00  0.00    +0.000 C 
ENDBRANCH  14  21
TORSDOF 2
ENDMDL
MODEL 7
REMARK VINA RESULT:      -7.5      2.562      9.296
REMARK  Name = 
REMARK  2 active torsions:
REMARK  status: ('A' for Active; 'I' for Inactive)
REMARK    1  A    between atoms: C_8  and  N_9
REMARK    2  A    between atoms: C_20  and  N_21
REMARK                            x       y       z     vdW  Elec       q    Type
REMARK                         _______ _______ _______ _____ _____    ______ ____
ROOT
ATOM      1  C   UNL     1       3.823   4.307  19.232  0.00  0.00    +0.000 A 
ATOM      2  C   UNL     1       2.900   4.798  20.163  0.00  0.00    +0.000 A 
ATOM      3  C   UNL     1       2.390   6.075  20.043  0.00  0.00    +0.000 A 
ATOM      4  N   UNL     1       1.522   6.540  20.947  0.00  0.00    +0.000 NA
ATOM      5  C   UNL     1       1.109   7.790  20.724  0.00  0.00    +0.000 A 
ATOM      6  C   UNL     1       0.234   8.395  21.604  0.00  0.00    +0.000 A 
ATOM      7  C   UNL     1      -0.193   9.709  21.388  0.00  0.00    +0.000 A 
ATOM      8  C   UNL     1       0.226  10.464  20.282  0.00  0.00    +0.000 A 
ATOM      9  C   UNL     1       1.097   9.841  19.379  0.00  0.00    +0.000 A 
ATOM     10  C   UNL     1       1.553   8.534  19.596  0.00  0.00    +0.000 A 
ATOM     11  O   UNL     1       2.378   8.050  18.757  0.00  0.00    +0.000 OA
ATOM     12  C   UNL     1       2.818   6.872  18.946  0.00  0.00    +0.000 A 
ATOM     13  C   UNL     1       3.754   6.374  18.034  0.00  0.00    +0.000 A 
ATOM     14  C   UNL     1       4.280   5.081  18.155  0.00  0.00    +0.000 A 
ENDROOT
BRANCH   8  15
ATOM     15  N   UNL     1      -0.192  11.762  20.112  0.00  0.00    +0.000 N 
ATOM     16  C   UNL     1      -1.080  12.182  19.005  0.00  0.00    +0.000 C 
ATOM     17  C   UNL     1      -0.415  13.295  18.186  0.00  0.00    +0.000 C 
ATOM     18  O   UNL     1      -0.053  14.403  19.024  0.00  0.00    +0.000 OA
ATOM     19  C   UNL     1       0.872  13.988  20.040  0.00  0.00    +0.000 C 
ATOM     20  C   UNL     1       0.277  12.888  20.943  0.00  0.00    +0.000 C 
ENDBRANCH   8  15
BRANCH  14  21
ATOM     21  N   UNL     1       5.207   4.592  17.266  0.00  0.00    +0.000 N 
ATOM     22  C   UNL     1       6.671   4.706  17.460  0.00  0.00    +0.000 C 
ATOM     23  C   UNL     1       7.325   5.376  16.241  0.00  0.00    +0.000 C 
ATOM     24  O   UNL     1       6.978   4.701  15.022  0.00  0.00    +0.000 OA
ATOM     25  C   UNL     1       5.556   4.705  14.830  0.00  0.00    +0.000 C 
ATOM     26  C   UNL     1       4.834   3.975  15.977  0.00  0.00    +0.000 C 
ENDBRANCH  14  21
TORSDOF 2
ENDMDL
MODEL 8
REMARK VINA RESULT:      -7.4      2.808      9.507
REMARK  Name = 
REMARK  2 active torsions:
REMARK  status: ('A' for Active; 'I' for Inactive)
REMARK    1  A    between atoms: C_8  and  N_9
REMARK    2  A    between atoms: C_20  and  N_21
REMARK                            x       y       z     vdW  Elec       q    Type
REMARK                         _______ _______ _______ _____ _____    ______ ____
ROOT
ATOM      1  C   UNL     1       4.511   3.988  18.571  0.00  0.00    +0.000 A 
ATOM      2  C   UNL     1       3.667   4.454  19.586  0.00  0.00    +0.000 A 
ATOM      3  C   UNL     1       3.075   5.697  19.493  0.00  0.00    +0.000 A 
ATOM      4  N   UNL     1       2.285   6.140  20.476  0.00  0.00    +0.000 NA
ATOM      5  C   UNL     1       1.779   7.359  20.271  0.00  0.00    +0.000 A 
ATOM      6  C   UNL     1       0.970   7.940  21.227  0.00  0.00    +0.000 A 
ATOM      7  C   UNL     1       0.447   9.222  21.030  0.00  0.00    +0.000 A 
ATOM      8  C   UNL     1       0.701   9.967  19.868  0.00  0.00    +0.000 A 
ATOM      9  C   UNL     1       1.504   9.366  18.890  0.00  0.00    +0.000 A 
ATOM     10  C   UNL     1       2.055   8.093  19.085  0.00  0.00    +0.000 A 
ATOM     11  O   UNL     1       2.812   7.631  18.172  0.00  0.00    +0.000 OA
ATOM     12  C   UNL     1       3.336   6.484  18.338  0.00  0.00    +0.000 A 
ATOM     13  C   UNL     1       4.195   6.013  17.342  0.00  0.00    +0.000 A 
ATOM     14  C   UNL     1       4.805   4.754  17.433  0.00  0.00    +0.000 A 
ENDROOT
BRANCH   8  15
ATOM     15  N   UNL     1       0.194  11.235  19.715  0.00  0.00    +0.000 N 
ATOM     16  C   UNL     1      -1.215  11.497  19.344  0.00  0.00    +0.000 C 
ATOM     17  C   UNL     1      -1.277  12.349  18.070  0.00  0.00    +0.000 C 
ATOM     18  O   UNL     1      -0.535  13.568  18.231  0.00  0.00    +0.000 OA
ATOM     19  C   UNL     1       0.845  13.287  18.510  0.00  0.00    +0.000 C 
ATOM     20  C   UNL     1       1.013  12.460  19.801  0.00  0.00    +0.000 C 
ENDBRANCH   8  15
BRANCH  14  21
ATOM     21  N   UNL     1       5.657   4.291  16.460  0.00  0.00    +0.000 N 
ATOM     22  C   UNL     1       7.092   4.650  16.386  0.00  0.00    +0.000 C 
ATOM     23  C   UNL     1       7.432   5.235  15.006  0.00  0.00    +0.000 C 
ATOM     24  O   UNL     1       7.026   4.352  13.949  0.00  0.00    +0.000 OA
ATOM     25  C   UNL     1       5.611   4.115  14.004  0.00  0.00    +0.000 C 
ATOM     26  C   UNL     1       5.205   3.452  15.332  0.00  0.00    +0.000 C 
ENDBRANCH  14  21
TORSDOF 2
ENDMDL
MODEL 9
REMARK VINA RESULT:      -7.4      2.566      3.781
REMARK  Name = 
REMARK  2 active torsions:
REMARK  status: ('A' for Active; 'I' for Inactive)
REMARK    1  A    between atoms: C_8  and  N_9
REMARK    2  A    between atoms: C_20  and  N_21
REMARK                            x       y       z     vdW  Elec       q    Type
REMARK                         _______ _______ _______ _____ _____    ______ ____
ROOT
ATOM      1  C   UNL     1       0.008   9.988  20.702  0.00  0.00    +0.000 A 
ATOM      2  C   UNL     1       0.504   8.730  21.063  0.00  0.00    +0.000 A 
ATOM      3  C   UNL     1       1.395   8.064  20.245  0.00  0.00    +0.000 A 
ATOM      4  N   UNL     1       1.850   6.856  20.591  0.00  0.00    +0.000 NA
ATOM      5  C   UNL     1       2.698   6.313  19.714  0.00  0.00    +0.000 A 
ATOM      6  C   UNL     1       3.216   5.054  19.943  0.00  0.00    +0.000 A 
ATOM      7  C   UNL     1       4.093   4.470  19.025  0.00  0.00    +0.000 A 
ATOM      8  C   UNL     1       4.496   5.124  17.850  0.00  0.00    +0.000 A 
ATOM      9  C   UNL     1       3.987   6.410  17.631  0.00  0.00    +0.000 A 
ATOM     10  C   UNL     1       3.088   6.997  18.530  0.00  0.00    +0.000 A 
ATOM     11  O   UNL     1       2.632   8.150  18.241  0.00  0.00    +0.000 OA
ATOM     12  C   UNL     1       1.800   8.692  19.036  0.00  0.00    +0.000 A 
ATOM     13  C   UNL     1       1.282   9.940  18.680  0.00  0.00    +0.000 A 
ATOM     14  C   UNL     1       0.372  10.619  19.503  0.00  0.00    +0.000 A 
ENDROOT
BRANCH   8  15
ATOM     15  N   UNL     1       5.341   4.513  16.954  0.00  0.00    +0.000 N 
ATOM     16  C   UNL     1       6.815   4.596  17.053  0.00  0.00    +0.000 C 
ATOM     17  C   UNL     1       7.401   5.168  15.757  0.00  0.00    +0.000 C 
ATOM     18  O   UNL     1       6.989   4.393  14.621  0.00  0.00    +0.000 OA
ATOM     19  C   UNL     1       5.558   4.395  14.499  0.00  0.00    +0.000 C 
ATOM     20  C   UNL     1       4.876   3.800  15.748  0.00  0.00    +0.000 C 
ENDBRANCH   8  15
BRANCH  14  21
ATOM     21  N   UNL     1      -0.146  11.842  19.152  0.00  0.00    +0.000 N 
ATOM     22  C   UNL     1       0.658  12.934  18.557  0.00  0.00    +0.000 C 
ATOM     23  C   UNL     1       0.511  14.223  19.381  0.00  0.00    +0.000 C 
ATOM     24  O   UNL     1      -0.870  14.581  19.553  0.00  0.00    +0.000 OA
ATOM     25  C   UNL     1      -1.584  13.531  20.223  0.00  0.00    +0.000 C 
ATOM     26  C   UNL     1      -1.549  12.223  19.411  0.00  0.00    +0.000 C 
ENDBRANCH  14  21
TORSDOF 2
ENDMDL
