MODEL 1
REMARK VINA RESULT:      -7.4      0.000      0.000
REMARK  Name = 
REMARK  5 active torsions:
REMARK  status: ('A' for Active; 'I' for Inactive)
REMARK    1  A    between atoms: C_2  and  C_3
REMARK    2  A    between atoms: C_3  and  C_4
REMARK    3  A    between atoms: C_4  and  S_5
REMARK    4  A    between atoms: S_5  and  C_6
REMARK    5  A    between atoms: N_15  and  C_16
REMARK                            x       y       z     vdW  Elec       q    Type
REMARK                         _______ _______ _______ _____ _____    ______ ____
ROOT
ATOM      1  C   UNL     1       1.966   3.033  21.550  0.00  0.00    +0.000 C 
ENDROOT
BRANCH   1   3
ATOM      2  O   UNL     1       0.570   4.069  19.903  0.00  0.00    +0.000 OA
ATOM      3  C   UNL     1       1.500   4.196  20.691  0.00  0.00    +0.000 C 
ATOM      4  N   UNL     1       2.249   5.352  20.892  0.00  0.00    +0.000 N 
ATOM      5  H   UNL     1       3.097   5.277  21.433  0.00  0.00    +0.000 HD
BRANCH   4   6
ATOM      6  C   UNL     1       1.976   6.619  20.318  0.00  0.00    +0.000 A 
ATOM      7  C   UNL     1       1.272   7.616  20.997  0.00  0.00    +0.000 A 
ATOM      8  C   UNL     1       1.053   8.867  20.415  0.00  0.00    +0.000 A 
ATOM      9  C   UNL     1       1.535   9.139  19.140  0.00  0.00    +0.000 A 
ATOM     10  C   UNL     1       2.234   8.154  18.445  0.00  0.00    +0.000 A 
ATOM     11  C   UNL     1       2.462   6.903  19.035  0.00  0.00    +0.000 A 
ENDBRANCH   4   6
ENDBRANCH   1   3
BRANCH   1  12
ATOM     12  C   UNL     1       3.375   2.568  21.164  0.00  0.00    +0.000 C 
BRANCH  12  13
ATOM     13  S   UNL     1       3.437   2.387  19.358  0.00  0.00    +0.000 S 
BRANCH  13  14
ATOM     14  C   UNL     1       4.570   3.619  18.878  0.00  0.00    +0.000 A 
ATOM     15  N   UNL     1       5.662   3.955  19.539  0.00  0.00    +0.000 NA
ATOM     16  C   UNL     1       6.197   4.981  18.792  0.00  0.00    +0.000 A 
ATOM     17  C   UNL     1       7.340   5.770  18.975  0.00  0.00    +0.000 A 
ATOM     18  C   UNL     1       7.617   6.771  18.028  0.00  0.00    +0.000 A 
ATOM     19  C   UNL     1       6.782   6.975  16.922  0.00  0.00    +0.000 A 
ATOM     20  C   UNL     1       5.640   6.189  16.722  0.00  0.00    +0.000 A 
ATOM     21  C   UNL     1       5.399   5.218  17.685  0.00  0.00    +0.000 A 
ATOM     22  O   UNL     1       4.359   4.342  17.729  0.00  0.00    +0.000 OA
ENDBRANCH  13  14
ENDBRANCH  12  13
ENDBRANCH   1  12
TORSDOF 5
ENDMDL
MODEL 2
REMARK VINA RESULT:      -7.3      1.130      1.612
REMARK  Name = 
REMARK  5 active torsions:
REMARK  status: ('A' for Active; 'I' for Inactive)
REMARK    1  A    between atoms: C_2  and  C_3
REMARK    2  A    between atoms: C_3  and  C_4
REMARK    3  A    between atoms: C_4  and  S_5
REMARK    4  A    between atoms: S_5  and  C_6
REMARK    5  A    between atoms: N_15  and  C_16
REMARK                            x       y       z     vdW  Elec       q    Type
REMARK                         _______ _______ _______ _____ _____    ______ ____
ROOT
ATOM      1  C   UNL     1       3.061   4.135  20.643  0.00  0.00    +0.000 C 
ENDROOT
BRANCH   1   3
ATOM      2  O   UNL     1       0.884   5.107  20.425  0.00  0.00    +0.000 OA
ATOM      3  C   UNL     1       2.095   5.256  20.304  0.00  0.00    +0.000 C 
ATOM      4  N   UNL     1       2.735   6.402  19.840  0.00  0.00    +0.000 N 
ATOM      5  H   UNL     1       3.717   6.337  19.618  0.00  0.00    +0.000 HD
BRANCH   4   6
ATOM      6  C   UNL     1       2.104   7.640  19.557  0.00  0.00    +0.000 A 
ATOM      7  C   UNL     1       1.429   8.378  20.530  0.00  0.00    +0.000 A 
ATOM      8  C   UNL     1       0.850   9.613  20.225  0.00  0.00    +0.000 A 
ATOM      9  C   UNL     1       0.937  10.126  18.936  0.00  0.00    +0.000 A 
ATOM     10  C   UNL     1       1.601   9.399  17.950  0.00  0.00    +0.000 A 
ATOM     11  C   UNL     1       2.191   8.165  18.262  0.00  0.00    +0.000 A 
ENDBRANCH   4   6
ENDBRANCH   1   3
BRANCH   1  12
ATOM     12  C   UNL     1       2.576   2.783  20.104  0.00  0.00    +0.000 C 
BRANCH  12  13
ATOM     13  S   UNL     1       3.755   2.223  18.840  0.00  0.00    +0.000 S 
BRANCH  13  14
ATOM     14  C   UNL     1       4.689   3.655  18.511  0.00  0.00    +0.000 A 
ATOM     15  N   UNL     1       4.356   4.608  17.659  0.00  0.00    +0.000 NA
ATOM     16  C   UNL     1       5.410   5.492  17.726  0.00  0.00    +0.000 A 
ATOM     17  C   UNL     1       5.663   6.693  17.051  0.00  0.00    +0.000 A 
ATOM     18  C   UNL     1       6.861   7.374  17.329  0.00  0.00    +0.000 A 
ATOM     19  C   UNL     1       7.779   6.875  18.263  0.00  0.00    +0.000 A 
ATOM     20  C   UNL     1       7.536   5.680  18.951  0.00  0.00    +0.000 A 
ATOM     21  C   UNL     1       6.345   5.036  18.640  0.00  0.00    +0.000 A 
ATOM     22  O   UNL     1       5.885   3.863  19.154  0.00  0.00    +0.000 OA
ENDBRANCH  13  14
ENDBRANCH  12  13
ENDBRANCH   1  12
TORSDOF 5
ENDMDL
MODEL 3
REMARK VINA RESULT:      -7.3      1.054      1.850
REMARK  Name = 
REMARK  5 active torsions:
REMARK  status: ('A' for Active; 'I' for Inactive)
REMARK    1  A    between atoms: C_2  and  C_3
REMARK    2  A    between atoms: C_3  and  C_4
REMARK    3  A    between atoms: C_4  and  S_5
REMARK    4  A    between atoms: S_5  and  C_6
REMARK    5  A    between atoms: N_15  and  C_16
REMARK                            x       y       z     vdW  Elec       q    Type
REMARK                         _______ _______ _______ _____ _____    ______ ____
ROOT
ATOM      1  C   UNL     1       2.618   3.834  20.850  0.00  0.00    +0.000 C 
ENDROOT
BRANCH   1   3
ATOM      2  O   UNL     1       0.624   5.123  20.534  0.00  0.00    +0.000 OA
ATOM      3  C   UNL     1       1.844   5.069  20.423  0.00  0.00    +0.000 C 
ATOM      4  N   UNL     1       2.662   6.065  19.895  0.00  0.00    +0.000 N 
ATOM      5  H   UNL     1       3.621   5.830  19.693  0.00  0.00    +0.000 HD
BRANCH   4   6
ATOM      6  C   UNL     1       2.237   7.365  19.520  0.00  0.00    +0.000 A 
ATOM      7  C   UNL     1       2.393   7.862  18.226  0.00  0.00    +0.000 A 
ATOM      8  C   UNL     1       1.928   9.135  17.881  0.00  0.00    +0.000 A 
ATOM      9  C   UNL     1       1.300   9.930  18.833  0.00  0.00    +0.000 A 
ATOM     10  C   UNL     1       1.142   9.452  20.132  0.00  0.00    +0.000 A 
ATOM     11  C   UNL     1       1.599   8.171  20.472  0.00  0.00    +0.000 A 
ENDBRANCH   4   6
ENDBRANCH   1   3
BRANCH   1  12
ATOM     12  C   UNL     1       2.440   2.679  19.857  0.00  0.00    +0.000 C 
BRANCH  12  13
ATOM     13  S   UNL     1       4.089   2.105  19.356  0.00  0.00    +0.000 S 
BRANCH  13  14
ATOM     14  C   UNL     1       4.859   3.563  18.795  0.00  0.00    +0.000 A 
ATOM     15  N   UNL     1       4.441   4.313  17.793  0.00  0.00    +0.000 NA
ATOM     16  C   UNL     1       5.383   5.315  17.717  0.00  0.00    +0.000 A 
ATOM     17  C   UNL     1       5.513   6.408  16.850  0.00  0.00    +0.000 A 
ATOM     18  C   UNL     1       6.616   7.263  17.017  0.00  0.00    +0.000 A 
ATOM     19  C   UNL     1       7.560   7.041  18.029  0.00  0.00    +0.000 A 
ATOM     20  C   UNL     1       7.439   5.957  18.907  0.00  0.00    +0.000 A 
ATOM     21  C   UNL     1       6.340   5.133  18.701  0.00  0.00    +0.000 A 
ATOM     22  O   UNL     1       6.005   4.016  19.403  0.00  0.00    +0.000 OA
ENDBRANCH  13  14
ENDBRANCH  12  13
ENDBRANCH   1  12
TORSDOF 5
ENDMDL
MODEL 4
REMARK VINA RESULT:      -7.3      3.188      6.773
REMARK  Name = 
REMARK  5 active torsions:
REMARK  status: ('A' for Active; 'I' for Inactive)
REMARK    1  A    between atoms: C_2  and  C_3
REMARK    2  A    between atoms: C_3  and  C_4
REMARK    3  A    between atoms: C_4  and  S_5
REMARK    4  A    between atoms: S_5  and  C_6
REMARK    5  A    between atoms: N_15  and  C_16
REMARK                            x       y       z     vdW  Elec       q    Type
REMARK                         _______ _______ _______ _____ _____    ______ ____
ROOT
ATOM      1  C   UNL     1       6.683   7.082  17.370  0.00  0.00    +0.000 C 
ENDROOT
BRANCH   1   3
ATOM      2  O   UNL     1       5.099   6.819  15.595  0.00  0.00    +0.000 OA
ATOM      3  C   UNL     1       6.181   6.488  16.066  0.00  0.00    +0.000 C 
ATOM      4  N   UNL     1       7.056   5.551  15.525  0.00  0.00    +0.000 N 
ATOM      5  H   UNL     1       7.825   5.237  16.097  0.00  0.00    +0.000 HD
BRANCH   4   6
ATOM      6  C   UNL     1       6.908   4.918  14.264  0.00  0.00    +0.000 A 
ATOM      7  C   UNL     1       7.676   5.270  13.153  0.00  0.00    +0.000 A 
ATOM      8  C   UNL     1       7.530   4.600  11.935  0.00  0.00    +0.000 A 
ATOM      9  C   UNL     1       6.608   3.566  11.812  0.00  0.00    +0.000 A 
ATOM     10  C   UNL     1       5.828   3.207  12.910  0.00  0.00    +0.000 A 
ATOM     11  C   UNL     1       5.985   3.873  14.134  0.00  0.00    +0.000 A 
ENDBRANCH   4   6
ENDBRANCH   1   3
BRANCH   1  12
ATOM     12  C   UNL     1       7.764   6.208  18.016  0.00  0.00    +0.000 C 
BRANCH  12  13
ATOM     13  S   UNL     1       7.123   5.592  19.601  0.00  0.00    +0.000 S 
BRANCH  13  14
ATOM     14  C   UNL     1       5.577   4.921  19.164  0.00  0.00    +0.000 A 
ATOM     15  N   UNL     1       4.418   5.548  19.246  0.00  0.00    +0.000 NA
ATOM     16  C   UNL     1       3.504   4.607  18.828  0.00  0.00    +0.000 A 
ATOM     17  C   UNL     1       2.109   4.653  18.707  0.00  0.00    +0.000 A 
ATOM     18  C   UNL     1       1.441   3.500  18.258  0.00  0.00    +0.000 A 
ATOM     19  C   UNL     1       2.147   2.335  17.928  0.00  0.00    +0.000 A 
ATOM     20  C   UNL     1       3.542   2.277  18.036  0.00  0.00    +0.000 A 
ATOM     21  C   UNL     1       4.160   3.434  18.492  0.00  0.00    +0.000 A 
ATOM     22  O   UNL     1       5.490   3.632  18.697  0.00  0.00    +0.000 OA
ENDBRANCH  13  14
ENDBRANCH  12  13
ENDBRANCH   1  12
TORSDOF 5
ENDMDL
MODEL 5
REMARK VINA RESULT:      -7.2      3.232      6.773
REMARK  Name = 
REMARK  5 active torsions:
REMARK  status: ('A' for Active; 'I' for Inactive)
REMARK    1  A    between atoms: C_2  and  C_3
REMARK    2  A    between atoms: C_3  and  C_4
REMARK    3  A    between atoms: C_4  and  S_5
REMARK    4  A    between atoms: S_5  and  C_6
REMARK    5  A    between atoms: N_15  and  C_16
REMARK                            x       y       z     vdW  Elec       q    Type
REMARK                         _______ _______ _______ _____ _____    ______ ____
ROOT
ATOM      1  C   UNL     1       7.295   6.815  17.389  0.00  0.00    +0.000 C 
ENDROOT
BRANCH   1   3
ATOM      2  O   UNL     1       5.516   6.773  15.786  0.00  0.00    +0.000 OA
ATOM      3  C   UNL     1       6.594   6.309  16.140  0.00  0.00    +0.000 C 
ATOM      4  N   UNL     1       7.293   5.287  15.504  0.00  0.00    +0.000 N 
ATOM      5  H   UNL     1       8.074   4.874  15.990  0.00  0.00    +0.000 HD
BRANCH   4   6
ATOM      6  C   UNL     1       6.943   4.701  14.260  0.00  0.00    +0.000 A 
ATOM      7  C   UNL     1       5.841   3.857  14.112  0.00  0.00    +0.000 A 
ATOM      8  C   UNL     1       5.502   3.327  12.864  0.00  0.00    +0.000 A 
ATOM      9  C   UNL     1       6.265   3.635  11.744  0.00  0.00    +0.000 A 
ATOM     10  C   UNL     1       7.373   4.471  11.875  0.00  0.00    +0.000 A 
ATOM     11  C   UNL     1       7.704   5.010  13.126  0.00  0.00    +0.000 A 
ENDBRANCH   4   6
ENDBRANCH   1   3
BRANCH   1  12
ATOM     12  C   UNL     1       7.918   5.670  18.196  0.00  0.00    +0.000 C 
BRANCH  12  13
ATOM     13  S   UNL     1       7.011   5.523  19.764  0.00  0.00    +0.000 S 
BRANCH  13  14
ATOM     14  C   UNL     1       5.479   4.857  19.270  0.00  0.00    +0.000 A 
ATOM     15  N   UNL     1       4.408   5.558  18.947  0.00  0.00    +0.000 NA
ATOM     16  C   UNL     1       3.460   4.600  18.667  0.00  0.00    +0.000 A 
ATOM     17  C   UNL     1       2.116   4.702  18.284  0.00  0.00    +0.000 A 
ATOM     18  C   UNL     1       1.389   3.516  18.083  0.00  0.00    +0.000 A 
ATOM     19  C   UNL     1       1.988   2.260  18.250  0.00  0.00    +0.000 A 
ATOM     20  C   UNL     1       3.332   2.142  18.625  0.00  0.00    +0.000 A 
ATOM     21  C   UNL     1       4.010   3.338  18.821  0.00  0.00    +0.000 A 
ATOM     22  O   UNL     1       5.308   3.496  19.199  0.00  0.00    +0.000 OA
ENDBRANCH  13  14
ENDBRANCH  12  13
ENDBRANCH   1  12
TORSDOF 5
ENDMDL
MODEL 6
REMARK VINA RESULT:      -7.2      3.928      7.190
REMARK  Name = 
REMARK  5 active torsions:
REMARK  status: ('A' for Active; 'I' for Inactive)
REMARK    1  A    between atoms: C_2  and  C_3
REMARK    2  A    between atoms: C_3  and  C_4
REMARK    3  A    between atoms: C_4  and  S_5
REMARK    4  A    between atoms: S_5  and  C_6
REMARK    5  A    between atoms: N_15  and  C_16
REMARK                            x       y       z     vdW  Elec       q    Type
REMARK                         _______ _______ _______ _____ _____    ______ ____
ROOT
ATOM      1  C   UNL     1       7.081   7.893  17.143  0.00  0.00    +0.000 C 
ENDROOT
BRANCH   1   3
ATOM      2  O   UNL     1       8.696   7.710  18.901  0.00  0.00    +0.000 OA
ATOM      3  C   UNL     1       8.130   8.440  18.095  0.00  0.00    +0.000 C 
ATOM      4  N   UNL     1       8.331   9.810  17.952  0.00  0.00    +0.000 N 
ATOM      5  H   UNL     1       7.679  10.326  17.381  0.00  0.00    +0.000 HD
BRANCH   4   6
ATOM      6  C   UNL     1       9.323  10.570  18.622  0.00  0.00    +0.000 A 
ATOM      7  C   UNL     1       9.289  10.803  19.998  0.00  0.00    +0.000 A 
ATOM      8  C   UNL     1      10.303  11.525  20.632  0.00  0.00    +0.000 A 
ATOM      9  C   UNL     1      11.369  12.028  19.895  0.00  0.00    +0.000 A 
ATOM     10  C   UNL     1      11.416  11.810  18.519  0.00  0.00    +0.000 A 
ATOM     11  C   UNL     1      10.403  11.076  17.887  0.00  0.00    +0.000 A 
ENDBRANCH   4   6
ENDBRANCH   1   3
BRANCH   1  12
ATOM     12  C   UNL     1       6.577   6.514  17.582  0.00  0.00    +0.000 C 
BRANCH  12  13
ATOM     13  S   UNL     1       5.261   6.001  16.439  0.00  0.00    +0.000 S 
BRANCH  13  14
ATOM     14  C   UNL     1       4.035   5.376  17.506  0.00  0.00    +0.000 A 
ATOM     15  N   UNL     1       3.678   5.911  18.659  0.00  0.00    +0.000 NA
ATOM     16  C   UNL     1       2.714   5.050  19.136  0.00  0.00    +0.000 A 
ATOM     17  C   UNL     1       1.964   5.055  20.319  0.00  0.00    +0.000 A 
ATOM     18  C   UNL     1       1.050   4.008  20.533  0.00  0.00    +0.000 A 
ATOM     19  C   UNL     1       0.883   2.987  19.588  0.00  0.00    +0.000 A 
ATOM     20  C   UNL     1       1.620   2.973  18.397  0.00  0.00    +0.000 A 
ATOM     21  C   UNL     1       2.516   4.021  18.230  0.00  0.00    +0.000 A 
ATOM     22  O   UNL     1       3.354   4.228  17.178  0.00  0.00    +0.000 OA
ENDBRANCH  13  14
ENDBRANCH  12  13
ENDBRANCH   1  12
TORSDOF 5
ENDMDL
MODEL 7
REMARK VINA RESULT:      -7.2      3.408      5.387
REMARK  Name = 
REMARK  5 active torsions:
REMARK  status: ('A' for Active; 'I' for Inactive)
REMARK    1  A    between atoms: C_2  and  C_3
REMARK    2  A    between atoms: C_3  and  C_4
REMARK    3  A    between atoms: C_4  and  S_5
REMARK    4  A    between atoms: S_5  and  C_6
REMARK    5  A    between atoms: N_15  and  C_16
REMARK                            x       y       z     vdW  Elec       q    Type
REMARK                         _______ _______ _______ _____ _____    ______ ____
ROOT
ATOM      1  C   UNL     1       7.330   4.602  18.211  0.00  0.00    +0.000 C 
ENDROOT
BRANCH   1   3
ATOM      2  O   UNL     1       5.628   4.764  19.887  0.00  0.00    +0.000 OA
ATOM      3  C   UNL     1       5.945   4.345  18.779  0.00  0.00    +0.000 C 
ATOM      4  N   UNL     1       5.142   3.591  17.928  0.00  0.00    +0.000 N 
ATOM      5  H   UNL     1       5.577   3.157  17.129  0.00  0.00    +0.000 HD
BRANCH   4   6
ATOM      6  C   UNL     1       3.772   3.293  18.141  0.00  0.00    +0.000 A 
ATOM      7  C   UNL     1       3.346   2.121  18.768  0.00  0.00    +0.000 A 
ATOM      8  C   UNL     1       1.989   1.877  18.996  0.00  0.00    +0.000 A 
ATOM      9  C   UNL     1       1.035   2.806  18.595  0.00  0.00    +0.000 A 
ATOM     10  C   UNL     1       1.442   3.978  17.961  0.00  0.00    +0.000 A 
ATOM     11  C   UNL     1       2.805   4.226  17.744  0.00  0.00    +0.000 A 
ENDBRANCH   4   6
ENDBRANCH   1   3
BRANCH   1  12
ATOM     12  C   UNL     1       7.626   6.101  18.088  0.00  0.00    +0.000 C 
BRANCH  12  13
ATOM     13  S   UNL     1       6.361   6.843  17.015  0.00  0.00    +0.000 S 
BRANCH  13  14
ATOM     14  C   UNL     1       6.420   5.844  15.590  0.00  0.00    +0.000 A 
ATOM     15  N   UNL     1       7.450   5.736  14.772  0.00  0.00    +0.000 NA
ATOM     16  C   UNL     1       7.007   4.871  13.797  0.00  0.00    +0.000 A 
ATOM     17  C   UNL     1       7.625   4.373  12.641  0.00  0.00    +0.000 A 
ATOM     18  C   UNL     1       6.892   3.501  11.818  0.00  0.00    +0.000 A 
ATOM     19  C   UNL     1       5.582   3.126  12.142  0.00  0.00    +0.000 A 
ATOM     20  C   UNL     1       4.954   3.609  13.297  0.00  0.00    +0.000 A 
ATOM     21  C   UNL     1       5.710   4.474  14.077  0.00  0.00    +0.000 A 
ATOM     22  O   UNL     1       5.330   5.087  15.231  0.00  0.00    +0.000 OA
ENDBRANCH  13  14
ENDBRANCH  12  13
ENDBRANCH   1  12
TORSDOF 5
ENDMDL
MODEL 8
REMARK VINA RESULT:      -7.1      2.983      6.872
REMARK  Name = 
REMARK  5 active torsions:
REMARK  status: ('A' for Active; 'I' for Inactive)
REMARK    1  A    between atoms: C_2  and  C_3
REMARK    2  A    between atoms: C_3  and  C_4
REMARK    3  A    between atoms: C_4  and  S_5
REMARK    4  A    between atoms: S_5  and  C_6
REMARK    5  A    between atoms: N_15  and  C_16
REMARK                            x       y       z     vdW  Elec       q    Type
REMARK                         _______ _______ _______ _____ _____    ______ ____
ROOT
ATOM      1  C   UNL     1       7.669   7.068  17.384  0.00  0.00    +0.000 C 
ENDROOT
BRANCH   1   3
ATOM      2  O   UNL     1       5.664   6.776  16.108  0.00  0.00    +0.000 OA
ATOM      3  C   UNL     1       6.840   6.464  16.264  0.00  0.00    +0.000 C 
ATOM      4  N   UNL     1       7.550   5.543  15.499  0.00  0.00    +0.000 N 
ATOM      5  H   UNL     1       8.451   5.243  15.838  0.00  0.00    +0.000 HD
BRANCH   4   6
ATOM      6  C   UNL     1       7.074   4.908  14.324  0.00  0.00    +0.000 A 
ATOM      7  C   UNL     1       7.723   5.021  13.094  0.00  0.00    +0.000 A 
ATOM      8  C   UNL     1       7.247   4.351  11.963  0.00  0.00    +0.000 A 
ATOM      9  C   UNL     1       6.109   3.558  12.049  0.00  0.00    +0.000 A 
ATOM     10  C   UNL     1       5.444   3.439  13.268  0.00  0.00    +0.000 A 
ATOM     11  C   UNL     1       5.930   4.103  14.403  0.00  0.00    +0.000 A 
ENDBRANCH   4   6
ENDBRANCH   1   3
BRANCH   1  12
ATOM     12  C   UNL     1       7.339   6.436  18.741  0.00  0.00    +0.000 C 
BRANCH  12  13
ATOM     13  S   UNL     1       7.004   4.670  18.477  0.00  0.00    +0.000 S 
BRANCH  13  14
ATOM     14  C   UNL     1       5.368   4.490  19.047  0.00  0.00    +0.000 A 
ATOM     15  N   UNL     1       4.499   5.472  19.201  0.00  0.00    +0.000 NA
ATOM     16  C   UNL     1       3.378   4.844  19.697  0.00  0.00    +0.000 A 
ATOM     17  C   UNL     1       2.126   5.340  20.083  0.00  0.00    +0.000 A 
ATOM     18  C   UNL     1       1.173   4.432  20.576  0.00  0.00    +0.000 A 
ATOM     19  C   UNL     1       1.457   3.063  20.674  0.00  0.00    +0.000 A 
ATOM     20  C   UNL     1       2.702   2.552  20.285  0.00  0.00    +0.000 A 
ATOM     21  C   UNL     1       3.616   3.484  19.811  0.00  0.00    +0.000 A 
ATOM     22  O   UNL     1       4.887   3.249  19.387  0.00  0.00    +0.000 OA
ENDBRANCH  13  14
ENDBRANCH  12  13
ENDBRANCH   1  12
TORSDOF 5
ENDMDL
MODEL 9
REMARK VINA RESULT:      -7.1      0.844      1.378
REMARK  Name = 
REMARK  5 active torsions:
REMARK  status: ('A' for Active; 'I' for Inactive)
REMARK    1  A    between atoms: C_2  and  C_3
REMARK    2  A    between atoms: C_3  and  C_4
REMARK    3  A    between atoms: C_4  and  S_5
REMARK    4  A    between atoms: S_5  and  C_6
REMARK    5  A    between atoms: N_15  and  C_16
REMARK                            x       y       z     vdW  Elec       q    Type
REMARK                         _______ _______ _______ _____ _____    ______ ____
ROOT
ATOM      1  C   UNL     1       2.675   3.912  20.937  0.00  0.00    +0.000 C 
ENDROOT
BRANCH   1   3
ATOM      2  O   UNL     1       0.630   5.062  20.459  0.00  0.00    +0.000 OA
ATOM      3  C   UNL     1       1.856   5.098  20.461  0.00  0.00    +0.000 C 
ATOM      4  N   UNL     1       2.643   6.162  20.028  0.00  0.00    +0.000 N 
ATOM      5  H   UNL     1       3.631   6.001  19.912  0.00  0.00    +0.000 HD
BRANCH   4   6
ATOM      6  C   UNL     1       2.160   7.437  19.638  0.00  0.00    +0.000 A 
ATOM      7  C   UNL     1       2.305   7.930  18.340  0.00  0.00    +0.000 A 
ATOM      8  C   UNL     1       1.784   9.176  17.980  0.00  0.00    +0.000 A 
ATOM      9  C   UNL     1       1.109   9.948  18.918  0.00  0.00    +0.000 A 
ATOM     10  C   UNL     1       0.961   9.474  20.220  0.00  0.00    +0.000 A 
ATOM     11  C   UNL     1       1.475   8.219  20.576  0.00  0.00    +0.000 A 
ENDBRANCH   4   6
ENDBRANCH   1   3
BRANCH   1  12
ATOM     12  C   UNL     1       2.224   2.605  20.274  0.00  0.00    +0.000 C 
BRANCH  12  13
ATOM     13  S   UNL     1       3.655   1.879  19.422  0.00  0.00    +0.000 S 
BRANCH  13  14
ATOM     14  C   UNL     1       4.508   3.276  18.826  0.00  0.00    +0.000 A 
ATOM     15  N   UNL     1       5.647   3.740  19.305  0.00  0.00    +0.000 NA
ATOM     16  C   UNL     1       5.895   4.857  18.539  0.00  0.00    +0.000 A 
ATOM     17  C   UNL     1       6.937   5.793  18.567  0.00  0.00    +0.000 A 
ATOM     18  C   UNL     1       6.902   6.856  17.647  0.00  0.00    +0.000 A 
ATOM     19  C   UNL     1       5.861   6.977  16.717  0.00  0.00    +0.000 A 
ATOM     20  C   UNL     1       4.817   6.045  16.673  0.00  0.00    +0.000 A 
ATOM     21  C   UNL     1       4.886   5.017  17.604  0.00  0.00    +0.000 A 
ATOM     22  O   UNL     1       3.998   4.001  17.776  0.00  0.00    +0.000 OA
ENDBRANCH  13  14
ENDBRANCH  12  13
ENDBRANCH   1  12
TORSDOF 5
ENDMDL
