MODEL 1
REMARK VINA RESULT:      -7.3      0.000      0.000
REMARK  Name = 
REMARK  10 active torsions:
REMARK  status: ('A' for Active; 'I' for Inactive)
REMARK    1  A    between atoms: C_1  and  O_2
REMARK    2  A    between atoms: O_2  and  C_3
REMARK    3  A    between atoms: C_6  and  C_7
REMARK    4  A    between atoms: C_8  and  C_9
REMARK    5  A    between atoms: C_9  and  O_11
REMARK    6  A    between atoms: O_11  and  C_12
REMARK    7  A    between atoms: C_14  and  O_15
REMARK    8  A    between atoms: C_16  and  O_17
REMARK    9  A    between atoms: C_18  and  O_19
REMARK   10  A    between atoms: C_20  and  O_21
REMARK                            x       y       z     vdW  Elec       q    Type
REMARK                         _______ _______ _______ _____ _____    ______ ____
ROOT
ATOM      1  C   UNL     1       3.267   4.131  17.933  0.00  0.00    +0.000 C 
ATOM      2  C   UNL     1       1.862   3.874  18.487  0.00  0.00    +0.000 C 
ATOM      3  C   UNL     1       1.874   3.738  20.007  0.00  0.00    +0.000 C 
ATOM      4  C   UNL     1       2.824   2.616  20.462  0.00  0.00    +0.000 C 
ATOM      5  C   UNL     1       4.247   2.853  19.920  0.00  0.00    +0.000 C 
ATOM      6  C   UNL     1       4.250   3.033  18.390  0.00  0.00    +0.000 C 
ENDROOT
BRANCH   3   7
ATOM      7  O   UNL     1       0.529   3.502  20.431  0.00  0.00    +0.000 OA
ATOM      8  H   UNL     1       0.016   3.165  19.678  0.00  0.00    +0.000 HD
ENDBRANCH   3   7
BRANCH   4   9
ATOM      9  O   UNL     1       2.816   2.531  21.891  0.00  0.00    +0.000 OA
ATOM     10  H   UNL     1       3.708   2.739  22.219  0.00  0.00    +0.000 HD
ENDBRANCH   4   9
BRANCH   5  11
ATOM     11  O   UNL     1       5.091   1.748  20.270  0.00  0.00    +0.000 OA
ATOM     12  H   UNL     1       4.501   1.024  20.558  0.00  0.00    +0.000 HD
ENDBRANCH   5  11
BRANCH   6  13
ATOM     13  O   UNL     1       3.975   1.766  17.770  0.00  0.00    +0.000 OA
ATOM     14  H   UNL     1       4.386   1.719  16.890  0.00  0.00    +0.000 HD
ENDBRANCH   6  13
BRANCH   1  15
ATOM     15  O   UNL     1       3.745   5.409  18.415  0.00  0.00    +0.000 OA
BRANCH  15  16
ATOM     16  C   UNL     1       3.996   6.333  17.450  0.00  0.00    +0.000 C 
ATOM     17  O   UNL     1       4.714   6.174  16.476  0.00  0.00    +0.000 OA
BRANCH  16  19
ATOM     18  C   UNL     1       2.372   7.564  18.780  0.00  0.00    +0.000 C 
ATOM     19  C   UNL     1       3.240   7.565  17.757  0.00  0.00    +0.000 C 
BRANCH  18  23
ATOM     20  C   UNL     1      -0.209  10.787  19.946  0.00  0.00    +0.000 A 
ATOM     21  C   UNL     1       0.289   9.883  20.883  0.00  0.00    +0.000 A 
ATOM     22  C   UNL     1       1.149   8.853  20.490  0.00  0.00    +0.000 A 
ATOM     23  C   UNL     1       1.496   8.689  19.142  0.00  0.00    +0.000 A 
ATOM     24  C   UNL     1       1.009   9.612  18.212  0.00  0.00    +0.000 A 
ATOM     25  C   UNL     1       0.155  10.651  18.607  0.00  0.00    +0.000 A 
BRANCH  20  27
ATOM     26  C   UNL     1      -0.562  13.049  20.556  0.00  0.00    +0.000 C 
ATOM     27  O   UNL     1      -1.069  11.725  20.447  0.00  0.00    +0.000 OA
ENDBRANCH  20  27
ENDBRANCH  18  23
ENDBRANCH  16  19
ENDBRANCH  15  16
ENDBRANCH   1  15
TORSDOF 9
ENDMDL
MODEL 2
REMARK VINA RESULT:      -7.3      0.442      1.080
REMARK  Name = 
REMARK  10 active torsions:
REMARK  status: ('A' for Active; 'I' for Inactive)
REMARK    1  A    between atoms: C_1  and  O_2
REMARK    2  A    between atoms: O_2  and  C_3
REMARK    3  A    between atoms: C_6  and  C_7
REMARK    4  A    between atoms: C_8  and  C_9
REMARK    5  A    between atoms: C_9  and  O_11
REMARK    6  A    between atoms: O_11  and  C_12
REMARK    7  A    between atoms: C_14  and  O_15
REMARK    8  A    between atoms: C_16  and  O_17
REMARK    9  A    between atoms: C_18  and  O_19
REMARK   10  A    between atoms: C_20  and  O_21
REMARK                            x       y       z     vdW  Elec       q    Type
REMARK                         _______ _______ _______ _____ _____    ______ ____
ROOT
ATOM      1  C   UNL     1       3.280   4.124  17.899  0.00  0.00    +0.000 C 
ATOM      2  C   UNL     1       1.873   3.907  18.465  0.00  0.00    +0.000 C 
ATOM      3  C   UNL     1       1.894   3.773  19.985  0.00  0.00    +0.000 C 
ATOM      4  C   UNL     1       2.816   2.625  20.434  0.00  0.00    +0.000 C 
ATOM      5  C   UNL     1       4.240   2.821  19.879  0.00  0.00    +0.000 C 
ATOM      6  C   UNL     1       4.236   3.000  18.349  0.00  0.00    +0.000 C 
ENDROOT
BRANCH   3   7
ATOM      7  O   UNL     1       0.547   3.575  20.421  0.00  0.00    +0.000 OA
ATOM      8  H   UNL     1       0.556   3.072  21.253  0.00  0.00    +0.000 HD
ENDBRANCH   3   7
BRANCH   4   9
ATOM      9  O   UNL     1       2.818   2.542  21.863  0.00  0.00    +0.000 OA
ATOM     10  H   UNL     1       3.167   3.377  22.220  0.00  0.00    +0.000 HD
ENDBRANCH   4   9
BRANCH   5  11
ATOM     11  O   UNL     1       5.057   1.694  20.223  0.00  0.00    +0.000 OA
ATOM     12  H   UNL     1       5.985   1.993  20.166  0.00  0.00    +0.000 HD
ENDBRANCH   5  11
BRANCH   6  13
ATOM     13  O   UNL     1       3.920   1.739  17.733  0.00  0.00    +0.000 OA
ATOM     14  H   UNL     1       3.267   1.253  18.265  0.00  0.00    +0.000 HD
ENDBRANCH   6  13
BRANCH   1  15
ATOM     15  O   UNL     1       3.797   5.388  18.375  0.00  0.00    +0.000 OA
BRANCH  15  16
ATOM     16  C   UNL     1       4.037   6.315  17.409  0.00  0.00    +0.000 C 
ATOM     17  O   UNL     1       4.699   6.140  16.398  0.00  0.00    +0.000 OA
BRANCH  16  19
ATOM     18  C   UNL     1       2.452   7.565  18.766  0.00  0.00    +0.000 C 
ATOM     19  C   UNL     1       3.348   7.572  17.767  0.00  0.00    +0.000 C 
BRANCH  18  23
ATOM     20  C   UNL     1       0.118  11.000  19.850  0.00  0.00    +0.000 A 
ATOM     21  C   UNL     1       0.720  10.899  18.597  0.00  0.00    +0.000 A 
ATOM     22  C   UNL     1       1.456   9.763  18.251  0.00  0.00    +0.000 A 
ATOM     23  C   UNL     1       1.634   8.720  19.170  0.00  0.00    +0.000 A 
ATOM     24  C   UNL     1       1.009   8.818  20.417  0.00  0.00    +0.000 A 
ATOM     25  C   UNL     1       0.262   9.953  20.761  0.00  0.00    +0.000 A 
BRANCH  20  27
ATOM     26  C   UNL     1      -1.151  12.788  18.954  0.00  0.00    +0.000 C 
ATOM     27  O   UNL     1      -0.543  12.173  20.083  0.00  0.00    +0.000 OA
ENDBRANCH  20  27
ENDBRANCH  18  23
ENDBRANCH  16  19
ENDBRANCH  15  16
ENDBRANCH   1  15
TORSDOF 9
ENDMDL
MODEL 3
REMARK VINA RESULT:      -7.2      5.440      6.471
REMARK  Name = 
REMARK  10 active torsions:
REMARK  status: ('A' for Active; 'I' for Inactive)
REMARK    1  A    between atoms: C_1  and  O_2
REMARK    2  A    between atoms: O_2  and  C_3
REMARK    3  A    between atoms: C_6  and  C_7
REMARK    4  A    between atoms: C_8  and  C_9
REMARK    5  A    between atoms: C_9  and  O_11
REMARK    6  A    between atoms: O_11  and  C_12
REMARK    7  A    between atoms: C_14  and  O_15
REMARK    8  A    between atoms: C_16  and  O_17
REMARK    9  A    between atoms: C_18  and  O_19
REMARK   10  A    between atoms: C_20  and  O_21
REMARK                            x       y       z     vdW  Elec       q    Type
REMARK                         _______ _______ _______ _____ _____    ______ ____
ROOT
ATOM      1  C   UNL     1       5.466   5.785  17.286  0.00  0.00    +0.000 C 
ATOM      2  C   UNL     1       4.037   6.321  17.421  0.00  0.00    +0.000 C 
ATOM      3  C   UNL     1       3.530   6.215  18.856  0.00  0.00    +0.000 C 
ATOM      4  C   UNL     1       3.590   4.763  19.366  0.00  0.00    +0.000 C 
ATOM      5  C   UNL     1       5.019   4.201  19.244  0.00  0.00    +0.000 C 
ATOM      6  C   UNL     1       5.565   4.337  17.810  0.00  0.00    +0.000 C 
ENDROOT
BRANCH   3   7
ATOM      7  O   UNL     1       2.199   6.734  18.885  0.00  0.00    +0.000 OA
ATOM      8  H   UNL     1       1.574   5.994  18.964  0.00  0.00    +0.000 HD
ENDBRANCH   3   7
BRANCH   4   9
ATOM      9  O   UNL     1       3.120   4.711  20.717  0.00  0.00    +0.000 OA
ATOM     10  H   UNL     1       3.889   4.653  21.310  0.00  0.00    +0.000 HD
ENDBRANCH   4   9
BRANCH   5  11
ATOM     11  O   UNL     1       5.034   2.821  19.629  0.00  0.00    +0.000 OA
ATOM     12  H   UNL     1       5.112   2.802  20.603  0.00  0.00    +0.000 HD
ENDBRANCH   5  11
BRANCH   6  13
ATOM     13  O   UNL     1       4.877   3.404  16.959  0.00  0.00    +0.000 OA
ATOM     14  H   UNL     1       5.008   2.493  17.273  0.00  0.00    +0.000 HD
ENDBRANCH   6  13
BRANCH   1  15
ATOM     15  O   UNL     1       6.363   6.618  18.058  0.00  0.00    +0.000 OA
BRANCH  15  16
ATOM     16  C   UNL     1       7.468   7.048  17.392  0.00  0.00    +0.000 C 
ATOM     17  O   UNL     1       7.823   6.683  16.283  0.00  0.00    +0.000 OA
BRANCH  16  19
ATOM     18  C   UNL     1       8.180   9.335  17.822  0.00  0.00    +0.000 C 
ATOM     19  C   UNL     1       8.166   8.054  18.220  0.00  0.00    +0.000 C 
BRANCH  18  23
ATOM     20  C   UNL     1      10.304  12.560  19.693  0.00  0.00    +0.000 A 
ATOM     21  C   UNL     1       9.717  12.710  18.438  0.00  0.00    +0.000 A 
ATOM     22  C   UNL     1       9.008  11.658  17.853  0.00  0.00    +0.000 A 
ATOM     23  C   UNL     1       8.905  10.420  18.502  0.00  0.00    +0.000 A 
ATOM     24  C   UNL     1       9.477  10.283  19.769  0.00  0.00    +0.000 A 
ATOM     25  C   UNL     1      10.181  11.341  20.361  0.00  0.00    +0.000 A 
BRANCH  20  27
ATOM     26  C   UNL     1      10.253  14.628  20.849  0.00  0.00    +0.000 C 
ATOM     27  O   UNL     1      11.001  13.647  20.141  0.00  0.00    +0.000 OA
ENDBRANCH  20  27
ENDBRANCH  18  23
ENDBRANCH  16  19
ENDBRANCH  15  16
ENDBRANCH   1  15
TORSDOF 9
ENDMDL
MODEL 4
REMARK VINA RESULT:      -7.2      0.985      1.372
REMARK  Name = 
REMARK  10 active torsions:
REMARK  status: ('A' for Active; 'I' for Inactive)
REMARK    1  A    between atoms: C_1  and  O_2
REMARK    2  A    between atoms: O_2  and  C_3
REMARK    3  A    between atoms: C_6  and  C_7
REMARK    4  A    between atoms: C_8  and  C_9
REMARK    5  A    between atoms: C_9  and  O_11
REMARK    6  A    between atoms: O_11  and  C_12
REMARK    7  A    between atoms: C_14  and  O_15
REMARK    8  A    between atoms: C_16  and  O_17
REMARK    9  A    between atoms: C_18  and  O_19
REMARK   10  A    between atoms: C_20  and  O_21
REMARK                            x       y       z     vdW  Elec       q    Type
REMARK                         _______ _______ _______ _____ _____    ______ ____
ROOT
ATOM      1  C   UNL     1       3.215   4.491  18.119  0.00  0.00    +0.000 C 
ATOM      2  C   UNL     1       1.826   4.101  18.636  0.00  0.00    +0.000 C 
ATOM      3  C   UNL     1       1.848   3.799  20.132  0.00  0.00    +0.000 C 
ATOM      4  C   UNL     1       2.856   2.684  20.464  0.00  0.00    +0.000 C 
ATOM      5  C   UNL     1       4.264   3.053  19.956  0.00  0.00    +0.000 C 
ATOM      6  C   UNL     1       4.255   3.401  18.456  0.00  0.00    +0.000 C 
ENDROOT
BRANCH   3   7
ATOM      7  O   UNL     1       0.519   3.447  20.522  0.00  0.00    +0.000 OA
ATOM      8  H   UNL     1       0.072   4.238  20.866  0.00  0.00    +0.000 HD
ENDBRANCH   3   7
BRANCH   4   9
ATOM      9  O   UNL     1       2.856   2.442  21.875  0.00  0.00    +0.000 OA
ATOM     10  H   UNL     1       3.264   3.205  22.320  0.00  0.00    +0.000 HD
ENDBRANCH   4   9
BRANCH   5  11
ATOM     11  O   UNL     1       5.165   1.962  20.185  0.00  0.00    +0.000 OA
ATOM     12  H   UNL     1       5.105   1.380  19.402  0.00  0.00    +0.000 HD
ENDBRANCH   5  11
BRANCH   6  13
ATOM     13  O   UNL     1       4.045   2.197  17.698  0.00  0.00    +0.000 OA
ATOM     14  H   UNL     1       4.564   2.216  16.876  0.00  0.00    +0.000 HD
ENDBRANCH   6  13
BRANCH   1  15
ATOM     15  O   UNL     1       3.626   5.730  18.741  0.00  0.00    +0.000 OA
BRANCH  15  16
ATOM     16  C   UNL     1       3.483   6.840  17.968  0.00  0.00    +0.000 C 
ATOM     17  O   UNL     1       4.155   7.121  16.989  0.00  0.00    +0.000 OA
BRANCH  16  19
ATOM     18  C   UNL     1       1.951   8.723  17.801  0.00  0.00    +0.000 C 
ATOM     19  C   UNL     1       2.362   7.648  18.491  0.00  0.00    +0.000 C 
BRANCH  18  23
ATOM     20  C   UNL     1      -1.155  11.433  18.992  0.00  0.00    +0.000 A 
ATOM     21  C   UNL     1      -1.369  10.475  18.003  0.00  0.00    +0.000 A 
ATOM     22  C   UNL     1      -0.355   9.584  17.644  0.00  0.00    +0.000 A 
ATOM     23  C   UNL     1       0.908   9.661  18.246  0.00  0.00    +0.000 A 
ATOM     24  C   UNL     1       1.109  10.610  19.252  0.00  0.00    +0.000 A 
ATOM     25  C   UNL     1       0.089  11.498  19.619  0.00  0.00    +0.000 A 
BRANCH  20  27
ATOM     26  C   UNL     1      -2.219  12.938  20.482  0.00  0.00    +0.000 C 
ATOM     27  O   UNL     1      -2.211  12.269  19.226  0.00  0.00    +0.000 OA
ENDBRANCH  20  27
ENDBRANCH  18  23
ENDBRANCH  16  19
ENDBRANCH  15  16
ENDBRANCH   1  15
TORSDOF 9
ENDMDL
MODEL 5
REMARK VINA RESULT:      -7.2      0.887      1.068
REMARK  Name = 
REMARK  10 active torsions:
REMARK  status: ('A' for Active; 'I' for Inactive)
REMARK    1  A    between atoms: C_1  and  O_2
REMARK    2  A    between atoms: O_2  and  C_3
REMARK    3  A    between atoms: C_6  and  C_7
REMARK    4  A    between atoms: C_8  and  C_9
REMARK    5  A    between atoms: C_9  and  O_11
REMARK    6  A    between atoms: O_11  and  C_12
REMARK    7  A    between atoms: C_14  and  O_15
REMARK    8  A    between atoms: C_16  and  O_17
REMARK    9  A    between atoms: C_18  and  O_19
REMARK   10  A    between atoms: C_20  and  O_21
REMARK                            x       y       z     vdW  Elec       q    Type
REMARK                         _______ _______ _______ _____ _____    ______ ____
ROOT
ATOM      1  C   UNL     1       3.217   4.490  18.101  0.00  0.00    +0.000 C 
ATOM      2  C   UNL     1       1.828   4.096  18.612  0.00  0.00    +0.000 C 
ATOM      3  C   UNL     1       1.844   3.797  20.109  0.00  0.00    +0.000 C 
ATOM      4  C   UNL     1       2.854   2.687  20.448  0.00  0.00    +0.000 C 
ATOM      5  C   UNL     1       4.263   3.060  19.946  0.00  0.00    +0.000 C 
ATOM      6  C   UNL     1       4.260   3.405  18.444  0.00  0.00    +0.000 C 
ENDROOT
BRANCH   3   7
ATOM      7  O   UNL     1       0.514   3.442  20.494  0.00  0.00    +0.000 OA
ATOM      8  H   UNL     1       0.496   3.277  21.451  0.00  0.00    +0.000 HD
ENDBRANCH   3   7
BRANCH   4   9
ATOM      9  O   UNL     1       2.848   2.448  21.859  0.00  0.00    +0.000 OA
ATOM     10  H   UNL     1       1.925   2.379  22.157  0.00  0.00    +0.000 HD
ENDBRANCH   4   9
BRANCH   5  11
ATOM     11  O   UNL     1       5.167   1.973  20.181  0.00  0.00    +0.000 OA
ATOM     12  H   UNL     1       5.003   1.314  19.477  0.00  0.00    +0.000 HD
ENDBRANCH   5  11
BRANCH   6  13
ATOM     13  O   UNL     1       4.057   2.199  17.688  0.00  0.00    +0.000 OA
ATOM     14  H   UNL     1       4.100   1.420  18.269  0.00  0.00    +0.000 HD
ENDBRANCH   6  13
BRANCH   1  15
ATOM     15  O   UNL     1       3.621   5.732  18.722  0.00  0.00    +0.000 OA
BRANCH  15  16
ATOM     16  C   UNL     1       3.438   6.844  17.961  0.00  0.00    +0.000 C 
ATOM     17  O   UNL     1       4.123   7.180  17.008  0.00  0.00    +0.000 OA
BRANCH  16  19
ATOM     18  C   UNL     1       1.920   8.744  17.888  0.00  0.00    +0.000 C 
ATOM     19  C   UNL     1       2.257   7.579  18.461  0.00  0.00    +0.000 C 
BRANCH  18  23
ATOM     20  C   UNL     1      -1.219  11.300  19.313  0.00  0.00    +0.000 A 
ATOM     21  C   UNL     1       0.008  11.223  19.971  0.00  0.00    +0.000 A 
ATOM     22  C   UNL     1       1.028  10.404  19.480  0.00  0.00    +0.000 A 
ATOM     23  C   UNL     1       0.824   9.617  18.338  0.00  0.00    +0.000 A 
ATOM     24  C   UNL     1      -0.400   9.716  17.672  0.00  0.00    +0.000 A 
ATOM     25  C   UNL     1      -1.421  10.545  18.158  0.00  0.00    +0.000 A 
BRANCH  20  27
ATOM     26  C   UNL     1      -1.892  12.465  21.264  0.00  0.00    +0.000 C 
ATOM     27  O   UNL     1      -2.147  12.106  19.912  0.00  0.00    +0.000 OA
ENDBRANCH  20  27
ENDBRANCH  18  23
ENDBRANCH  16  19
ENDBRANCH  15  16
ENDBRANCH   1  15
TORSDOF 9
ENDMDL
MODEL 6
REMARK VINA RESULT:      -7.1      5.440      6.404
REMARK  Name = 
REMARK  10 active torsions:
REMARK  status: ('A' for Active; 'I' for Inactive)
REMARK    1  A    between atoms: C_1  and  O_2
REMARK    2  A    between atoms: O_2  and  C_3
REMARK    3  A    between atoms: C_6  and  C_7
REMARK    4  A    between atoms: C_8  and  C_9
REMARK    5  A    between atoms: C_9  and  O_11
REMARK    6  A    between atoms: O_11  and  C_12
REMARK    7  A    between atoms: C_14  and  O_15
REMARK    8  A    between atoms: C_16  and  O_17
REMARK    9  A    between atoms: C_18  and  O_19
REMARK   10  A    between atoms: C_20  and  O_21
REMARK                            x       y       z     vdW  Elec       q    Type
REMARK                         _______ _______ _______ _____ _____    ______ ____
ROOT
ATOM      1  C   UNL     1       5.335   6.022  17.231  0.00  0.00    +0.000 C 
ATOM      2  C   UNL     1       3.915   6.548  17.464  0.00  0.00    +0.000 C 
ATOM      3  C   UNL     1       3.484   6.374  18.917  0.00  0.00    +0.000 C 
ATOM      4  C   UNL     1       3.569   4.901  19.356  0.00  0.00    +0.000 C 
ATOM      5  C   UNL     1       4.991   4.349  19.134  0.00  0.00    +0.000 C 
ATOM      6  C   UNL     1       5.461   4.552  17.681  0.00  0.00    +0.000 C 
ENDROOT
BRANCH   3   7
ATOM      7  O   UNL     1       2.155   6.889  19.039  0.00  0.00    +0.000 OA
ATOM      8  H   UNL     1       1.751   6.531  19.847  0.00  0.00    +0.000 HD
ENDBRANCH   3   7
BRANCH   4   9
ATOM      9  O   UNL     1       3.170   4.785  20.726  0.00  0.00    +0.000 OA
ATOM     10  H   UNL     1       3.257   5.657  21.148  0.00  0.00    +0.000 HD
ENDBRANCH   4   9
BRANCH   5  11
ATOM     11  O   UNL     1       5.025   2.952  19.454  0.00  0.00    +0.000 OA
ATOM     12  H   UNL     1       5.757   2.564  18.935  0.00  0.00    +0.000 HD
ENDBRANCH   5  11
BRANCH   6  13
ATOM     13  O   UNL     1       4.729   3.657  16.825  0.00  0.00    +0.000 OA
ATOM     14  H   UNL     1       5.055   3.716  15.911  0.00  0.00    +0.000 HD
ENDBRANCH   6  13
BRANCH   1  15
ATOM     15  O   UNL     1       6.271   6.820  17.992  0.00  0.00    +0.000 OA
BRANCH  15  16
ATOM     16  C   UNL     1       7.430   7.122  17.349  0.00  0.00    +0.000 C 
ATOM     17  O   UNL     1       7.797   6.660  16.280  0.00  0.00    +0.000 OA
BRANCH  16  19
ATOM     18  C   UNL     1       8.127   9.413  17.780  0.00  0.00    +0.000 C 
ATOM     19  C   UNL     1       8.174   8.122  18.143  0.00  0.00    +0.000 C 
BRANCH  18  23
ATOM     20  C   UNL     1      10.313  12.519  19.778  0.00  0.00    +0.000 A 
ATOM     21  C   UNL     1      10.048  11.302  20.404  0.00  0.00    +0.000 A 
ATOM     22  C   UNL     1       9.356  10.291  19.730  0.00  0.00    +0.000 A 
ATOM     23  C   UNL     1       8.884  10.497  18.427  0.00  0.00    +0.000 A 
ATOM     24  C   UNL     1       9.172  11.711  17.798  0.00  0.00    +0.000 A 
ATOM     25  C   UNL     1       9.875  12.721  18.470  0.00  0.00    +0.000 A 
BRANCH  20  27
ATOM     26  C   UNL     1      10.153  14.202  21.438  0.00  0.00    +0.000 C 
ATOM     27  O   UNL     1      10.963  13.438  20.553  0.00  0.00    +0.000 OA
ENDBRANCH  20  27
ENDBRANCH  18  23
ENDBRANCH  16  19
ENDBRANCH  15  16
ENDBRANCH   1  15
TORSDOF 9
ENDMDL
MODEL 7
REMARK VINA RESULT:      -7.1      1.638      2.717
REMARK  Name = 
REMARK  10 active torsions:
REMARK  status: ('A' for Active; 'I' for Inactive)
REMARK    1  A    between atoms: C_1  and  O_2
REMARK    2  A    between atoms: O_2  and  C_3
REMARK    3  A    between atoms: C_6  and  C_7
REMARK    4  A    between atoms: C_8  and  C_9
REMARK    5  A    between atoms: C_9  and  O_11
REMARK    6  A    between atoms: O_11  and  C_12
REMARK    7  A    between atoms: C_14  and  O_15
REMARK    8  A    between atoms: C_16  and  O_17
REMARK    9  A    between atoms: C_18  and  O_19
REMARK   10  A    between atoms: C_20  and  O_21
REMARK                            x       y       z     vdW  Elec       q    Type
REMARK                         _______ _______ _______ _____ _____    ______ ____
ROOT
ATOM      1  C   UNL     1       1.988   4.886  19.225  0.00  0.00    +0.000 C 
ATOM      2  C   UNL     1       1.767   3.937  20.408  0.00  0.00    +0.000 C 
ATOM      3  C   UNL     1       3.069   3.275  20.849  0.00  0.00    +0.000 C 
ATOM      4  C   UNL     1       3.730   2.510  19.688  0.00  0.00    +0.000 C 
ATOM      5  C   UNL     1       3.966   3.443  18.484  0.00  0.00    +0.000 C 
ATOM      6  C   UNL     1       2.669   4.153  18.051  0.00  0.00    +0.000 C 
ENDROOT
BRANCH   3   7
ATOM      7  O   UNL     1       2.767   2.415  21.949  0.00  0.00    +0.000 OA
ATOM      8  H   UNL     1       2.059   2.817  22.479  0.00  0.00    +0.000 HD
ENDBRANCH   3   7
BRANCH   4   9
ATOM      9  O   UNL     1       4.952   1.918  20.139  0.00  0.00    +0.000 OA
ATOM     10  H   UNL     1       5.201   2.328  20.985  0.00  0.00    +0.000 HD
ENDBRANCH   4   9
BRANCH   5  11
ATOM     11  O   UNL     1       4.488   2.692  17.381  0.00  0.00    +0.000 OA
ATOM     12  H   UNL     1       5.457   2.823  17.386  0.00  0.00    +0.000 HD
ENDBRANCH   5  11
BRANCH   6  13
ATOM     13  O   UNL     1       1.797   3.193  17.430  0.00  0.00    +0.000 OA
ATOM     14  H   UNL     1       2.298   2.409  17.145  0.00  0.00    +0.000 HD
ENDBRANCH   6  13
BRANCH   1  15
ATOM     15  O   UNL     1       2.836   5.980  19.642  0.00  0.00    +0.000 OA
BRANCH  15  16
ATOM     16  C   UNL     1       2.454   7.208  19.201  0.00  0.00    +0.000 C 
ATOM     17  O   UNL     1       2.650   7.660  18.085  0.00  0.00    +0.000 OA
BRANCH  16  19
ATOM     18  C   UNL     1       1.030   9.010  20.003  0.00  0.00    +0.000 C 
ATOM     19  C   UNL     1       1.739   7.908  20.289  0.00  0.00    +0.000 C 
BRANCH  18  23
ATOM     20  C   UNL     1      -0.930  11.562  22.842  0.00  0.00    +0.000 A 
ATOM     21  C   UNL     1      -0.476  12.053  21.619  0.00  0.00    +0.000 A 
ATOM     22  C   UNL     1       0.139  11.204  20.696  0.00  0.00    +0.000 A 
ATOM     23  C   UNL     1       0.342   9.850  20.996  0.00  0.00    +0.000 A 
ATOM     24  C   UNL     1      -0.136   9.360  22.215  0.00  0.00    +0.000 A 
ATOM     25  C   UNL     1      -0.761  10.210  23.138  0.00  0.00    +0.000 A 
BRANCH  20  27
ATOM     26  C   UNL     1      -1.277  13.859  23.312  0.00  0.00    +0.000 C 
ATOM     27  O   UNL     1      -1.479  12.498  23.673  0.00  0.00    +0.000 OA
ENDBRANCH  20  27
ENDBRANCH  18  23
ENDBRANCH  16  19
ENDBRANCH  15  16
ENDBRANCH   1  15
TORSDOF 9
ENDMDL
MODEL 8
REMARK VINA RESULT:      -7.0      1.694      2.552
REMARK  Name = 
REMARK  10 active torsions:
REMARK  status: ('A' for Active; 'I' for Inactive)
REMARK    1  A    between atoms: C_1  and  O_2
REMARK    2  A    between atoms: O_2  and  C_3
REMARK    3  A    between atoms: C_6  and  C_7
REMARK    4  A    between atoms: C_8  and  C_9
REMARK    5  A    between atoms: C_9  and  O_11
REMARK    6  A    between atoms: O_11  and  C_12
REMARK    7  A    between atoms: C_14  and  O_15
REMARK    8  A    between atoms: C_16  and  O_17
REMARK    9  A    between atoms: C_18  and  O_19
REMARK   10  A    between atoms: C_20  and  O_21
REMARK                            x       y       z     vdW  Elec       q    Type
REMARK                         _______ _______ _______ _____ _____    ______ ____
ROOT
ATOM      1  C   UNL     1       2.081   4.879  19.214  0.00  0.00    +0.000 C 
ATOM      2  C   UNL     1       1.841   3.920  20.384  0.00  0.00    +0.000 C 
ATOM      3  C   UNL     1       3.134   3.243  20.828  0.00  0.00    +0.000 C 
ATOM      4  C   UNL     1       3.800   2.485  19.665  0.00  0.00    +0.000 C 
ATOM      5  C   UNL     1       4.055   3.430  18.475  0.00  0.00    +0.000 C 
ATOM      6  C   UNL     1       2.767   4.155  18.037  0.00  0.00    +0.000 C 
ENDROOT
BRANCH   3   7
ATOM      7  O   UNL     1       2.815   2.372  21.916  0.00  0.00    +0.000 OA
ATOM      8  H   UNL     1       2.033   1.846  21.680  0.00  0.00    +0.000 HD
ENDBRANCH   3   7
BRANCH   4   9
ATOM      9  O   UNL     1       5.014   1.878  20.120  0.00  0.00    +0.000 OA
ATOM     10  H   UNL     1       4.878   0.916  20.172  0.00  0.00    +0.000 HD
ENDBRANCH   4   9
BRANCH   5  11
ATOM     11  O   UNL     1       4.581   2.688  17.367  0.00  0.00    +0.000 OA
ATOM     12  H   UNL     1       4.324   3.172  16.558  0.00  0.00    +0.000 HD
ENDBRANCH   5  11
BRANCH   6  13
ATOM     13  O   UNL     1       1.893   3.209  17.398  0.00  0.00    +0.000 OA
ATOM     14  H   UNL     1       2.022   3.221  16.434  0.00  0.00    +0.000 HD
ENDBRANCH   6  13
BRANCH   1  15
ATOM     15  O   UNL     1       2.934   5.962  19.651  0.00  0.00    +0.000 OA
BRANCH  15  16
ATOM     16  C   UNL     1       2.582   7.195  19.196  0.00  0.00    +0.000 C 
ATOM     17  O   UNL     1       2.874   7.666  18.109  0.00  0.00    +0.000 OA
BRANCH  16  19
ATOM     18  C   UNL     1       1.055   8.958  19.886  0.00  0.00    +0.000 C 
ATOM     19  C   UNL     1       1.766   7.872  20.225  0.00  0.00    +0.000 C 
BRANCH  18  23
ATOM     20  C   UNL     1      -1.252  11.241  22.694  0.00  0.00    +0.000 A 
ATOM     21  C   UNL     1      -0.705  10.006  23.040  0.00  0.00    +0.000 A 
ATOM     22  C   UNL     1       0.064   9.286  22.121  0.00  0.00    +0.000 A 
ATOM     23  C   UNL     1       0.270   9.776  20.824  0.00  0.00    +0.000 A 
ATOM     24  C   UNL     1      -0.263  11.025  20.492  0.00  0.00    +0.000 A 
ATOM     25  C   UNL     1      -1.026  11.752  21.416  0.00  0.00    +0.000 A 
BRANCH  20  27
ATOM     26  C   UNL     1      -3.241  12.408  23.238  0.00  0.00    +0.000 C 
ATOM     27  O   UNL     1      -2.014  11.829  23.665  0.00  0.00    +0.000 OA
ENDBRANCH  20  27
ENDBRANCH  18  23
ENDBRANCH  16  19
ENDBRANCH  15  16
ENDBRANCH   1  15
TORSDOF 9
ENDMDL
MODEL 9
REMARK VINA RESULT:      -7.0      1.413      2.661
REMARK  Name = 
REMARK  10 active torsions:
REMARK  status: ('A' for Active; 'I' for Inactive)
REMARK    1  A    between atoms: C_1  and  O_2
REMARK    2  A    between atoms: O_2  and  C_3
REMARK    3  A    between atoms: C_6  and  C_7
REMARK    4  A    between atoms: C_8  and  C_9
REMARK    5  A    between atoms: C_9  and  O_11
REMARK    6  A    between atoms: O_11  and  C_12
REMARK    7  A    between atoms: C_14  and  O_15
REMARK    8  A    between atoms: C_16  and  O_17
REMARK    9  A    between atoms: C_18  and  O_19
REMARK   10  A    between atoms: C_20  and  O_21
REMARK                            x       y       z     vdW  Elec       q    Type
REMARK                         _______ _______ _______ _____ _____    ______ ____
ROOT
ATOM      1  C   UNL     1       2.321   5.050  19.275  0.00  0.00    +0.000 C 
ATOM      2  C   UNL     1       3.588   4.445  19.889  0.00  0.00    +0.000 C 
ATOM      3  C   UNL     1       4.077   3.238  19.094  0.00  0.00    +0.000 C 
ATOM      4  C   UNL     1       2.985   2.157  18.987  0.00  0.00    +0.000 C 
ATOM      5  C   UNL     1       1.700   2.740  18.368  0.00  0.00    +0.000 C 
ATOM      6  C   UNL     1       1.213   3.985  19.134  0.00  0.00    +0.000 C 
ENDROOT
BRANCH   3   7
ATOM      7  O   UNL     1       5.254   2.743  19.737  0.00  0.00    +0.000 OA
ATOM      8  H   UNL     1       6.035   3.087  19.272  0.00  0.00    +0.000 HD
ENDBRANCH   3   7
BRANCH   4   9
ATOM      9  O   UNL     1       3.479   1.052  18.223  0.00  0.00    +0.000 OA
ATOM     10  H   UNL     1       4.151   1.381  17.601  0.00  0.00    +0.000 HD
ENDBRANCH   4   9
BRANCH   5  11
ATOM     11  O   UNL     1       0.666   1.748  18.369  0.00  0.00    +0.000 OA
ATOM     12  H   UNL     1      -0.180   2.225  18.258  0.00  0.00    +0.000 HD
ENDBRANCH   5  11
BRANCH   6  13
ATOM     13  O   UNL     1       0.690   3.574  20.409  0.00  0.00    +0.000 OA
ATOM     14  H   UNL     1       0.534   2.614  20.421  0.00  0.00    +0.000 HD
ENDBRANCH   6  13
BRANCH   1  15
ATOM     15  O   UNL     1       2.630   5.573  17.962  0.00  0.00    +0.000 OA
BRANCH  15  16
ATOM     16  C   UNL     1       3.286   6.764  17.954  0.00  0.00    +0.000 C 
ATOM     17  O   UNL     1       4.407   6.960  17.513  0.00  0.00    +0.000 OA
BRANCH  16  19
ATOM     18  C   UNL     1       1.739   8.629  17.740  0.00  0.00    +0.000 C 
ATOM     19  C   UNL     1       2.413   7.797  18.548  0.00  0.00    +0.000 C 
BRANCH  18  23
ATOM     20  C   UNL     1      -0.783  11.872  18.980  0.00  0.00    +0.000 A 
ATOM     21  C   UNL     1      -1.287  10.805  18.239  0.00  0.00    +0.000 A 
ATOM     22  C   UNL     1      -0.458   9.745  17.864  0.00  0.00    +0.000 A 
ATOM     23  C   UNL     1       0.904   9.752  18.195  0.00  0.00    +0.000 A 
ATOM     24  C   UNL     1       1.398  10.815  18.957  0.00  0.00    +0.000 A 
ATOM     25  C   UNL     1       0.564  11.874  19.342  0.00  0.00    +0.000 A 
BRANCH  20  27
ATOM     26  C   UNL     1      -1.251  13.876  20.155  0.00  0.00    +0.000 C 
ATOM     27  O   UNL     1      -1.683  12.864  19.253  0.00  0.00    +0.000 OA
ENDBRANCH  20  27
ENDBRANCH  18  23
ENDBRANCH  16  19
ENDBRANCH  15  16
ENDBRANCH   1  15
TORSDOF 9
ENDMDL
