MODEL 1
REMARK VINA RESULT:      -8.5      0.000      0.000
REMARK  Name = 
REMARK  3 active torsions:
REMARK  status: ('A' for Active; 'I' for Inactive)
REMARK    1  A    between atoms: C_1  and  O_2
REMARK    2  A    between atoms: O_2  and  C_3
REMARK    3  A    between atoms: C_8  and  C_9
REMARK                            x       y       z     vdW  Elec       q    Type
REMARK                         _______ _______ _______ _____ _____    ______ ____
ROOT
ATOM      1  C   UNL     1       2.230   6.640  19.893  0.00  0.00    +0.000 A 
ATOM      2  C   UNL     1       1.478   5.789  20.706  0.00  0.00    +0.000 A 
ATOM      3  C   UNL     1       1.863   4.455  20.902  0.00  0.00    +0.000 A 
ATOM      4  C   UNL     1       3.015   3.926  20.328  0.00  0.00    +0.000 A 
ATOM      5  N   UNL     1       3.270   2.628  20.508  0.00  0.00    +0.000 NA
ATOM      6  C   UNL     1       4.354   2.153  19.891  0.00  0.00    +0.000 A 
ATOM      7  N   UNL     1       5.218   2.855  19.151  0.00  0.00    +0.000 NA
ATOM      8  C   UNL     1       4.981   4.174  18.997  0.00  0.00    +0.000 A 
ATOM      9  N   UNL     1       5.890   4.858  18.226  0.00  0.00    +0.000 N 
ATOM     10  C   UNL     1       6.419   6.200  18.481  0.00  0.00    +0.000 C 
ATOM     11  C   UNL     1       6.241   7.040  17.201  0.00  0.00    +0.000 C 
ATOM     12  O   UNL     1       6.871   6.408  16.068  0.00  0.00    +0.000 OA
ATOM     13  C   UNL     1       6.333   5.088  15.856  0.00  0.00    +0.000 C 
ATOM     14  C   UNL     1       6.528   4.188  17.090  0.00  0.00    +0.000 C 
ATOM     15  C   UNL     1       3.828   4.767  19.556  0.00  0.00    +0.000 A 
ATOM     16  C   UNL     1       3.389   6.096  19.329  0.00  0.00    +0.000 A 
ENDROOT
BRANCH   1  22
ATOM     17  C   UNL     1       1.187   8.917  20.447  0.00  0.00    +0.000 A 
ATOM     18  C   UNL     1       0.907  10.237  20.054  0.00  0.00    +0.000 A 
ATOM     19  C   UNL     1       1.153  10.659  18.749  0.00  0.00    +0.000 A 
ATOM     20  C   UNL     1       1.701   9.774  17.831  0.00  0.00    +0.000 A 
ATOM     21  C   UNL     1       2.021   8.474  18.224  0.00  0.00    +0.000 A 
ATOM     22  C   UNL     1       1.785   8.011  19.536  0.00  0.00    +0.000 A 
BRANCH  17  24
ATOM     23  C   UNL     1       0.086   9.339  22.499  0.00  0.00    +0.000 C 
ATOM     24  O   UNL     1       0.938   8.487  21.732  0.00  0.00    +0.000 OA
ENDBRANCH  17  24
ENDBRANCH   1  22
TORSDOF 2
ENDMDL
MODEL 2
REMARK VINA RESULT:      -8.0      2.335      4.323
REMARK  Name = 
REMARK  3 active torsions:
REMARK  status: ('A' for Active; 'I' for Inactive)
REMARK    1  A    between atoms: C_1  and  O_2
REMARK    2  A    between atoms: O_2  and  C_3
REMARK    3  A    between atoms: C_8  and  C_9
REMARK                            x       y       z     vdW  Elec       q    Type
REMARK                         _______ _______ _______ _____ _____    ______ ____
ROOT
ATOM      1  C   UNL     1       2.225   7.838  18.872  0.00  0.00    +0.000 A 
ATOM      2  C   UNL     1       2.993   8.462  17.886  0.00  0.00    +0.000 A 
ATOM      3  C   UNL     1       3.877   7.723  17.087  0.00  0.00    +0.000 A 
ATOM      4  C   UNL     1       4.010   6.344  17.212  0.00  0.00    +0.000 A 
ATOM      5  N   UNL     1       4.925   5.728  16.460  0.00  0.00    +0.000 NA
ATOM      6  C   UNL     1       5.057   4.414  16.657  0.00  0.00    +0.000 A 
ATOM      7  N   UNL     1       4.340   3.661  17.497  0.00  0.00    +0.000 NA
ATOM      8  C   UNL     1       3.390   4.276  18.232  0.00  0.00    +0.000 A 
ATOM      9  N   UNL     1       2.680   3.467  19.087  0.00  0.00    +0.000 N 
ATOM     10  C   UNL     1       1.242   3.533  19.360  0.00  0.00    +0.000 C 
ATOM     11  C   UNL     1       1.044   3.591  20.888  0.00  0.00    +0.000 C 
ATOM     12  O   UNL     1       1.676   2.471  21.541  0.00  0.00    +0.000 OA
ATOM     13  C   UNL     1       3.085   2.435  21.240  0.00  0.00    +0.000 C 
ATOM     14  C   UNL     1       3.341   2.327  19.725  0.00  0.00    +0.000 C 
ATOM     15  C   UNL     1       3.210   5.674  18.148  0.00  0.00    +0.000 A 
ATOM     16  C   UNL     1       2.364   6.450  18.981  0.00  0.00    +0.000 A 
ENDROOT
BRANCH   1  22
ATOM     17  C   UNL     1       0.439   9.578  19.472  0.00  0.00    +0.000 A 
ATOM     18  C   UNL     1      -0.393  10.158  20.445  0.00  0.00    +0.000 A 
ATOM     19  C   UNL     1      -0.256   9.824  21.790  0.00  0.00    +0.000 A 
ATOM     20  C   UNL     1       0.698   8.892  22.174  0.00  0.00    +0.000 A 
ATOM     21  C   UNL     1       1.500   8.280  21.210  0.00  0.00    +0.000 A 
ATOM     22  C   UNL     1       1.391   8.594  19.839  0.00  0.00    +0.000 A 
BRANCH  17  24
ATOM     23  C   UNL     1      -1.023  10.004  17.661  0.00  0.00    +0.000 C 
ATOM     24  O   UNL     1       0.319   9.910  18.140  0.00  0.00    +0.000 OA
ENDBRANCH  17  24
ENDBRANCH   1  22
TORSDOF 2
ENDMDL
MODEL 3
REMARK VINA RESULT:      -7.6      1.369      2.150
REMARK  Name = 
REMARK  3 active torsions:
REMARK  status: ('A' for Active; 'I' for Inactive)
REMARK    1  A    between atoms: C_1  and  O_2
REMARK    2  A    between atoms: O_2  and  C_3
REMARK    3  A    between atoms: C_8  and  C_9
REMARK                            x       y       z     vdW  Elec       q    Type
REMARK                         _______ _______ _______ _____ _____    ______ ____
ROOT
ATOM      1  C   UNL     1       1.873   5.995  20.186  0.00  0.00    +0.000 A 
ATOM      2  C   UNL     1       1.071   4.979  20.709  0.00  0.00    +0.000 A 
ATOM      3  C   UNL     1       1.279   3.640  20.348  0.00  0.00    +0.000 A 
ATOM      4  C   UNL     1       2.300   3.257  19.484  0.00  0.00    +0.000 A 
ATOM      5  N   UNL     1       2.383   1.971  19.137  0.00  0.00    +0.000 NA
ATOM      6  C   UNL     1       3.342   1.661  18.261  0.00  0.00    +0.000 A 
ATOM      7  N   UNL     1       4.239   2.501  17.737  0.00  0.00    +0.000 NA
ATOM      8  C   UNL     1       4.179   3.796  18.113  0.00  0.00    +0.000 A 
ATOM      9  N   UNL     1       5.116   4.626  17.547  0.00  0.00    +0.000 N 
ATOM     10  C   UNL     1       5.845   5.707  18.216  0.00  0.00    +0.000 C 
ATOM     11  C   UNL     1       5.692   6.987  17.371  0.00  0.00    +0.000 C 
ATOM     12  O   UNL     1       6.144   6.777  16.017  0.00  0.00    +0.000 OA
ATOM     13  C   UNL     1       5.412   5.701  15.397  0.00  0.00    +0.000 C 
ATOM     14  C   UNL     1       5.569   4.382  16.176  0.00  0.00    +0.000 C 
ATOM     15  C   UNL     1       3.164   4.242  18.987  0.00  0.00    +0.000 A 
ATOM     16  C   UNL     1       2.901   5.595  19.324  0.00  0.00    +0.000 A 
ENDROOT
BRANCH   1  22
ATOM     17  C   UNL     1       1.586   8.420  19.401  0.00  0.00    +0.000 A 
ATOM     18  C   UNL     1       1.200   9.739  19.694  0.00  0.00    +0.000 A 
ATOM     19  C   UNL     1       0.886  10.117  20.998  0.00  0.00    +0.000 A 
ATOM     20  C   UNL     1       0.933   9.176  22.017  0.00  0.00    +0.000 A 
ATOM     21  C   UNL     1       1.275   7.854  21.728  0.00  0.00    +0.000 A 
ATOM     22  C   UNL     1       1.600   7.435  20.420  0.00  0.00    +0.000 A 
BRANCH  17  24
ATOM     23  C   UNL     1       2.582   9.035  17.344  0.00  0.00    +0.000 C 
ATOM     24  O   UNL     1       1.909   8.040  18.116  0.00  0.00    +0.000 OA
ENDBRANCH  17  24
ENDBRANCH   1  22
TORSDOF 2
ENDMDL
MODEL 4
REMARK VINA RESULT:      -7.5      2.043      4.000
REMARK  Name = 
REMARK  3 active torsions:
REMARK  status: ('A' for Active; 'I' for Inactive)
REMARK    1  A    between atoms: C_1  and  O_2
REMARK    2  A    between atoms: O_2  and  C_3
REMARK    3  A    between atoms: C_8  and  C_9
REMARK                            x       y       z     vdW  Elec       q    Type
REMARK                         _______ _______ _______ _____ _____    ______ ____
ROOT
ATOM      1  C   UNL     1       2.394   7.866  18.179  0.00  0.00    +0.000 A 
ATOM      2  C   UNL     1       3.456   8.400  17.446  0.00  0.00    +0.000 A 
ATOM      3  C   UNL     1       4.593   7.631  17.163  0.00  0.00    +0.000 A 
ATOM      4  C   UNL     1       4.708   6.304  17.565  0.00  0.00    +0.000 A 
ATOM      5  N   UNL     1       5.854   5.666  17.315  0.00  0.00    +0.000 NA
ATOM      6  C   UNL     1       5.939   4.414  17.771  0.00  0.00    +0.000 A 
ATOM      7  N   UNL     1       4.982   3.736  18.411  0.00  0.00    +0.000 NA
ATOM      8  C   UNL     1       3.810   4.367  18.634  0.00  0.00    +0.000 A 
ATOM      9  N   UNL     1       2.855   3.637  19.299  0.00  0.00    +0.000 N 
ATOM     10  C   UNL     1       1.418   3.613  19.016  0.00  0.00    +0.000 C 
ATOM     11  C   UNL     1       0.663   3.884  20.333  0.00  0.00    +0.000 C 
ATOM     12  O   UNL     1       1.037   2.936  21.355  0.00  0.00    +0.000 OA
ATOM     13  C   UNL     1       2.457   2.981  21.596  0.00  0.00    +0.000 C 
ATOM     14  C   UNL     1       3.262   2.670  20.321  0.00  0.00    +0.000 C 
ATOM     15  C   UNL     1       3.636   5.715  18.249  0.00  0.00    +0.000 A 
ATOM     16  C   UNL     1       2.519   6.528  18.570  0.00  0.00    +0.000 A 
ENDROOT
BRANCH   1  22
ATOM     17  C   UNL     1       0.948   8.970  19.988  0.00  0.00    +0.000 A 
ATOM     18  C   UNL     1      -0.097   9.849  20.318  0.00  0.00    +0.000 A 
ATOM     19  C   UNL     1      -0.903  10.402  19.326  0.00  0.00    +0.000 A 
ATOM     20  C   UNL     1      -0.660  10.100  17.994  0.00  0.00    +0.000 A 
ATOM     21  C   UNL     1       0.401   9.260  17.653  0.00  0.00    +0.000 A 
ATOM     22  C   UNL     1       1.238   8.681  18.630  0.00  0.00    +0.000 A 
BRANCH  17  24
ATOM     23  C   UNL     1       1.553   8.937  22.275  0.00  0.00    +0.000 C 
ATOM     24  O   UNL     1       1.745   8.409  20.963  0.00  0.00    +0.000 OA
ENDBRANCH  17  24
ENDBRANCH   1  22
TORSDOF 2
ENDMDL
MODEL 5
REMARK VINA RESULT:      -7.0      4.308      7.321
REMARK  Name = 
REMARK  3 active torsions:
REMARK  status: ('A' for Active; 'I' for Inactive)
REMARK    1  A    between atoms: C_1  and  O_2
REMARK    2  A    between atoms: O_2  and  C_3
REMARK    3  A    between atoms: C_8  and  C_9
REMARK                            x       y       z     vdW  Elec       q    Type
REMARK                         _______ _______ _______ _____ _____    ______ ____
ROOT
ATOM      1  C   UNL     1       1.098   8.623  20.404  0.00  0.00    +0.000 A 
ATOM      2  C   UNL     1       0.322   8.078  21.429  0.00  0.00    +0.000 A 
ATOM      3  C   UNL     1      -0.396   8.904  22.305  0.00  0.00    +0.000 A 
ATOM      4  C   UNL     1      -0.397  10.289  22.182  0.00  0.00    +0.000 A 
ATOM      5  N   UNL     1      -1.050  11.003  23.102  0.00  0.00    +0.000 NA
ATOM      6  C   UNL     1      -0.974  12.330  22.975  0.00  0.00    +0.000 A 
ATOM      7  N   UNL     1      -0.345  13.000  22.005  0.00  0.00    +0.000 NA
ATOM      8  C   UNL     1       0.286  12.280  21.054  0.00  0.00    +0.000 A 
ATOM      9  N   UNL     1       0.923  13.007  20.078  0.00  0.00    +0.000 N 
ATOM     10  C   UNL     1       0.964  12.701  18.646  0.00  0.00    +0.000 C 
ATOM     11  C   UNL     1       2.436  12.722  18.190  0.00  0.00    +0.000 C 
ATOM     12  O   UNL     1       3.062  13.985  18.499  0.00  0.00    +0.000 OA
ATOM     13  C   UNL     1       2.992  14.255  19.913  0.00  0.00    +0.000 C 
ATOM     14  C   UNL     1       1.537  14.293  20.415  0.00  0.00    +0.000 C 
ATOM     15  C   UNL     1       0.321  10.870  21.128  0.00  0.00    +0.000 A 
ATOM     16  C   UNL     1       1.082  10.018  20.287  0.00  0.00    +0.000 A 
ENDROOT
BRANCH   1  22
ATOM     17  C   UNL     1       2.313   6.446  19.801  0.00  0.00    +0.000 A 
ATOM     18  C   UNL     1       3.070   5.711  18.873  0.00  0.00    +0.000 A 
ATOM     19  C   UNL     1       3.567   6.315  17.721  0.00  0.00    +0.000 A 
ATOM     20  C   UNL     1       3.296   7.654  17.474  0.00  0.00    +0.000 A 
ATOM     21  C   UNL     1       2.511   8.381  18.370  0.00  0.00    +0.000 A 
ATOM     22  C   UNL     1       1.991   7.803  19.547  0.00  0.00    +0.000 A 
BRANCH  17  24
ATOM     23  C   UNL     1       1.633   4.447  20.870  0.00  0.00    +0.000 C 
ATOM     24  O   UNL     1       1.826   5.859  20.949  0.00  0.00    +0.000 OA
ENDBRANCH  17  24
ENDBRANCH   1  22
TORSDOF 2
ENDMDL
MODEL 6
REMARK VINA RESULT:      -7.0      2.602      6.305
REMARK  Name = 
REMARK  3 active torsions:
REMARK  status: ('A' for Active; 'I' for Inactive)
REMARK    1  A    between atoms: C_1  and  O_2
REMARK    2  A    between atoms: O_2  and  C_3
REMARK    3  A    between atoms: C_8  and  C_9
REMARK                            x       y       z     vdW  Elec       q    Type
REMARK                         _______ _______ _______ _____ _____    ______ ____
ROOT
ATOM      1  C   UNL     1       4.578   6.146  16.879  0.00  0.00    +0.000 A 
ATOM      2  C   UNL     1       4.346   7.522  16.934  0.00  0.00    +0.000 A 
ATOM      3  C   UNL     1       3.476   8.067  17.889  0.00  0.00    +0.000 A 
ATOM      4  C   UNL     1       2.831   7.280  18.837  0.00  0.00    +0.000 A 
ATOM      5  N   UNL     1       1.965   7.871  19.663  0.00  0.00    +0.000 NA
ATOM      6  C   UNL     1       1.327   7.066  20.517  0.00  0.00    +0.000 A 
ATOM      7  N   UNL     1       1.502   5.748  20.645  0.00  0.00    +0.000 NA
ATOM      8  C   UNL     1       2.403   5.154  19.834  0.00  0.00    +0.000 A 
ATOM      9  N   UNL     1       2.548   3.796  19.995  0.00  0.00    +0.000 N 
ATOM     10  C   UNL     1       3.803   3.041  19.961  0.00  0.00    +0.000 C 
ATOM     11  C   UNL     1       3.636   1.875  18.967  0.00  0.00    +0.000 C 
ATOM     12  O   UNL     1       2.507   1.047  19.316  0.00  0.00    +0.000 OA
ATOM     13  C   UNL     1       1.295   1.827  19.351  0.00  0.00    +0.000 C 
ATOM     14  C   UNL     1       1.389   2.981  20.365  0.00  0.00    +0.000 C 
ATOM     15  C   UNL     1       3.087   5.902  18.852  0.00  0.00    +0.000 A 
ATOM     16  C   UNL     1       3.929   5.367  17.844  0.00  0.00    +0.000 A 
ENDROOT
BRANCH   1  22
ATOM     17  C   UNL     1       6.783   5.578  15.696  0.00  0.00    +0.000 A 
ATOM     18  C   UNL     1       7.460   4.844  14.708  0.00  0.00    +0.000 A 
ATOM     19  C   UNL     1       6.756   4.084  13.777  0.00  0.00    +0.000 A 
ATOM     20  C   UNL     1       5.370   4.034  13.835  0.00  0.00    +0.000 A 
ATOM     21  C   UNL     1       4.691   4.727  14.838  0.00  0.00    +0.000 A 
ATOM     22  C   UNL     1       5.371   5.507  15.799  0.00  0.00    +0.000 A 
BRANCH  17  24
ATOM     23  C   UNL     1       7.637   5.735  17.897  0.00  0.00    +0.000 C 
ATOM     24  O   UNL     1       7.470   6.341  16.616  0.00  0.00    +0.000 OA
ENDBRANCH  17  24
ENDBRANCH   1  22
TORSDOF 2
ENDMDL
MODEL 7
REMARK VINA RESULT:      -6.6      7.246     10.787
REMARK  Name = 
REMARK  3 active torsions:
REMARK  status: ('A' for Active; 'I' for Inactive)
REMARK    1  A    between atoms: C_1  and  O_2
REMARK    2  A    between atoms: O_2  and  C_3
REMARK    3  A    between atoms: C_8  and  C_9
REMARK                            x       y       z     vdW  Elec       q    Type
REMARK                         _______ _______ _______ _____ _____    ______ ____
ROOT
ATOM      1  C   UNL     1      -2.497  12.047  18.843  0.00  0.00    +0.000 A 
ATOM      2  C   UNL     1      -3.192  11.484  17.770  0.00  0.00    +0.000 A 
ATOM      3  C   UNL     1      -4.580  11.295  17.831  0.00  0.00    +0.000 A 
ATOM      4  C   UNL     1      -5.331  11.681  18.937  0.00  0.00    +0.000 A 
ATOM      5  N   UNL     1      -6.636  11.399  18.942  0.00  0.00    +0.000 NA
ATOM      6  C   UNL     1      -7.303  11.737  20.048  0.00  0.00    +0.000 A 
ATOM      7  N   UNL     1      -6.801  12.357  21.120  0.00  0.00    +0.000 NA
ATOM      8  C   UNL     1      -5.490  12.674  21.102  0.00  0.00    +0.000 A 
ATOM      9  N   UNL     1      -5.013  13.306  22.225  0.00  0.00    +0.000 N 
ATOM     10  C   UNL     1      -4.055  14.414  22.265  0.00  0.00    +0.000 C 
ATOM     11  C   UNL     1      -2.923  14.037  23.242  0.00  0.00    +0.000 C 
ATOM     12  O   UNL     1      -3.444  13.715  24.548  0.00  0.00    +0.000 OA
ATOM     13  C   UNL     1      -4.389  12.630  24.466  0.00  0.00    +0.000 C 
ATOM     14  C   UNL     1      -5.569  12.972  23.538  0.00  0.00    +0.000 C 
ATOM     15  C   UNL     1      -4.677  12.306  20.007  0.00  0.00    +0.000 A 
ATOM     16  C   UNL     1      -3.266  12.438  19.944  0.00  0.00    +0.000 A 
ENDROOT
BRANCH   1  22
ATOM     17  C   UNL     1      -0.169  11.075  19.307  0.00  0.00    +0.000 A 
ATOM     18  C   UNL     1       1.226  11.200  19.202  0.00  0.00    +0.000 A 
ATOM     19  C   UNL     1       1.804  12.381  18.742  0.00  0.00    +0.000 A 
ATOM     20  C   UNL     1       0.992  13.442  18.363  0.00  0.00    +0.000 A 
ATOM     21  C   UNL     1      -0.396  13.312  18.425  0.00  0.00    +0.000 A 
ATOM     22  C   UNL     1      -1.016  12.131  18.886  0.00  0.00    +0.000 A 
BRANCH  17  24
ATOM     23  C   UNL     1      -0.149   9.367  20.944  0.00  0.00    +0.000 C 
ATOM     24  O   UNL     1      -0.749   9.914  19.770  0.00  0.00    +0.000 OA
ENDBRANCH  17  24
ENDBRANCH   1  22
TORSDOF 2
ENDMDL
MODEL 8
REMARK VINA RESULT:      -6.5      6.732      9.289
REMARK  Name = 
REMARK  3 active torsions:
REMARK  status: ('A' for Active; 'I' for Inactive)
REMARK    1  A    between atoms: C_1  and  O_2
REMARK    2  A    between atoms: O_2  and  C_3
REMARK    3  A    between atoms: C_8  and  C_9
REMARK                            x       y       z     vdW  Elec       q    Type
REMARK                         _______ _______ _______ _____ _____    ______ ____
ROOT
ATOM      1  C   UNL     1      -4.514  12.891  19.959  0.00  0.00    +0.000 A 
ATOM      2  C   UNL     1      -5.438  12.526  18.978  0.00  0.00    +0.000 A 
ATOM      3  C   UNL     1      -5.069  11.682  17.921  0.00  0.00    +0.000 A 
ATOM      4  C   UNL     1      -3.789  11.147  17.813  0.00  0.00    +0.000 A 
ATOM      5  N   UNL     1      -3.502  10.410  16.738  0.00  0.00    +0.000 NA
ATOM      6  C   UNL     1      -2.246   9.967  16.650  0.00  0.00    +0.000 A 
ATOM      7  N   UNL     1      -1.273  10.158  17.545  0.00  0.00    +0.000 NA
ATOM      8  C   UNL     1      -1.570  10.874  18.650  0.00  0.00    +0.000 A 
ATOM      9  N   UNL     1      -0.540  11.051  19.543  0.00  0.00    +0.000 N 
ATOM     10  C   UNL     1      -0.631  11.002  21.004  0.00  0.00    +0.000 C 
ATOM     11  C   UNL     1       0.016  12.281  21.571  0.00  0.00    +0.000 C 
ATOM     12  O   UNL     1       1.376  12.428  21.110  0.00  0.00    +0.000 OA
ATOM     13  C   UNL     1       1.425  12.460  19.670  0.00  0.00    +0.000 C 
ATOM     14  C   UNL     1       0.833  11.182  19.051  0.00  0.00    +0.000 C 
ATOM     15  C   UNL     1      -2.853  11.442  18.814  0.00  0.00    +0.000 A 
ATOM     16  C   UNL     1      -3.233  12.340  19.843  0.00  0.00    +0.000 A 
ENDROOT
BRANCH   1  22
ATOM     17  C   UNL     1      -4.749  13.637  22.403  0.00  0.00    +0.000 A 
ATOM     18  C   UNL     1      -4.932  14.680  23.327  0.00  0.00    +0.000 A 
ATOM     19  C   UNL     1      -5.239  15.968  22.897  0.00  0.00    +0.000 A 
ATOM     20  C   UNL     1      -5.346  16.233  21.539  0.00  0.00    +0.000 A 
ATOM     21  C   UNL     1      -5.125  15.213  20.612  0.00  0.00    +0.000 A 
ATOM     22  C   UNL     1      -4.813  13.896  21.010  0.00  0.00    +0.000 A 
BRANCH  17  24
ATOM     23  C   UNL     1      -3.258  12.232  23.586  0.00  0.00    +0.000 C 
ATOM     24  O   UNL     1      -4.456  12.357  22.819  0.00  0.00    +0.000 OA
ENDBRANCH  17  24
ENDBRANCH   1  22
TORSDOF 2
ENDMDL
MODEL 9
REMARK VINA RESULT:      -6.4      6.652      9.428
REMARK  Name = 
REMARK  3 active torsions:
REMARK  status: ('A' for Active; 'I' for Inactive)
REMARK    1  A    between atoms: C_1  and  O_2
REMARK    2  A    between atoms: O_2  and  C_3
REMARK    3  A    between atoms: C_8  and  C_9
REMARK                            x       y       z     vdW  Elec       q    Type
REMARK                         _______ _______ _______ _____ _____    ______ ____
ROOT
ATOM      1  C   UNL     1      -4.506  12.832  20.136  0.00  0.00    +0.000 A 
ATOM      2  C   UNL     1      -5.458  12.600  19.141  0.00  0.00    +0.000 A 
ATOM      3  C   UNL     1      -5.134  11.858  17.995  0.00  0.00    +0.000 A 
ATOM      4  C   UNL     1      -3.875  11.298  17.808  0.00  0.00    +0.000 A 
ATOM      5  N   UNL     1      -3.631  10.668  16.657  0.00  0.00    +0.000 NA
ATOM      6  C   UNL     1      -2.391  10.197  16.498  0.00  0.00    +0.000 A 
ATOM      7  N   UNL     1      -1.398  10.263  17.389  0.00  0.00    +0.000 NA
ATOM      8  C   UNL     1      -1.653  10.869  18.568  0.00  0.00    +0.000 A 
ATOM      9  N   UNL     1      -0.603  10.920  19.453  0.00  0.00    +0.000 N 
ATOM     10  C   UNL     1      -0.672  10.722  20.903  0.00  0.00    +0.000 C 
ATOM     11  C   UNL     1       0.027  11.914  21.586  0.00  0.00    +0.000 C 
ATOM     12  O   UNL     1       1.383  12.065  21.117  0.00  0.00    +0.000 OA
ATOM     13  C   UNL     1       1.410  12.246  19.687  0.00  0.00    +0.000 C 
ATOM     14  C   UNL     1       0.765  11.057  18.950  0.00  0.00    +0.000 C 
ATOM     15  C   UNL     1      -2.913  11.457  18.814  0.00  0.00    +0.000 A 
ATOM     16  C   UNL     1      -3.246  12.255  19.938  0.00  0.00    +0.000 A 
ENDROOT
BRANCH   1  22
ATOM     17  C   UNL     1      -5.628  13.427  22.365  0.00  0.00    +0.000 A 
ATOM     18  C   UNL     1      -5.711  14.284  23.476  0.00  0.00    +0.000 A 
ATOM     19  C   UNL     1      -4.986  15.472  23.515  0.00  0.00    +0.000 A 
ATOM     20  C   UNL     1      -4.155  15.807  22.455  0.00  0.00    +0.000 A 
ATOM     21  C   UNL     1      -4.035  14.943  21.366  0.00  0.00    +0.000 A 
ATOM     22  C   UNL     1      -4.754  13.731  21.291  0.00  0.00    +0.000 A 
BRANCH  17  24
ATOM     23  C   UNL     1      -7.538  12.241  23.103  0.00  0.00    +0.000 C 
ATOM     24  O   UNL     1      -6.350  12.255  22.312  0.00  0.00    +0.000 OA
ENDBRANCH  17  24
ENDBRANCH   1  22
TORSDOF 2
ENDMDL
