MODEL 1
REMARK VINA RESULT:      -9.2      0.000      0.000
REMARK  Name = 
REMARK  11 active torsions:
REMARK  status: ('A' for Active; 'I' for Inactive)
REMARK    1  A    between atoms: C_1  and  C_2
REMARK    2  A    between atoms: C_5  and  S_6
REMARK    3  A    between atoms: S_6  and  C_7
REMARK    4  A    between atoms: C_9  and  C_10
REMARK    5  A    between atoms: N_12  and  C_13
REMARK    6  A    between atoms: C_13  and  C_14
REMARK    7  A    between atoms: C_14  and  C_15
REMARK    8  A    between atoms: C_15  and  N_16
REMARK    9  A    between atoms: N_16  and  C_17
REMARK   10  A    between atoms: N_16  and  C_18
REMARK   11  A    between atoms: C_18  and  C_19
REMARK                            x       y       z     vdW  Elec       q    Type
REMARK                         _______ _______ _______ _____ _____    ______ ____
ROOT
ATOM      1  C   UNL     1       5.103   5.058  18.627  0.00  0.00    +0.000 A 
ATOM      2  C   UNL     1       4.352   6.178  18.912  0.00  0.00    +0.000 A 
ATOM      3  C   UNL     1       3.054   6.038  19.412  0.00  0.00    +0.000 A 
ATOM      4  C   UNL     1       2.504   4.744  19.573  0.00  0.00    +0.000 A 
ATOM      5  C   UNL     1       1.208   4.449  20.067  0.00  0.00    +0.000 A 
ATOM      6  C   UNL     1       0.755   3.133  20.178  0.00  0.00    +0.000 A 
ATOM      7  C   UNL     1       1.588   2.089  19.805  0.00  0.00    +0.000 A 
ATOM      8  C   UNL     1       2.870   2.366  19.338  0.00  0.00    +0.000 A 
ATOM      9  C   UNL     1       3.344   3.665  19.218  0.00  0.00    +0.000 A 
ATOM     10  N   UNL     1       4.603   3.817  18.778  0.00  0.00    +0.000 NA
ENDROOT
BRANCH   3  11
ATOM     11  C   UNL     1       2.303   7.297  19.731  0.00  0.00    +0.000 C 
ATOM     12  O   UNL     1       2.069   8.135  18.869  0.00  0.00    +0.000 OA
ATOM     13  N   UNL     1       1.931   7.439  21.050  0.00  0.00    +0.000 N 
ATOM     14  H   UNL     1       2.006   6.653  21.694  0.00  0.00    +0.000 HD
BRANCH  13  15
ATOM     15  C   UNL     1       1.278   8.604  21.608  0.00  0.00    +0.000 C 
BRANCH  15  16
ATOM     16  C   UNL     1       0.513   9.399  20.541  0.00  0.00    +0.000 C 
BRANCH  16  17
ATOM     17  C   UNL     1       0.733  10.924  20.595  0.00  0.00    +0.000 C 
BRANCH  17  18
ATOM     18  N   UNL     1      -0.513  11.728  20.645  0.00  0.00    +0.000 NA
ATOM     19  C   UNL     1      -0.364  12.840  21.600  0.00  0.00    +0.000 C 
BRANCH  18  20
ATOM     20  C   UNL     1      -0.842  12.315  19.328  0.00  0.00    +0.000 C 
BRANCH  20  21
ATOM     21  C   UNL     1      -1.863  11.540  18.526  0.00  0.00    +0.000 A 
ATOM     22  C   UNL     1      -3.236  11.786  18.665  0.00  0.00    +0.000 A 
ATOM     23  C   UNL     1      -4.161  11.055  17.919  0.00  0.00    +0.000 A 
ATOM     24  C   UNL     1      -3.726  10.077  17.024  0.00  0.00    +0.000 A 
ATOM     25  C   UNL     1      -2.362   9.833  16.871  0.00  0.00    +0.000 A 
ATOM     26  C   UNL     1      -1.436  10.560  17.619  0.00  0.00    +0.000 A 
ENDBRANCH  20  21
ENDBRANCH  18  20
ENDBRANCH  17  18
ENDBRANCH  16  17
ENDBRANCH  15  16
ENDBRANCH  13  15
ENDBRANCH   3  11
BRANCH   1  27
ATOM     27  S   UNL     1       6.836   5.132  18.234  0.00  0.00    +0.000 S 
BRANCH  27  32
ATOM     28  C   UNL     1       6.224   3.776  12.911  0.00  0.00    +0.000 C 
ATOM     29  C   UNL     1       6.579   4.393  14.214  0.00  0.00    +0.000 A 
ATOM     30  N   UNL     1       7.443   5.372  14.378  0.00  0.00    +0.000 NA
ATOM     31  N   UNL     1       7.568   5.730  15.704  0.00  0.00    +0.000 NA
ATOM     32  C   UNL     1       6.795   5.015  16.494  0.00  0.00    +0.000 A 
ATOM     33  S   UNL     1       5.860   3.836  15.671  0.00  0.00    +0.000 S 
ENDBRANCH  27  32
ENDBRANCH   1  27
TORSDOF 9
ENDMDL
MODEL 2
REMARK VINA RESULT:      -9.2      0.730      1.253
REMARK  Name = 
REMARK  11 active torsions:
REMARK  status: ('A' for Active; 'I' for Inactive)
REMARK    1  A    between atoms: C_1  and  C_2
REMARK    2  A    between atoms: C_5  and  S_6
REMARK    3  A    between atoms: S_6  and  C_7
REMARK    4  A    between atoms: C_9  and  C_10
REMARK    5  A    between atoms: N_12  and  C_13
REMARK    6  A    between atoms: C_13  and  C_14
REMARK    7  A    between atoms: C_14  and  C_15
REMARK    8  A    between atoms: C_15  and  N_16
REMARK    9  A    between atoms: N_16  and  C_17
REMARK   10  A    between atoms: N_16  and  C_18
REMARK   11  A    between atoms: C_18  and  C_19
REMARK                            x       y       z     vdW  Elec       q    Type
REMARK                         _______ _______ _______ _____ _____    ______ ____
ROOT
ATOM      1  C   UNL     1       5.106   5.123  18.619  0.00  0.00    +0.000 A 
ATOM      2  C   UNL     1       4.313   6.209  18.919  0.00  0.00    +0.000 A 
ATOM      3  C   UNL     1       3.023   6.013  19.422  0.00  0.00    +0.000 A 
ATOM      4  C   UNL     1       2.525   4.696  19.569  0.00  0.00    +0.000 A 
ATOM      5  C   UNL     1       1.243   4.345  20.064  0.00  0.00    +0.000 A 
ATOM      6  C   UNL     1       0.843   3.010  20.160  0.00  0.00    +0.000 A 
ATOM      7  C   UNL     1       1.715   2.005  19.772  0.00  0.00    +0.000 A 
ATOM      8  C   UNL     1       2.984   2.338  19.304  0.00  0.00    +0.000 A 
ATOM      9  C   UNL     1       3.406   3.655  19.198  0.00  0.00    +0.000 A 
ATOM     10  N   UNL     1       4.656   3.862  18.757  0.00  0.00    +0.000 NA
ENDROOT
BRANCH   3  11
ATOM     11  C   UNL     1       2.224   7.237  19.759  0.00  0.00    +0.000 C 
ATOM     12  O   UNL     1       1.940   8.068  18.905  0.00  0.00    +0.000 OA
ATOM     13  N   UNL     1       1.869   7.358  21.085  0.00  0.00    +0.000 N 
ATOM     14  H   UNL     1       1.988   6.574  21.724  0.00  0.00    +0.000 HD
BRANCH  13  15
ATOM     15  C   UNL     1       1.175   8.492  21.658  0.00  0.00    +0.000 C 
BRANCH  15  16
ATOM     16  C   UNL     1       1.281   9.739  20.769  0.00  0.00    +0.000 C 
BRANCH  16  17
ATOM     17  C   UNL     1       0.090  10.712  20.882  0.00  0.00    +0.000 C 
BRANCH  17  18
ATOM     18  N   UNL     1      -0.490  11.135  19.585  0.00  0.00    +0.000 NA
ATOM     19  C   UNL     1       0.555  11.713  18.722  0.00  0.00    +0.000 C 
BRANCH  18  20
ATOM     20  C   UNL     1      -1.089   9.997  18.854  0.00  0.00    +0.000 C 
BRANCH  20  21
ATOM     21  C   UNL     1      -2.149  10.379  17.846  0.00  0.00    +0.000 A 
ATOM     22  C   UNL     1      -2.116   9.886  16.533  0.00  0.00    +0.000 A 
ATOM     23  C   UNL     1      -3.102  10.257  15.618  0.00  0.00    +0.000 A 
ATOM     24  C   UNL     1      -4.133  11.115  16.004  0.00  0.00    +0.000 A 
ATOM     25  C   UNL     1      -4.180  11.601  17.309  0.00  0.00    +0.000 A 
ATOM     26  C   UNL     1      -3.192  11.235  18.225  0.00  0.00    +0.000 A 
ENDBRANCH  20  21
ENDBRANCH  18  20
ENDBRANCH  17  18
ENDBRANCH  16  17
ENDBRANCH  15  16
ENDBRANCH  13  15
ENDBRANCH   3  11
BRANCH   1  27
ATOM     27  S   UNL     1       6.833   5.270  18.221  0.00  0.00    +0.000 S 
BRANCH  27  32
ATOM     28  C   UNL     1       6.269   3.744  12.940  0.00  0.00    +0.000 C 
ATOM     29  C   UNL     1       6.604   4.409  14.224  0.00  0.00    +0.000 A 
ATOM     30  N   UNL     1       7.437   5.418  14.361  0.00  0.00    +0.000 NA
ATOM     31  N   UNL     1       7.549   5.818  15.676  0.00  0.00    +0.000 NA
ATOM     32  C   UNL     1       6.798   5.103  16.486  0.00  0.00    +0.000 A 
ATOM     33  S   UNL     1       5.901   3.872  15.697  0.00  0.00    +0.000 S 
ENDBRANCH  27  32
ENDBRANCH   1  27
TORSDOF 9
ENDMDL
MODEL 3
REMARK VINA RESULT:      -9.2      1.709      2.982
REMARK  Name = 
REMARK  11 active torsions:
REMARK  status: ('A' for Active; 'I' for Inactive)
REMARK    1  A    between atoms: C_1  and  C_2
REMARK    2  A    between atoms: C_5  and  S_6
REMARK    3  A    between atoms: S_6  and  C_7
REMARK    4  A    between atoms: C_9  and  C_10
REMARK    5  A    between atoms: N_12  and  C_13
REMARK    6  A    between atoms: C_13  and  C_14
REMARK    7  A    between atoms: C_14  and  C_15
REMARK    8  A    between atoms: C_15  and  N_16
REMARK    9  A    between atoms: N_16  and  C_17
REMARK   10  A    between atoms: N_16  and  C_18
REMARK   11  A    between atoms: C_18  and  C_19
REMARK                            x       y       z     vdW  Elec       q    Type
REMARK                         _______ _______ _______ _____ _____    ______ ____
ROOT
ATOM      1  C   UNL     1       5.412   5.029  18.624  0.00  0.00    +0.000 A 
ATOM      2  C   UNL     1       4.533   6.085  18.510  0.00  0.00    +0.000 A 
ATOM      3  C   UNL     1       3.283   6.022  19.134  0.00  0.00    +0.000 A 
ATOM      4  C   UNL     1       2.912   4.850  19.836  0.00  0.00    +0.000 A 
ATOM      5  C   UNL     1       1.684   4.643  20.515  0.00  0.00    +0.000 A 
ATOM      6  C   UNL     1       1.411   3.441  21.171  0.00  0.00    +0.000 A 
ATOM      7  C   UNL     1       2.357   2.428  21.167  0.00  0.00    +0.000 A 
ATOM      8  C   UNL     1       3.575   2.628  20.521  0.00  0.00    +0.000 A 
ATOM      9  C   UNL     1       3.872   3.813  19.861  0.00  0.00    +0.000 A 
ATOM     10  N   UNL     1       5.083   3.908  19.292  0.00  0.00    +0.000 NA
ENDROOT
BRANCH   3  11
ATOM     11  C   UNL     1       2.387   7.217  18.997  0.00  0.00    +0.000 C 
ATOM     12  O   UNL     1       2.011   7.609  17.900  0.00  0.00    +0.000 OA
ATOM     13  N   UNL     1       2.053   7.837  20.182  0.00  0.00    +0.000 N 
ATOM     14  H   UNL     1       2.256   7.388  21.074  0.00  0.00    +0.000 HD
BRANCH  13  15
ATOM     15  C   UNL     1       1.276   9.054  20.292  0.00  0.00    +0.000 C 
BRANCH  15  16
ATOM     16  C   UNL     1       0.716   9.251  21.707  0.00  0.00    +0.000 C 
BRANCH  16  17
ATOM     17  C   UNL     1      -0.379  10.331  21.821  0.00  0.00    +0.000 C 
BRANCH  17  18
ATOM     18  N   UNL     1      -0.319  11.385  20.779  0.00  0.00    +0.000 NA
ATOM     19  C   UNL     1      -1.679  11.801  20.395  0.00  0.00    +0.000 C 
BRANCH  18  20
ATOM     20  C   UNL     1       0.395  12.590  21.256  0.00  0.00    +0.000 C 
BRANCH  20  21
ATOM     21  C   UNL     1       1.440  13.125  20.304  0.00  0.00    +0.000 A 
ATOM     22  C   UNL     1       1.329  12.932  18.919  0.00  0.00    +0.000 A 
ATOM     23  C   UNL     1       2.308  13.431  18.059  0.00  0.00    +0.000 A 
ATOM     24  C   UNL     1       3.403  14.130  18.570  0.00  0.00    +0.000 A 
ATOM     25  C   UNL     1       3.515  14.337  19.943  0.00  0.00    +0.000 A 
ATOM     26  C   UNL     1       2.539  13.835  20.805  0.00  0.00    +0.000 A 
ENDBRANCH  20  21
ENDBRANCH  18  20
ENDBRANCH  17  18
ENDBRANCH  16  17
ENDBRANCH  15  16
ENDBRANCH  13  15
ENDBRANCH   3  11
BRANCH   1  27
ATOM     27  S   UNL     1       7.105   5.121  18.087  0.00  0.00    +0.000 S 
BRANCH  27  32
ATOM     28  C   UNL     1       6.103   3.694  12.843  0.00  0.00    +0.000 C 
ATOM     29  C   UNL     1       6.540   4.337  14.108  0.00  0.00    +0.000 A 
ATOM     30  N   UNL     1       7.368   5.356  14.193  0.00  0.00    +0.000 NA
ATOM     31  N   UNL     1       7.589   5.731  15.502  0.00  0.00    +0.000 NA
ATOM     32  C   UNL     1       6.921   4.988  16.358  0.00  0.00    +0.000 A 
ATOM     33  S   UNL     1       5.974   3.761  15.624  0.00  0.00    +0.000 S 
ENDBRANCH  27  32
ENDBRANCH   1  27
TORSDOF 9
ENDMDL
MODEL 4
REMARK VINA RESULT:      -9.2      1.206      1.361
REMARK  Name = 
REMARK  11 active torsions:
REMARK  status: ('A' for Active; 'I' for Inactive)
REMARK    1  A    between atoms: C_1  and  C_2
REMARK    2  A    between atoms: C_5  and  S_6
REMARK    3  A    between atoms: S_6  and  C_7
REMARK    4  A    between atoms: C_9  and  C_10
REMARK    5  A    between atoms: N_12  and  C_13
REMARK    6  A    between atoms: C_13  and  C_14
REMARK    7  A    between atoms: C_14  and  C_15
REMARK    8  A    between atoms: C_15  and  N_16
REMARK    9  A    between atoms: N_16  and  C_17
REMARK   10  A    between atoms: N_16  and  C_18
REMARK   11  A    between atoms: C_18  and  C_19
REMARK                            x       y       z     vdW  Elec       q    Type
REMARK                         _______ _______ _______ _____ _____    ______ ____
ROOT
ATOM      1  C   UNL     1       5.298   5.291  17.950  0.00  0.00    +0.000 A 
ATOM      2  C   UNL     1       4.468   6.377  18.127  0.00  0.00    +0.000 A 
ATOM      3  C   UNL     1       3.224   6.211  18.744  0.00  0.00    +0.000 A 
ATOM      4  C   UNL     1       2.808   4.916  19.136  0.00  0.00    +0.000 A 
ATOM      5  C   UNL     1       1.580   4.597  19.770  0.00  0.00    +0.000 A 
ATOM      6  C   UNL     1       1.258   3.281  20.108  0.00  0.00    +0.000 A 
ATOM      7  C   UNL     1       2.156   2.263  19.826  0.00  0.00    +0.000 A 
ATOM      8  C   UNL     1       3.374   2.568  19.223  0.00  0.00    +0.000 A 
ATOM      9  C   UNL     1       3.718   3.867  18.877  0.00  0.00    +0.000 A 
ATOM     10  N   UNL     1       4.925   4.052  18.321  0.00  0.00    +0.000 NA
ENDROOT
BRANCH   3  11
ATOM     11  C   UNL     1       2.384   7.439  18.934  0.00  0.00    +0.000 C 
ATOM     12  O   UNL     1       1.993   7.778  20.044  0.00  0.00    +0.000 OA
ATOM     13  N   UNL     1       2.078   8.124  17.778  0.00  0.00    +0.000 N 
ATOM     14  H   UNL     1       2.551   7.899  16.905  0.00  0.00    +0.000 HD
BRANCH  13  15
ATOM     15  C   UNL     1       1.213   9.283  17.704  0.00  0.00    +0.000 C 
BRANCH  15  16
ATOM     16  C   UNL     1       1.956  10.577  18.066  0.00  0.00    +0.000 C 
BRANCH  16  17
ATOM     17  C   UNL     1       1.446  11.275  19.343  0.00  0.00    +0.000 C 
BRANCH  17  18
ATOM     18  N   UNL     1      -0.014  11.152  19.575  0.00  0.00    +0.000 NA
ATOM     19  C   UNL     1      -0.318  11.300  21.009  0.00  0.00    +0.000 C 
BRANCH  18  20
ATOM     20  C   UNL     1      -0.775  12.194  18.851  0.00  0.00    +0.000 C 
BRANCH  20  21
ATOM     21  C   UNL     1      -2.117  11.744  18.321  0.00  0.00    +0.000 A 
ATOM     22  C   UNL     1      -3.304  12.027  19.012  0.00  0.00    +0.000 A 
ATOM     23  C   UNL     1      -4.532  11.597  18.507  0.00  0.00    +0.000 A 
ATOM     24  C   UNL     1      -4.589  10.887  17.307  0.00  0.00    +0.000 A 
ATOM     25  C   UNL     1      -3.415  10.610  16.608  0.00  0.00    +0.000 A 
ATOM     26  C   UNL     1      -2.186  11.036  17.113  0.00  0.00    +0.000 A 
ENDBRANCH  20  21
ENDBRANCH  18  20
ENDBRANCH  17  18
ENDBRANCH  16  17
ENDBRANCH  15  16
ENDBRANCH  13  15
ENDBRANCH   3  11
BRANCH   1  27
ATOM     27  S   UNL     1       6.986   5.443  17.414  0.00  0.00    +0.000 S 
BRANCH  27  32
ATOM     28  C   UNL     1       5.893   3.443  12.380  0.00  0.00    +0.000 C 
ATOM     29  C   UNL     1       6.408   4.177  13.563  0.00  0.00    +0.000 A 
ATOM     30  N   UNL     1       7.422   5.016  13.552  0.00  0.00    +0.000 NA
ATOM     31  N   UNL     1       7.671   5.539  14.803  0.00  0.00    +0.000 NA
ATOM     32  C   UNL     1       6.838   5.083  15.714  0.00  0.00    +0.000 A 
ATOM     33  S   UNL     1       5.688   3.964  15.108  0.00  0.00    +0.000 S 
ENDBRANCH  27  32
ENDBRANCH   1  27
TORSDOF 9
ENDMDL
MODEL 5
REMARK VINA RESULT:      -9.2      0.932      1.352
REMARK  Name = 
REMARK  11 active torsions:
REMARK  status: ('A' for Active; 'I' for Inactive)
REMARK    1  A    between atoms: C_1  and  C_2
REMARK    2  A    between atoms: C_5  and  S_6
REMARK    3  A    between atoms: S_6  and  C_7
REMARK    4  A    between atoms: C_9  and  C_10
REMARK    5  A    between atoms: N_12  and  C_13
REMARK    6  A    between atoms: C_13  and  C_14
REMARK    7  A    between atoms: C_14  and  C_15
REMARK    8  A    between atoms: C_15  and  N_16
REMARK    9  A    between atoms: N_16  and  C_17
REMARK   10  A    between atoms: N_16  and  C_18
REMARK   11  A    between atoms: C_18  and  C_19
REMARK                            x       y       z     vdW  Elec       q    Type
REMARK                         _______ _______ _______ _____ _____    ______ ____
ROOT
ATOM      1  C   UNL     1       5.170   4.988  18.624  0.00  0.00    +0.000 A 
ATOM      2  C   UNL     1       4.425   6.144  18.722  0.00  0.00    +0.000 A 
ATOM      3  C   UNL     1       3.137   6.100  19.265  0.00  0.00    +0.000 A 
ATOM      4  C   UNL     1       2.591   4.857  19.663  0.00  0.00    +0.000 A 
ATOM      5  C   UNL     1       1.305   4.659  20.227  0.00  0.00    +0.000 A 
ATOM      6  C   UNL     1       0.854   3.384  20.578  0.00  0.00    +0.000 A 
ATOM      7  C   UNL     1       1.679   2.288  20.378  0.00  0.00    +0.000 A 
ATOM      8  C   UNL     1       2.952   2.473  19.844  0.00  0.00    +0.000 A 
ATOM      9  C   UNL     1       3.423   3.728  19.487  0.00  0.00    +0.000 A 
ATOM     10  N   UNL     1       4.673   3.796  19.002  0.00  0.00    +0.000 NA
ENDROOT
BRANCH   3  11
ATOM     11  C   UNL     1       2.394   7.398  19.372  0.00  0.00    +0.000 C 
ATOM     12  O   UNL     1       2.193   8.101  18.389  0.00  0.00    +0.000 OA
ATOM     13  N   UNL     1       1.988   7.737  20.644  0.00  0.00    +0.000 N 
ATOM     14  H   UNL     1       2.036   7.056  21.400  0.00  0.00    +0.000 HD
BRANCH  13  15
ATOM     15  C   UNL     1       1.334   8.978  21.004  0.00  0.00    +0.000 C 
BRANCH  15  16
ATOM     16  C   UNL     1      -0.117   9.028  20.504  0.00  0.00    +0.000 C 
BRANCH  16  17
ATOM     17  C   UNL     1      -0.422  10.188  19.534  0.00  0.00    +0.000 C 
BRANCH  17  18
ATOM     18  N   UNL     1      -1.333  11.225  20.077  0.00  0.00    +0.000 NA
ATOM     19  C   UNL     1      -0.582  12.176  20.915  0.00  0.00    +0.000 C 
BRANCH  18  20
ATOM     20  C   UNL     1      -1.986  12.001  19.001  0.00  0.00    +0.000 C 
BRANCH  20  21
ATOM     21  C   UNL     1      -3.496  11.923  18.991  0.00  0.00    +0.000 A 
ATOM     22  C   UNL     1      -4.263  12.530  19.997  0.00  0.00    +0.000 A 
ATOM     23  C   UNL     1      -5.655  12.440  19.970  0.00  0.00    +0.000 A 
ATOM     24  C   UNL     1      -6.296  11.751  18.939  0.00  0.00    +0.000 A 
ATOM     25  C   UNL     1      -5.543  11.154  17.930  0.00  0.00    +0.000 A 
ATOM     26  C   UNL     1      -4.150  11.239  17.957  0.00  0.00    +0.000 A 
ENDBRANCH  20  21
ENDBRANCH  18  20
ENDBRANCH  17  18
ENDBRANCH  16  17
ENDBRANCH  15  16
ENDBRANCH  13  15
ENDBRANCH   3  11
BRANCH   1  27
ATOM     27  S   UNL     1       6.894   4.985  18.189  0.00  0.00    +0.000 S 
BRANCH  27  32
ATOM     28  C   UNL     1       6.149   3.704  12.865  0.00  0.00    +0.000 C 
ATOM     29  C   UNL     1       6.534   4.305  14.167  0.00  0.00    +0.000 A 
ATOM     30  N   UNL     1       7.391   5.291  14.322  0.00  0.00    +0.000 NA
ATOM     31  N   UNL     1       7.549   5.630  15.650  0.00  0.00    +0.000 NA
ATOM     32  C   UNL     1       6.806   4.895  16.450  0.00  0.00    +0.000 A 
ATOM     33  S   UNL     1       5.861   3.718  15.635  0.00  0.00    +0.000 S 
ENDBRANCH  27  32
ENDBRANCH   1  27
TORSDOF 9
ENDMDL
MODEL 6
REMARK VINA RESULT:      -9.1      1.603      2.884
REMARK  Name = 
REMARK  11 active torsions:
REMARK  status: ('A' for Active; 'I' for Inactive)
REMARK    1  A    between atoms: C_1  and  C_2
REMARK    2  A    between atoms: C_5  and  S_6
REMARK    3  A    between atoms: S_6  and  C_7
REMARK    4  A    between atoms: C_9  and  C_10
REMARK    5  A    between atoms: N_12  and  C_13
REMARK    6  A    between atoms: C_13  and  C_14
REMARK    7  A    between atoms: C_14  and  C_15
REMARK    8  A    between atoms: C_15  and  N_16
REMARK    9  A    between atoms: N_16  and  C_17
REMARK   10  A    between atoms: N_16  and  C_18
REMARK   11  A    between atoms: C_18  and  C_19
REMARK                            x       y       z     vdW  Elec       q    Type
REMARK                         _______ _______ _______ _____ _____    ______ ____
ROOT
ATOM      1  C   UNL     1       5.069   5.103  18.687  0.00  0.00    +0.000 A 
ATOM      2  C   UNL     1       4.315   6.225  18.956  0.00  0.00    +0.000 A 
ATOM      3  C   UNL     1       3.016   6.090  19.455  0.00  0.00    +0.000 A 
ATOM      4  C   UNL     1       2.469   4.796  19.631  0.00  0.00    +0.000 A 
ATOM      5  C   UNL     1       1.172   4.505  20.126  0.00  0.00    +0.000 A 
ATOM      6  C   UNL     1       0.722   3.189  20.252  0.00  0.00    +0.000 A 
ATOM      7  C   UNL     1       1.557   2.143  19.894  0.00  0.00    +0.000 A 
ATOM      8  C   UNL     1       2.840   2.416  19.427  0.00  0.00    +0.000 A 
ATOM      9  C   UNL     1       3.312   3.715  19.291  0.00  0.00    +0.000 A 
ATOM     10  N   UNL     1       4.571   3.864  18.853  0.00  0.00    +0.000 NA
ENDROOT
BRANCH   3  11
ATOM     11  C   UNL     1       2.262   7.351  19.756  0.00  0.00    +0.000 C 
ATOM     12  O   UNL     1       1.991   8.157  18.876  0.00  0.00    +0.000 OA
ATOM     13  N   UNL     1       1.931   7.532  21.082  0.00  0.00    +0.000 N 
ATOM     14  H   UNL     1       2.035   6.769  21.748  0.00  0.00    +0.000 HD
BRANCH  13  15
ATOM     15  C   UNL     1       1.283   8.709  21.622  0.00  0.00    +0.000 C 
BRANCH  15  16
ATOM     16  C   UNL     1      -0.192   8.795  21.203  0.00  0.00    +0.000 C 
BRANCH  16  17
ATOM     17  C   UNL     1      -0.533   9.993  20.294  0.00  0.00    +0.000 C 
BRANCH  17  18
ATOM     18  N   UNL     1      -0.273  11.322  20.898  0.00  0.00    +0.000 NA
ATOM     19  C   UNL     1       0.874  11.968  20.235  0.00  0.00    +0.000 C 
BRANCH  18  20
ATOM     20  C   UNL     1      -1.434  12.227  20.757  0.00  0.00    +0.000 C 
BRANCH  20  21
ATOM     21  C   UNL     1      -1.888  12.880  22.043  0.00  0.00    +0.000 A 
ATOM     22  C   UNL     1      -1.210  13.988  22.574  0.00  0.00    +0.000 A 
ATOM     23  C   UNL     1      -1.643  14.571  23.765  0.00  0.00    +0.000 A 
ATOM     24  C   UNL     1      -2.757  14.062  24.434  0.00  0.00    +0.000 A 
ATOM     25  C   UNL     1      -3.443  12.969  23.907  0.00  0.00    +0.000 A 
ATOM     26  C   UNL     1      -3.009  12.381  22.718  0.00  0.00    +0.000 A 
ENDBRANCH  20  21
ENDBRANCH  18  20
ENDBRANCH  17  18
ENDBRANCH  16  17
ENDBRANCH  15  16
ENDBRANCH  13  15
ENDBRANCH   3  11
BRANCH   1  27
ATOM     27  S   UNL     1       6.802   5.176  18.297  0.00  0.00    +0.000 S 
BRANCH  27  32
ATOM     28  C   UNL     1       6.205   3.744  12.993  0.00  0.00    +0.000 C 
ATOM     29  C   UNL     1       6.557   4.379  14.288  0.00  0.00    +0.000 A 
ATOM     30  N   UNL     1       7.420   5.361  14.440  0.00  0.00    +0.000 NA
ATOM     31  N   UNL     1       7.541   5.738  15.761  0.00  0.00    +0.000 NA
ATOM     32  C   UNL     1       6.767   5.035  16.559  0.00  0.00    +0.000 A 
ATOM     33  S   UNL     1       5.834   3.843  15.751  0.00  0.00    +0.000 S 
ENDBRANCH  27  32
ENDBRANCH   1  27
TORSDOF 9
ENDMDL
MODEL 7
REMARK VINA RESULT:      -9.1      1.998      2.213
REMARK  Name = 
REMARK  11 active torsions:
REMARK  status: ('A' for Active; 'I' for Inactive)
REMARK    1  A    between atoms: C_1  and  C_2
REMARK    2  A    between atoms: C_5  and  S_6
REMARK    3  A    between atoms: S_6  and  C_7
REMARK    4  A    between atoms: C_9  and  C_10
REMARK    5  A    between atoms: N_12  and  C_13
REMARK    6  A    between atoms: C_13  and  C_14
REMARK    7  A    between atoms: C_14  and  C_15
REMARK    8  A    between atoms: C_15  and  N_16
REMARK    9  A    between atoms: N_16  and  C_17
REMARK   10  A    between atoms: N_16  and  C_18
REMARK   11  A    between atoms: C_18  and  C_19
REMARK                            x       y       z     vdW  Elec       q    Type
REMARK                         _______ _______ _______ _____ _____    ______ ____
ROOT
ATOM      1  C   UNL     1       5.244   5.001  18.650  0.00  0.00    +0.000 A 
ATOM      2  C   UNL     1       4.442   6.122  18.667  0.00  0.00    +0.000 A 
ATOM      3  C   UNL     1       3.169   6.061  19.243  0.00  0.00    +0.000 A 
ATOM      4  C   UNL     1       2.697   4.831  19.759  0.00  0.00    +0.000 A 
ATOM      5  C   UNL     1       1.434   4.618  20.370  0.00  0.00    +0.000 A 
ATOM      6  C   UNL     1       1.058   3.358  20.840  0.00  0.00    +0.000 A 
ATOM      7  C   UNL     1       1.934   2.291  20.714  0.00  0.00    +0.000 A 
ATOM      8  C   UNL     1       3.184   2.493  20.135  0.00  0.00    +0.000 A 
ATOM      9  C   UNL     1       3.583   3.734  19.660  0.00  0.00    +0.000 A 
ATOM     10  N   UNL     1       4.817   3.822  19.141  0.00  0.00    +0.000 NA
ENDROOT
BRANCH   3  11
ATOM     11  C   UNL     1       2.362   7.325  19.257  0.00  0.00    +0.000 C 
ATOM     12  O   UNL     1       2.170   7.970  18.234  0.00  0.00    +0.000 OA
ATOM     13  N   UNL     1       1.887   7.702  20.494  0.00  0.00    +0.000 N 
ATOM     14  H   UNL     1       1.934   7.059  21.283  0.00  0.00    +0.000 HD
BRANCH  13  15
ATOM     15  C   UNL     1       1.161   8.925  20.766  0.00  0.00    +0.000 C 
BRANCH  15  16
ATOM     16  C   UNL     1      -0.129   8.662  21.557  0.00  0.00    +0.000 C 
BRANCH  16  17
ATOM     17  C   UNL     1      -0.425   9.693  22.664  0.00  0.00    +0.000 C 
BRANCH  17  18
ATOM     18  N   UNL     1      -0.960  10.988  22.178  0.00  0.00    +0.000 NA
ATOM     19  C   UNL     1      -1.956  11.518  23.125  0.00  0.00    +0.000 C 
BRANCH  18  20
ATOM     20  C   UNL     1       0.105  12.005  22.038  0.00  0.00    +0.000 C 
BRANCH  20  21
ATOM     21  C   UNL     1      -0.013  12.882  20.813  0.00  0.00    +0.000 A 
ATOM     22  C   UNL     1      -0.667  14.122  20.866  0.00  0.00    +0.000 A 
ATOM     23  C   UNL     1      -0.769  14.913  19.721  0.00  0.00    +0.000 A 
ATOM     24  C   UNL     1      -0.217  14.478  18.515  0.00  0.00    +0.000 A 
ATOM     25  C   UNL     1       0.444  13.253  18.455  0.00  0.00    +0.000 A 
ATOM     26  C   UNL     1       0.543  12.459  19.599  0.00  0.00    +0.000 A 
ENDBRANCH  20  21
ENDBRANCH  18  20
ENDBRANCH  17  18
ENDBRANCH  16  17
ENDBRANCH  15  16
ENDBRANCH  13  15
ENDBRANCH   3  11
BRANCH   1  27
ATOM     27  S   UNL     1       6.957   5.046  18.174  0.00  0.00    +0.000 S 
BRANCH  27  32
ATOM     28  C   UNL     1       6.075   3.755  12.874  0.00  0.00    +0.000 C 
ATOM     29  C   UNL     1       6.499   4.354  14.164  0.00  0.00    +0.000 A 
ATOM     30  N   UNL     1       7.378   5.324  14.297  0.00  0.00    +0.000 NA
ATOM     31  N   UNL     1       7.569   5.667  15.619  0.00  0.00    +0.000 NA
ATOM     32  C   UNL     1       6.831   4.949  16.438  0.00  0.00    +0.000 A 
ATOM     33  S   UNL     1       5.847   3.787  15.649  0.00  0.00    +0.000 S 
ENDBRANCH  27  32
ENDBRANCH   1  27
TORSDOF 9
ENDMDL
MODEL 8
REMARK VINA RESULT:      -9.0      1.592      2.772
REMARK  Name = 
REMARK  11 active torsions:
REMARK  status: ('A' for Active; 'I' for Inactive)
REMARK    1  A    between atoms: C_1  and  C_2
REMARK    2  A    between atoms: C_5  and  S_6
REMARK    3  A    between atoms: S_6  and  C_7
REMARK    4  A    between atoms: C_9  and  C_10
REMARK    5  A    between atoms: N_12  and  C_13
REMARK    6  A    between atoms: C_13  and  C_14
REMARK    7  A    between atoms: C_14  and  C_15
REMARK    8  A    between atoms: C_15  and  N_16
REMARK    9  A    between atoms: N_16  and  C_17
REMARK   10  A    between atoms: N_16  and  C_18
REMARK   11  A    between atoms: C_18  and  C_19
REMARK                            x       y       z     vdW  Elec       q    Type
REMARK                         _______ _______ _______ _____ _____    ______ ____
ROOT
ATOM      1  C   UNL     1       5.164   5.120  18.772  0.00  0.00    +0.000 A 
ATOM      2  C   UNL     1       4.365   6.242  18.836  0.00  0.00    +0.000 A 
ATOM      3  C   UNL     1       3.086   6.156  19.395  0.00  0.00    +0.000 A 
ATOM      4  C   UNL     1       2.604   4.904  19.844  0.00  0.00    +0.000 A 
ATOM      5  C   UNL     1       1.335   4.665  20.430  0.00  0.00    +0.000 A 
ATOM      6  C   UNL     1       0.949   3.384  20.831  0.00  0.00    +0.000 A 
ATOM      7  C   UNL     1       1.823   2.322  20.661  0.00  0.00    +0.000 A 
ATOM      8  C   UNL     1       3.081   2.548  20.106  0.00  0.00    +0.000 A 
ATOM      9  C   UNL     1       3.488   3.811  19.699  0.00  0.00    +0.000 A 
ATOM     10  N   UNL     1       4.728   3.920  19.198  0.00  0.00    +0.000 NA
ENDROOT
BRANCH   3  11
ATOM     11  C   UNL     1       2.282   7.421  19.464  0.00  0.00    +0.000 C 
ATOM     12  O   UNL     1       2.091   8.109  18.469  0.00  0.00    +0.000 OA
ATOM     13  N   UNL     1       1.810   7.747  20.717  0.00  0.00    +0.000 N 
ATOM     14  H   UNL     1       1.857   7.072  21.477  0.00  0.00    +0.000 HD
BRANCH  13  15
ATOM     15  C   UNL     1       1.088   8.959  21.042  0.00  0.00    +0.000 C 
BRANCH  15  16
ATOM     16  C   UNL     1      -0.174   9.123  20.183  0.00  0.00    +0.000 C 
BRANCH  16  17
ATOM     17  C   UNL     1      -0.577  10.585  19.905  0.00  0.00    +0.000 C 
BRANCH  17  18
ATOM     18  N   UNL     1      -0.554  10.972  18.474  0.00  0.00    +0.000 NA
ATOM     19  C   UNL     1      -1.632  10.285  17.741  0.00  0.00    +0.000 C 
BRANCH  18  20
ATOM     20  C   UNL     1      -0.753  12.427  18.295  0.00  0.00    +0.000 C 
BRANCH  20  21
ATOM     21  C   UNL     1       0.471  13.273  18.565  0.00  0.00    +0.000 A 
ATOM     22  C   UNL     1       0.362  14.544  19.149  0.00  0.00    +0.000 A 
ATOM     23  C   UNL     1       1.504  15.309  19.384  0.00  0.00    +0.000 A 
ATOM     24  C   UNL     1       2.765  14.814  19.046  0.00  0.00    +0.000 A 
ATOM     25  C   UNL     1       2.883  13.548  18.475  0.00  0.00    +0.000 A 
ATOM     26  C   UNL     1       1.741  12.782  18.235  0.00  0.00    +0.000 A 
ENDBRANCH  20  21
ENDBRANCH  18  20
ENDBRANCH  17  18
ENDBRANCH  16  17
ENDBRANCH  15  16
ENDBRANCH  13  15
ENDBRANCH   3  11
BRANCH   1  27
ATOM     27  S   UNL     1       6.882   5.183  18.318  0.00  0.00    +0.000 S 
BRANCH  27  32
ATOM     28  C   UNL     1       6.036   3.663  13.073  0.00  0.00    +0.000 C 
ATOM     29  C   UNL     1       6.465   4.307  14.339  0.00  0.00    +0.000 A 
ATOM     30  N   UNL     1       7.387   5.240  14.441  0.00  0.00    +0.000 NA
ATOM     31  N   UNL     1       7.572   5.641  15.747  0.00  0.00    +0.000 NA
ATOM     32  C   UNL     1       6.783   5.003  16.586  0.00  0.00    +0.000 A 
ATOM     33  S   UNL     1       5.758   3.850  15.837  0.00  0.00    +0.000 S 
ENDBRANCH  27  32
ENDBRANCH   1  27
TORSDOF 9
ENDMDL
MODEL 9
REMARK VINA RESULT:      -9.0      1.151      1.306
REMARK  Name = 
REMARK  11 active torsions:
REMARK  status: ('A' for Active; 'I' for Inactive)
REMARK    1  A    between atoms: C_1  and  C_2
REMARK    2  A    between atoms: C_5  and  S_6
REMARK    3  A    between atoms: S_6  and  C_7
REMARK    4  A    between atoms: C_9  and  C_10
REMARK    5  A    between atoms: N_12  and  C_13
REMARK    6  A    between atoms: C_13  and  C_14
REMARK    7  A    between atoms: C_14  and  C_15
REMARK    8  A    between atoms: C_15  and  N_16
REMARK    9  A    between atoms: N_16  and  C_17
REMARK   10  A    between atoms: N_16  and  C_18
REMARK   11  A    between atoms: C_18  and  C_19
REMARK                            x       y       z     vdW  Elec       q    Type
REMARK                         _______ _______ _______ _____ _____    ______ ____
ROOT
ATOM      1  C   UNL     1       5.262   5.143  18.452  0.00  0.00    +0.000 A 
ATOM      2  C   UNL     1       4.327   6.120  18.186  0.00  0.00    +0.000 A 
ATOM      3  C   UNL     1       3.053   6.040  18.756  0.00  0.00    +0.000 A 
ATOM      4  C   UNL     1       2.719   4.926  19.562  0.00  0.00    +0.000 A 
ATOM      5  C   UNL     1       1.472   4.711  20.204  0.00  0.00    +0.000 A 
ATOM      6  C   UNL     1       1.238   3.568  20.972  0.00  0.00    +0.000 A 
ATOM      7  C   UNL     1       2.244   2.625  21.119  0.00  0.00    +0.000 A 
ATOM      8  C   UNL     1       3.479   2.836  20.510  0.00  0.00    +0.000 A 
ATOM      9  C   UNL     1       3.737   3.963  19.742  0.00  0.00    +0.000 A 
ATOM     10  N   UNL     1       4.967   4.077  19.220  0.00  0.00    +0.000 NA
ENDROOT
BRANCH   3  11
ATOM     11  C   UNL     1       2.095   7.154  18.452  0.00  0.00    +0.000 C 
ATOM     12  O   UNL     1       1.478   7.193  17.395  0.00  0.00    +0.000 OA
ATOM     13  N   UNL     1       1.989   8.119  19.430  0.00  0.00    +0.000 N 
ATOM     14  H   UNL     1       2.396   7.966  20.351  0.00  0.00    +0.000 HD
BRANCH  13  15
ATOM     15  C   UNL     1       1.198   9.326  19.322  0.00  0.00    +0.000 C 
BRANCH  15  16
ATOM     16  C   UNL     1       1.875  10.380  18.435  0.00  0.00    +0.000 C 
BRANCH  16  17
ATOM     17  C   UNL     1       1.315  11.808  18.592  0.00  0.00    +0.000 C 
BRANCH  17  18
ATOM     18  N   UNL     1       0.168  11.924  19.523  0.00  0.00    +0.000 NA
ATOM     19  C   UNL     1       0.521  12.788  20.663  0.00  0.00    +0.000 C 
BRANCH  18  20
ATOM     20  C   UNL     1      -1.017  12.520  18.866  0.00  0.00    +0.000 C 
BRANCH  20  21
ATOM     21  C   UNL     1      -1.798  11.570  17.987  0.00  0.00    +0.000 A 
ATOM     22  C   UNL     1      -1.967  11.819  16.617  0.00  0.00    +0.000 A 
ATOM     23  C   UNL     1      -2.697  10.932  15.826  0.00  0.00    +0.000 A 
ATOM     24  C   UNL     1      -3.260   9.786  16.390  0.00  0.00    +0.000 A 
ATOM     25  C   UNL     1      -3.087   9.524  17.748  0.00  0.00    +0.000 A 
ATOM     26  C   UNL     1      -2.361  10.413  18.542  0.00  0.00    +0.000 A 
ENDBRANCH  20  21
ENDBRANCH  18  20
ENDBRANCH  17  18
ENDBRANCH  16  17
ENDBRANCH  15  16
ENDBRANCH  13  15
ENDBRANCH   3  11
BRANCH   1  27
ATOM     27  S   UNL     1       6.971   5.289  17.985  0.00  0.00    +0.000 S 
BRANCH  27  32
ATOM     28  C   UNL     1       6.191   3.647  12.766  0.00  0.00    +0.000 C 
ATOM     29  C   UNL     1       6.583   4.336  14.021  0.00  0.00    +0.000 A 
ATOM     30  N   UNL     1       7.438   5.333  14.103  0.00  0.00    +0.000 NA
ATOM     31  N   UNL     1       7.604   5.763  15.403  0.00  0.00    +0.000 NA
ATOM     32  C   UNL     1       6.871   5.081  16.256  0.00  0.00    +0.000 A 
ATOM     33  S   UNL     1       5.924   3.848  15.531  0.00  0.00    +0.000 S 
ENDBRANCH  27  32
ENDBRANCH   1  27
TORSDOF 9
ENDMDL
