MODEL 1
REMARK VINA RESULT:      -8.0      0.000      0.000
REMARK  Name = 
REMARK  8 active torsions:
REMARK  status: ('A' for Active; 'I' for Inactive)
REMARK    1  A    between atoms: C_1  and  C_2
REMARK    2  A    between atoms: C_2  and  C_3
REMARK    3  A    between atoms: C_3  and  C_4
REMARK    4  A    between atoms: C_7  and  O_8
REMARK    5  A    between atoms: O_8  and  C_9
REMARK    6  A    between atoms: C_9  and  C_10
REMARK    7  A    between atoms: N_12  and  C_13
REMARK    8  A    between atoms: C_16  and  C_17
REMARK                            x       y       z     vdW  Elec       q    Type
REMARK                         _______ _______ _______ _____ _____    ______ ____
ROOT
ATOM      1  C   UNL     1       2.810   7.583  18.058  0.00  0.00    +0.000 A 
ATOM      2  C   UNL     1       2.440   7.271  19.366  0.00  0.00    +0.000 A 
ATOM      3  C   UNL     1       1.657   8.156  20.131  0.00  0.00    +0.000 A 
ATOM      4  C   UNL     1       1.208   9.380  19.610  0.00  0.00    +0.000 A 
ATOM      5  C   UNL     1       1.609   9.709  18.310  0.00  0.00    +0.000 A 
ATOM      6  C   UNL     1       2.407   8.827  17.548  0.00  0.00    +0.000 A 
ENDROOT
BRANCH   4   7
ATOM      7  C   UNL     1       0.309  10.220  20.412  0.00  0.00    +0.000 A 
ATOM      8  N   UNL     1       0.100  10.162  21.717  0.00  0.00    +0.000 NA
ATOM      9  C   UNL     1      -0.943  11.026  21.930  0.00  0.00    +0.000 A 
ATOM     10  C   UNL     1      -1.646  11.326  23.102  0.00  0.00    +0.000 A 
ATOM     11  C   UNL     1      -2.717  12.224  23.011  0.00  0.00    +0.000 A 
ATOM     12 CL   UNL     1      -3.636  12.575  24.425  0.00  0.00    +0.000 Cl
ATOM     13  C   UNL     1      -3.065  12.824  21.794  0.00  0.00    +0.000 A 
ATOM     14  C   UNL     1      -2.355  12.542  20.614  0.00  0.00    +0.000 A 
ATOM     15  C   UNL     1      -1.313  11.625  20.738  0.00  0.00    +0.000 A 
ATOM     16  O   UNL     1      -0.501  11.123  19.752  0.00  0.00    +0.000 OA
ENDBRANCH   4   7
BRANCH   1  19
ATOM     17  C   UNL     1       4.950   6.746  17.042  0.00  0.00    +0.000 C 
ATOM     18  O   UNL     1       5.721   7.501  17.637  0.00  0.00    +0.000 OA
ATOM     19  N   UNL     1       3.568   6.719  17.226  0.00  0.00    +0.000 N 
ATOM     20  H   UNL     1       3.063   5.959  16.788  0.00  0.00    +0.000 HD
BRANCH  17  21
ATOM     21  C   UNL     1       5.507   5.710  16.051  0.00  0.00    +0.000 C 
BRANCH  21  22
ATOM     22  O   UNL     1       5.860   4.520  16.748  0.00  0.00    +0.000 OA
BRANCH  22  26
ATOM     23  C   UNL     1       2.941   2.641  19.096  0.00  0.00    +0.000 A 
ATOM     24  C   UNL     1       4.106   3.195  19.639  0.00  0.00    +0.000 A 
ATOM     25  C   UNL     1       5.047   3.814  18.811  0.00  0.00    +0.000 A 
ATOM     26  C   UNL     1       4.869   3.863  17.426  0.00  0.00    +0.000 A 
ATOM     27  C   UNL     1       3.715   3.309  16.876  0.00  0.00    +0.000 A 
ATOM     28  C   UNL     1       2.758   2.700  17.707  0.00  0.00    +0.000 A 
BRANCH  23  29
ATOM     29  C   UNL     1       1.892   2.003  19.981  0.00  0.00    +0.000 C 
BRANCH  29  31
ATOM     30  C   UNL     1       0.850   4.283  20.456  0.00  0.00    +0.000 C 
ATOM     31  C   UNL     1       1.283   2.942  21.031  0.00  0.00    +0.000 C 
ENDBRANCH  29  31
ENDBRANCH  23  29
ENDBRANCH  22  26
ENDBRANCH  21  22
ENDBRANCH  17  21
ENDBRANCH   1  19
TORSDOF 7
ENDMDL
MODEL 2
REMARK VINA RESULT:      -7.9      2.259      4.094
REMARK  Name = 
REMARK  8 active torsions:
REMARK  status: ('A' for Active; 'I' for Inactive)
REMARK    1  A    between atoms: C_1  and  C_2
REMARK    2  A    between atoms: C_2  and  C_3
REMARK    3  A    between atoms: C_3  and  C_4
REMARK    4  A    between atoms: C_7  and  O_8
REMARK    5  A    between atoms: O_8  and  C_9
REMARK    6  A    between atoms: C_9  and  C_10
REMARK    7  A    between atoms: N_12  and  C_13
REMARK    8  A    between atoms: C_16  and  C_17
REMARK                            x       y       z     vdW  Elec       q    Type
REMARK                         _______ _______ _______ _____ _____    ______ ____
ROOT
ATOM      1  C   UNL     1       2.340   7.012  19.248  0.00  0.00    +0.000 A 
ATOM      2  C   UNL     1       2.139   8.089  18.385  0.00  0.00    +0.000 A 
ATOM      3  C   UNL     1       1.427   9.230  18.801  0.00  0.00    +0.000 A 
ATOM      4  C   UNL     1       0.900   9.337  20.097  0.00  0.00    +0.000 A 
ATOM      5  C   UNL     1       1.070   8.242  20.952  0.00  0.00    +0.000 A 
ATOM      6  C   UNL     1       1.773   7.091  20.529  0.00  0.00    +0.000 A 
ENDROOT
BRANCH   4   7
ATOM      7  C   UNL     1       0.255  10.590  20.513  0.00  0.00    +0.000 A 
ATOM      8  N   UNL     1       0.659  11.435  21.447  0.00  0.00    +0.000 NA
ATOM      9  C   UNL     1      -0.372  12.331  21.560  0.00  0.00    +0.000 A 
ATOM     10  C   UNL     1      -0.545  13.408  22.436  0.00  0.00    +0.000 A 
ATOM     11  C   UNL     1      -1.742  14.130  22.358  0.00  0.00    +0.000 A 
ATOM     12 CL   UNL     1      -2.009  15.429  23.458  0.00  0.00    +0.000 Cl
ATOM     13  C   UNL     1      -2.730  13.806  21.418  0.00  0.00    +0.000 A 
ATOM     14  C   UNL     1      -2.559  12.737  20.522  0.00  0.00    +0.000 A 
ATOM     15  C   UNL     1      -1.368  12.025  20.647  0.00  0.00    +0.000 A 
ATOM     16  O   UNL     1      -0.966  10.911  19.955  0.00  0.00    +0.000 OA
ENDBRANCH   4   7
BRANCH   1  19
ATOM     17  C   UNL     1       2.617   4.771  18.148  0.00  0.00    +0.000 C 
ATOM     18  O   UNL     1       1.505   4.706  17.622  0.00  0.00    +0.000 OA
ATOM     19  N   UNL     1       3.077   5.851  18.901  0.00  0.00    +0.000 N 
ATOM     20  H   UNL     1       4.057   5.845  19.156  0.00  0.00    +0.000 HD
BRANCH  17  21
ATOM     21  C   UNL     1       3.624   3.624  17.951  0.00  0.00    +0.000 C 
BRANCH  21  22
ATOM     22  O   UNL     1       4.581   3.990  16.963  0.00  0.00    +0.000 OA
BRANCH  22  26
ATOM     23  C   UNL     1       7.439   6.846  18.080  0.00  0.00    +0.000 A 
ATOM     24  C   UNL     1       7.296   5.621  18.741  0.00  0.00    +0.000 A 
ATOM     25  C   UNL     1       6.329   4.701  18.326  0.00  0.00    +0.000 A 
ATOM     26  C   UNL     1       5.459   4.993  17.272  0.00  0.00    +0.000 A 
ATOM     27  C   UNL     1       5.589   6.214  16.612  0.00  0.00    +0.000 A 
ATOM     28  C   UNL     1       6.572   7.135  17.015  0.00  0.00    +0.000 A 
BRANCH  23  29
ATOM     29  C   UNL     1       8.507   7.837  18.489  0.00  0.00    +0.000 C 
BRANCH  29  31
ATOM     30  C   UNL     1       9.088  10.306  18.761  0.00  0.00    +0.000 C 
ATOM     31  C   UNL     1       8.266   9.273  18.005  0.00  0.00    +0.000 C 
ENDBRANCH  29  31
ENDBRANCH  23  29
ENDBRANCH  22  26
ENDBRANCH  21  22
ENDBRANCH  17  21
ENDBRANCH   1  19
TORSDOF 7
ENDMDL
MODEL 3
REMARK VINA RESULT:      -7.8      2.760      4.443
REMARK  Name = 
REMARK  8 active torsions:
REMARK  status: ('A' for Active; 'I' for Inactive)
REMARK    1  A    between atoms: C_1  and  C_2
REMARK    2  A    between atoms: C_2  and  C_3
REMARK    3  A    between atoms: C_3  and  C_4
REMARK    4  A    between atoms: C_7  and  O_8
REMARK    5  A    between atoms: O_8  and  C_9
REMARK    6  A    between atoms: C_9  and  C_10
REMARK    7  A    between atoms: N_12  and  C_13
REMARK    8  A    between atoms: C_16  and  C_17
REMARK                            x       y       z     vdW  Elec       q    Type
REMARK                         _______ _______ _______ _____ _____    ______ ____
ROOT
ATOM      1  C   UNL     1       2.075   6.841  20.253  0.00  0.00    +0.000 A 
ATOM      2  C   UNL     1       2.318   7.533  19.067  0.00  0.00    +0.000 A 
ATOM      3  C   UNL     1       1.777   8.815  18.851  0.00  0.00    +0.000 A 
ATOM      4  C   UNL     1       0.984   9.452  19.818  0.00  0.00    +0.000 A 
ATOM      5  C   UNL     1       0.711   8.744  20.994  0.00  0.00    +0.000 A 
ATOM      6  C   UNL     1       1.242   7.451  21.204  0.00  0.00    +0.000 A 
ENDROOT
BRANCH   4   7
ATOM      7  C   UNL     1       0.530  10.830  19.585  0.00  0.00    +0.000 A 
ATOM      8  N   UNL     1       1.026  11.711  18.732  0.00  0.00    +0.000 NA
ATOM      9  C   UNL     1       0.370  12.877  19.031  0.00  0.00    +0.000 A 
ATOM     10  C   UNL     1       0.527  14.165  18.509  0.00  0.00    +0.000 A 
ATOM     11  C   UNL     1      -0.257  15.191  19.049  0.00  0.00    +0.000 A 
ATOM     12 CL   UNL     1      -0.051  16.799  18.465  0.00  0.00    +0.000 Cl
ATOM     13  C   UNL     1      -1.189  14.940  20.065  0.00  0.00    +0.000 A 
ATOM     14  C   UNL     1      -1.367  13.647  20.586  0.00  0.00    +0.000 A 
ATOM     15  C   UNL     1      -0.551  12.656  20.042  0.00  0.00    +0.000 A 
ATOM     16  O   UNL     1      -0.467  11.334  20.398  0.00  0.00    +0.000 OA
ENDBRANCH   4   7
BRANCH   1  19
ATOM     17  C   UNL     1       1.924   4.356  20.587  0.00  0.00    +0.000 C 
ATOM     18  O   UNL     1       0.730   4.225  20.312  0.00  0.00    +0.000 OA
ATOM     19  N   UNL     1       2.620   5.564  20.545  0.00  0.00    +0.000 N 
ATOM     20  H   UNL     1       3.625   5.516  20.652  0.00  0.00    +0.000 HD
BRANCH  17  21
ATOM     21  C   UNL     1       2.761   3.121  20.965  0.00  0.00    +0.000 C 
BRANCH  21  22
ATOM     22  O   UNL     1       3.167   2.438  19.785  0.00  0.00    +0.000 OA
BRANCH  22  26
ATOM     23  C   UNL     1       5.029   4.628  16.735  0.00  0.00    +0.000 A 
ATOM     24  C   UNL     1       3.817   3.955  16.549  0.00  0.00    +0.000 A 
ATOM     25  C   UNL     1       3.236   3.241  17.602  0.00  0.00    +0.000 A 
ATOM     26  C   UNL     1       3.864   3.150  18.846  0.00  0.00    +0.000 A 
ATOM     27  C   UNL     1       5.075   3.812  19.039  0.00  0.00    +0.000 A 
ATOM     28  C   UNL     1       5.655   4.545  17.988  0.00  0.00    +0.000 A 
BRANCH  23  29
ATOM     29  C   UNL     1       5.653   5.439  15.619  0.00  0.00    +0.000 C 
BRANCH  29  31
ATOM     30  C   UNL     1       6.205   3.884  13.674  0.00  0.00    +0.000 C 
ATOM     31  C   UNL     1       6.749   4.708  14.832  0.00  0.00    +0.000 C 
ENDBRANCH  29  31
ENDBRANCH  23  29
ENDBRANCH  22  26
ENDBRANCH  21  22
ENDBRANCH  17  21
ENDBRANCH   1  19
TORSDOF 7
ENDMDL
MODEL 4
REMARK VINA RESULT:      -7.8      2.420      4.360
REMARK  Name = 
REMARK  8 active torsions:
REMARK  status: ('A' for Active; 'I' for Inactive)
REMARK    1  A    between atoms: C_1  and  C_2
REMARK    2  A    between atoms: C_2  and  C_3
REMARK    3  A    between atoms: C_3  and  C_4
REMARK    4  A    between atoms: C_7  and  O_8
REMARK    5  A    between atoms: O_8  and  C_9
REMARK    6  A    between atoms: C_9  and  C_10
REMARK    7  A    between atoms: N_12  and  C_13
REMARK    8  A    between atoms: C_16  and  C_17
REMARK                            x       y       z     vdW  Elec       q    Type
REMARK                         _______ _______ _______ _____ _____    ______ ____
ROOT
ATOM      1  C   UNL     1       2.529   6.892  19.064  0.00  0.00    +0.000 A 
ATOM      2  C   UNL     1       2.328   8.025  18.277  0.00  0.00    +0.000 A 
ATOM      3  C   UNL     1       1.573   9.115  18.752  0.00  0.00    +0.000 A 
ATOM      4  C   UNL     1       1.003   9.112  20.035  0.00  0.00    +0.000 A 
ATOM      5  C   UNL     1       1.175   7.961  20.811  0.00  0.00    +0.000 A 
ATOM      6  C   UNL     1       1.920   6.862  20.328  0.00  0.00    +0.000 A 
ENDROOT
BRANCH   4   7
ATOM      7  C   UNL     1       0.312  10.315  20.520  0.00  0.00    +0.000 A 
ATOM      8  N   UNL     1       0.297  11.516  19.966  0.00  0.00    +0.000 NA
ATOM      9  C   UNL     1      -0.333  12.306  20.893  0.00  0.00    +0.000 A 
ATOM     10  C   UNL     1      -0.576  13.684  20.894  0.00  0.00    +0.000 A 
ATOM     11  C   UNL     1      -1.204  14.237  22.016  0.00  0.00    +0.000 A 
ATOM     12 CL   UNL     1      -1.472  15.938  22.071  0.00  0.00    +0.000 Cl
ATOM     13  C   UNL     1      -1.602  13.440  23.097  0.00  0.00    +0.000 A 
ATOM     14  C   UNL     1      -1.378  12.053  23.100  0.00  0.00    +0.000 A 
ATOM     15  C   UNL     1      -0.727  11.541  21.978  0.00  0.00    +0.000 A 
ATOM     16  O   UNL     1      -0.328  10.250  21.742  0.00  0.00    +0.000 OA
ENDBRANCH   4   7
BRANCH   1  19
ATOM     17  C   UNL     1       2.857   4.669  17.942  0.00  0.00    +0.000 C 
ATOM     18  O   UNL     1       1.713   4.534  17.506  0.00  0.00    +0.000 OA
ATOM     19  N   UNL     1       3.308   5.778  18.657  0.00  0.00    +0.000 N 
ATOM     20  H   UNL     1       4.303   5.835  18.833  0.00  0.00    +0.000 HD
BRANCH  17  21
ATOM     21  C   UNL     1       3.915   3.587  17.662  0.00  0.00    +0.000 C 
BRANCH  21  22
ATOM     22  O   UNL     1       4.882   4.086  16.745  0.00  0.00    +0.000 OA
BRANCH  22  26
ATOM     23  C   UNL     1       7.618   6.972  18.068  0.00  0.00    +0.000 A 
ATOM     24  C   UNL     1       6.735   7.199  17.007  0.00  0.00    +0.000 A 
ATOM     25  C   UNL     1       5.839   6.203  16.607  0.00  0.00    +0.000 A 
ATOM     26  C   UNL     1       5.827   4.951  17.227  0.00  0.00    +0.000 A 
ATOM     27  C   UNL     1       6.708   4.714  18.281  0.00  0.00    +0.000 A 
ATOM     28  C   UNL     1       7.599   5.719  18.697  0.00  0.00    +0.000 A 
BRANCH  23  29
ATOM     29  C   UNL     1       8.567   8.053  18.541  0.00  0.00    +0.000 C 
BRANCH  29  31
ATOM     30  C   UNL     1       9.229  10.516  18.499  0.00  0.00    +0.000 C 
ATOM     31  C   UNL     1       8.254   9.457  18.007  0.00  0.00    +0.000 C 
ENDBRANCH  29  31
ENDBRANCH  23  29
ENDBRANCH  22  26
ENDBRANCH  21  22
ENDBRANCH  17  21
ENDBRANCH   1  19
TORSDOF 7
ENDMDL
MODEL 5
REMARK VINA RESULT:      -7.8      2.508      4.400
REMARK  Name = 
REMARK  8 active torsions:
REMARK  status: ('A' for Active; 'I' for Inactive)
REMARK    1  A    between atoms: C_1  and  C_2
REMARK    2  A    between atoms: C_2  and  C_3
REMARK    3  A    between atoms: C_3  and  C_4
REMARK    4  A    between atoms: C_7  and  O_8
REMARK    5  A    between atoms: O_8  and  C_9
REMARK    6  A    between atoms: C_9  and  C_10
REMARK    7  A    between atoms: N_12  and  C_13
REMARK    8  A    between atoms: C_16  and  C_17
REMARK                            x       y       z     vdW  Elec       q    Type
REMARK                         _______ _______ _______ _____ _____    ______ ____
ROOT
ATOM      1  C   UNL     1       1.474   8.444  20.522  0.00  0.00    +0.000 A 
ATOM      2  C   UNL     1       0.817   9.390  19.736  0.00  0.00    +0.000 A 
ATOM      3  C   UNL     1       0.068  10.428  20.322  0.00  0.00    +0.000 A 
ATOM      4  C   UNL     1      -0.039  10.562  21.715  0.00  0.00    +0.000 A 
ATOM      5  C   UNL     1       0.591   9.593  22.504  0.00  0.00    +0.000 A 
ATOM      6  C   UNL     1       1.330   8.543  21.915  0.00  0.00    +0.000 A 
ENDROOT
BRANCH   4   7
ATOM      7  C   UNL     1      -0.746  11.722  22.276  0.00  0.00    +0.000 A 
ATOM      8  N   UNL     1      -0.216  12.807  22.814  0.00  0.00    +0.000 NA
ATOM      9  C   UNL     1      -1.289  13.485  23.333  0.00  0.00    +0.000 A 
ATOM     10  C   UNL     1      -1.340  14.666  24.081  0.00  0.00    +0.000 A 
ATOM     11  C   UNL     1      -2.592  15.104  24.529  0.00  0.00    +0.000 A 
ATOM     12 CL   UNL     1      -2.684  16.527  25.496  0.00  0.00    +0.000 Cl
ATOM     13  C   UNL     1      -3.764  14.401  24.221  0.00  0.00    +0.000 A 
ATOM     14  C   UNL     1      -3.726  13.223  23.456  0.00  0.00    +0.000 A 
ATOM     15  C   UNL     1      -2.461  12.803  23.050  0.00  0.00    +0.000 A 
ATOM     16  O   UNL     1      -2.123  11.670  22.355  0.00  0.00    +0.000 OA
ENDBRANCH   4   7
BRANCH   1  19
ATOM     17  C   UNL     1       2.056   6.028  20.154  0.00  0.00    +0.000 C 
ATOM     18  O   UNL     1       1.090   5.535  20.739  0.00  0.00    +0.000 OA
ATOM     19  N   UNL     1       2.271   7.397  19.993  0.00  0.00    +0.000 N 
ATOM     20  H   UNL     1       3.022   7.671  19.371  0.00  0.00    +0.000 HD
BRANCH  17  21
ATOM     21  C   UNL     1       3.101   5.110  19.497  0.00  0.00    +0.000 C 
BRANCH  21  22
ATOM     22  O   UNL     1       4.216   5.884  19.066  0.00  0.00    +0.000 OA
BRANCH  22  26
ATOM     23  C   UNL     1       5.728   4.762  15.321  0.00  0.00    +0.000 A 
ATOM     24  C   UNL     1       5.529   3.847  16.360  0.00  0.00    +0.000 A 
ATOM     25  C   UNL     1       5.017   4.273  17.590  0.00  0.00    +0.000 A 
ATOM     26  C   UNL     1       4.730   5.620  17.825  0.00  0.00    +0.000 A 
ATOM     27  C   UNL     1       4.932   6.540  16.798  0.00  0.00    +0.000 A 
ATOM     28  C   UNL     1       5.429   6.113  15.554  0.00  0.00    +0.000 A 
BRANCH  23  29
ATOM     29  C   UNL     1       6.242   4.313  13.970  0.00  0.00    +0.000 C 
BRANCH  29  31
ATOM     30  C   UNL     1       5.750   2.873  11.922  0.00  0.00    +0.000 C 
ATOM     31  C   UNL     1       5.170   3.724  13.042  0.00  0.00    +0.000 C 
ENDBRANCH  29  31
ENDBRANCH  23  29
ENDBRANCH  22  26
ENDBRANCH  21  22
ENDBRANCH  17  21
ENDBRANCH   1  19
TORSDOF 7
ENDMDL
MODEL 6
REMARK VINA RESULT:      -7.8      3.892     10.141
REMARK  Name = 
REMARK  8 active torsions:
REMARK  status: ('A' for Active; 'I' for Inactive)
REMARK    1  A    between atoms: C_1  and  C_2
REMARK    2  A    between atoms: C_2  and  C_3
REMARK    3  A    between atoms: C_3  and  C_4
REMARK    4  A    between atoms: C_7  and  O_8
REMARK    5  A    between atoms: O_8  and  C_9
REMARK    6  A    between atoms: C_9  and  C_10
REMARK    7  A    between atoms: N_12  and  C_13
REMARK    8  A    between atoms: C_16  and  C_17
REMARK                            x       y       z     vdW  Elec       q    Type
REMARK                         _______ _______ _______ _____ _____    ______ ____
ROOT
ATOM      1  C   UNL     1       0.339  10.071  20.118  0.00  0.00    +0.000 A 
ATOM      2  C   UNL     1       0.849  10.271  18.836  0.00  0.00    +0.000 A 
ATOM      3  C   UNL     1       1.757   9.359  18.265  0.00  0.00    +0.000 A 
ATOM      4  C   UNL     1       2.175   8.209  18.953  0.00  0.00    +0.000 A 
ATOM      5  C   UNL     1       1.690   8.026  20.252  0.00  0.00    +0.000 A 
ATOM      6  C   UNL     1       0.792   8.950  20.831  0.00  0.00    +0.000 A 
ENDROOT
BRANCH   4   7
ATOM      7  C   UNL     1       3.042   7.236  18.272  0.00  0.00    +0.000 A 
ATOM      8  N   UNL     1       3.986   7.482  17.379  0.00  0.00    +0.000 NA
ATOM      9  C   UNL     1       4.363   6.241  16.936  0.00  0.00    +0.000 A 
ATOM     10  C   UNL     1       5.273   5.872  15.940  0.00  0.00    +0.000 A 
ATOM     11  C   UNL     1       5.421   4.508  15.661  0.00  0.00    +0.000 A 
ATOM     12 CL   UNL     1       6.494   4.022  14.404  0.00  0.00    +0.000 Cl
ATOM     13  C   UNL     1       4.702   3.536  16.370  0.00  0.00    +0.000 A 
ATOM     14  C   UNL     1       3.799   3.894  17.385  0.00  0.00    +0.000 A 
ATOM     15  C   UNL     1       3.658   5.262  17.616  0.00  0.00    +0.000 A 
ATOM     16  O   UNL     1       2.812   5.893  18.492  0.00  0.00    +0.000 OA
ENDBRANCH   4   7
BRANCH   1  19
ATOM     17  C   UNL     1      -0.319  12.105  21.437  0.00  0.00    +0.000 C 
ATOM     18  O   UNL     1       0.806  12.590  21.566  0.00  0.00    +0.000 OA
ATOM     19  N   UNL     1      -0.603  10.934  20.735  0.00  0.00    +0.000 N 
ATOM     20  H   UNL     1      -1.580  10.721  20.579  0.00  0.00    +0.000 HD
BRANCH  17  21
ATOM     21  C   UNL     1      -1.537  12.833  22.033  0.00  0.00    +0.000 C 
BRANCH  21  22
ATOM     22  O   UNL     1      -2.284  13.453  20.992  0.00  0.00    +0.000 OA
BRANCH  22  26
ATOM     23  C   UNL     1      -6.131  11.958  20.260  0.00  0.00    +0.000 A 
ATOM     24  C   UNL     1      -5.771  12.560  21.471  0.00  0.00    +0.000 A 
ATOM     25  C   UNL     1      -4.475  13.046  21.663  0.00  0.00    +0.000 A 
ATOM     26  C   UNL     1      -3.499  12.910  20.672  0.00  0.00    +0.000 A 
ATOM     27  C   UNL     1      -3.845  12.306  19.464  0.00  0.00    +0.000 A 
ATOM     28  C   UNL     1      -5.153  11.832  19.262  0.00  0.00    +0.000 A 
BRANCH  23  29
ATOM     29  C   UNL     1      -7.540  11.463  20.019  0.00  0.00    +0.000 C 
BRANCH  29  31
ATOM     30  C   UNL     1      -7.354   8.922  20.156  0.00  0.00    +0.000 C 
ATOM     31  C   UNL     1      -7.910  10.188  20.790  0.00  0.00    +0.000 C 
ENDBRANCH  29  31
ENDBRANCH  23  29
ENDBRANCH  22  26
ENDBRANCH  21  22
ENDBRANCH  17  21
ENDBRANCH   1  19
TORSDOF 7
ENDMDL
MODEL 7
REMARK VINA RESULT:      -7.8      2.174      4.125
REMARK  Name = 
REMARK  8 active torsions:
REMARK  status: ('A' for Active; 'I' for Inactive)
REMARK    1  A    between atoms: C_1  and  C_2
REMARK    2  A    between atoms: C_2  and  C_3
REMARK    3  A    between atoms: C_3  and  C_4
REMARK    4  A    between atoms: C_7  and  O_8
REMARK    5  A    between atoms: O_8  and  C_9
REMARK    6  A    between atoms: C_9  and  C_10
REMARK    7  A    between atoms: N_12  and  C_13
REMARK    8  A    between atoms: C_16  and  C_17
REMARK                            x       y       z     vdW  Elec       q    Type
REMARK                         _______ _______ _______ _____ _____    ______ ____
ROOT
ATOM      1  C   UNL     1       2.275   6.857  19.714  0.00  0.00    +0.000 A 
ATOM      2  C   UNL     1       2.259   7.952  18.851  0.00  0.00    +0.000 A 
ATOM      3  C   UNL     1       1.540   9.119  19.170  0.00  0.00    +0.000 A 
ATOM      4  C   UNL     1       0.820   9.235  20.369  0.00  0.00    +0.000 A 
ATOM      5  C   UNL     1       0.806   8.123  21.220  0.00  0.00    +0.000 A 
ATOM      6  C   UNL     1       1.516   6.947  20.891  0.00  0.00    +0.000 A 
ENDROOT
BRANCH   4   7
ATOM      7  C   UNL     1       0.171  10.511  20.702  0.00  0.00    +0.000 A 
ATOM      8  N   UNL     1       0.455  11.323  21.706  0.00  0.00    +0.000 NA
ATOM      9  C   UNL     1      -0.541  12.265  21.671  0.00  0.00    +0.000 A 
ATOM     10  C   UNL     1      -0.806  13.336  22.529  0.00  0.00    +0.000 A 
ATOM     11  C   UNL     1      -1.942  14.114  22.274  0.00  0.00    +0.000 A 
ATOM     12 CL   UNL     1      -2.327  15.409  23.343  0.00  0.00    +0.000 Cl
ATOM     13  C   UNL     1      -2.777  13.850  21.181  0.00  0.00    +0.000 A 
ATOM     14  C   UNL     1      -2.510  12.787  20.301  0.00  0.00    +0.000 A 
ATOM     15  C   UNL     1      -1.387  12.018  20.602  0.00  0.00    +0.000 A 
ATOM     16  O   UNL     1      -0.928  10.896  19.960  0.00  0.00    +0.000 OA
ENDBRANCH   4   7
BRANCH   1  19
ATOM     17  C   UNL     1       2.618   4.611  18.643  0.00  0.00    +0.000 C 
ATOM     18  O   UNL     1       1.592   4.594  17.961  0.00  0.00    +0.000 OA
ATOM     19  N   UNL     1       3.008   5.668  19.465  0.00  0.00    +0.000 N 
ATOM     20  H   UNL     1       3.939   5.621  19.860  0.00  0.00    +0.000 HD
BRANCH  17  21
ATOM     21  C   UNL     1       3.596   3.424  18.582  0.00  0.00    +0.000 C 
BRANCH  21  22
ATOM     22  O   UNL     1       4.479   3.586  17.477  0.00  0.00    +0.000 OA
BRANCH  22  26
ATOM     23  C   UNL     1       6.962   6.962  17.396  0.00  0.00    +0.000 A 
ATOM     24  C   UNL     1       5.936   6.755  16.467  0.00  0.00    +0.000 A 
ATOM     25  C   UNL     1       5.133   5.613  16.541  0.00  0.00    +0.000 A 
ATOM     26  C   UNL     1       5.356   4.636  17.514  0.00  0.00    +0.000 A 
ATOM     27  C   UNL     1       6.380   4.829  18.440  0.00  0.00    +0.000 A 
ATOM     28  C   UNL     1       7.178   5.985  18.380  0.00  0.00    +0.000 A 
BRANCH  23  29
ATOM     29  C   UNL     1       7.815   8.212  17.357  0.00  0.00    +0.000 C 
BRANCH  29  31
ATOM     30  C   UNL     1       8.967   9.967  18.806  0.00  0.00    +0.000 C 
ATOM     31  C   UNL     1       8.581   8.503  18.654  0.00  0.00    +0.000 C 
ENDBRANCH  29  31
ENDBRANCH  23  29
ENDBRANCH  22  26
ENDBRANCH  21  22
ENDBRANCH  17  21
ENDBRANCH   1  19
TORSDOF 7
ENDMDL
MODEL 8
REMARK VINA RESULT:      -7.8      0.897      1.281
REMARK  Name = 
REMARK  8 active torsions:
REMARK  status: ('A' for Active; 'I' for Inactive)
REMARK    1  A    between atoms: C_1  and  C_2
REMARK    2  A    between atoms: C_2  and  C_3
REMARK    3  A    between atoms: C_3  and  C_4
REMARK    4  A    between atoms: C_7  and  O_8
REMARK    5  A    between atoms: O_8  and  C_9
REMARK    6  A    between atoms: C_9  and  C_10
REMARK    7  A    between atoms: N_12  and  C_13
REMARK    8  A    between atoms: C_16  and  C_17
REMARK                            x       y       z     vdW  Elec       q    Type
REMARK                         _______ _______ _______ _____ _____    ______ ____
ROOT
ATOM      1  C   UNL     1       2.581   7.721  18.065  0.00  0.00    +0.000 A 
ATOM      2  C   UNL     1       2.052   8.947  17.664  0.00  0.00    +0.000 A 
ATOM      3  C   UNL     1       1.355   9.769  18.571  0.00  0.00    +0.000 A 
ATOM      4  C   UNL     1       1.174   9.396  19.912  0.00  0.00    +0.000 A 
ATOM      5  C   UNL     1       1.674   8.150  20.306  0.00  0.00    +0.000 A 
ATOM      6  C   UNL     1       2.360   7.320  19.391  0.00  0.00    +0.000 A 
ENDROOT
BRANCH   4   7
ATOM      7  C   UNL     1       0.530  10.335  20.841  0.00  0.00    +0.000 A 
ATOM      8  N   UNL     1      -0.488  10.099  21.652  0.00  0.00    +0.000 NA
ATOM      9  C   UNL     1      -0.808  11.331  22.160  0.00  0.00    +0.000 A 
ATOM     10  C   UNL     1      -1.845  11.718  23.015  0.00  0.00    +0.000 A 
ATOM     11  C   UNL     1      -1.962  13.077  23.331  0.00  0.00    +0.000 A 
ATOM     12 CL   UNL     1      -3.259  13.594  24.339  0.00  0.00    +0.000 Cl
ATOM     13  C   UNL     1      -1.058  14.023  22.829  0.00  0.00    +0.000 A 
ATOM     14  C   UNL     1      -0.002  13.643  21.983  0.00  0.00    +0.000 A 
ATOM     15  C   UNL     1       0.067  12.287  21.670  0.00  0.00    +0.000 A 
ATOM     16  O   UNL     1       0.945  11.652  20.828  0.00  0.00    +0.000 OA
ENDBRANCH   4   7
BRANCH   1  19
ATOM     17  C   UNL     1       4.705   6.862  17.036  0.00  0.00    +0.000 C 
ATOM     18  O   UNL     1       5.492   7.575  17.661  0.00  0.00    +0.000 OA
ATOM     19  N   UNL     1       3.321   6.865  17.209  0.00  0.00    +0.000 N 
ATOM     20  H   UNL     1       2.801   6.134  16.741  0.00  0.00    +0.000 HD
BRANCH  17  21
ATOM     21  C   UNL     1       5.243   5.845  16.014  0.00  0.00    +0.000 C 
BRANCH  21  22
ATOM     22  O   UNL     1       5.676   4.669  16.689  0.00  0.00    +0.000 OA
BRANCH  22  26
ATOM     23  C   UNL     1       2.955   2.625  19.135  0.00  0.00    +0.000 A 
ATOM     24  C   UNL     1       4.160   3.147  19.617  0.00  0.00    +0.000 A 
ATOM     25  C   UNL     1       5.032   3.825  18.759  0.00  0.00    +0.000 A 
ATOM     26  C   UNL     1       4.743   3.964  17.399  0.00  0.00    +0.000 A 
ATOM     27  C   UNL     1       3.547   3.442  16.909  0.00  0.00    +0.000 A 
ATOM     28  C   UNL     1       2.660   2.775  17.772  0.00  0.00    +0.000 A 
BRANCH  23  29
ATOM     29  C   UNL     1       1.980   1.925  20.058  0.00  0.00    +0.000 C 
BRANCH  29  31
ATOM     30  C   UNL     1       1.015   4.250  20.470  0.00  0.00    +0.000 C 
ATOM     31  C   UNL     1       1.241   2.854  21.031  0.00  0.00    +0.000 C 
ENDBRANCH  29  31
ENDBRANCH  23  29
ENDBRANCH  22  26
ENDBRANCH  21  22
ENDBRANCH  17  21
ENDBRANCH   1  19
TORSDOF 7
ENDMDL
MODEL 9
REMARK VINA RESULT:      -7.7      2.411      4.244
REMARK  Name = 
REMARK  8 active torsions:
REMARK  status: ('A' for Active; 'I' for Inactive)
REMARK    1  A    between atoms: C_1  and  C_2
REMARK    2  A    between atoms: C_2  and  C_3
REMARK    3  A    between atoms: C_3  and  C_4
REMARK    4  A    between atoms: C_7  and  O_8
REMARK    5  A    between atoms: O_8  and  C_9
REMARK    6  A    between atoms: C_9  and  C_10
REMARK    7  A    between atoms: N_12  and  C_13
REMARK    8  A    between atoms: C_16  and  C_17
REMARK                            x       y       z     vdW  Elec       q    Type
REMARK                         _______ _______ _______ _____ _____    ______ ____
ROOT
ATOM      1  C   UNL     1       2.336   7.252  19.563  0.00  0.00    +0.000 A 
ATOM      2  C   UNL     1       2.056   8.272  18.655  0.00  0.00    +0.000 A 
ATOM      3  C   UNL     1       1.233   9.357  19.012  0.00  0.00    +0.000 A 
ATOM      4  C   UNL     1       0.671   9.464  20.294  0.00  0.00    +0.000 A 
ATOM      5  C   UNL     1       0.924   8.422  21.195  0.00  0.00    +0.000 A 
ATOM      6  C   UNL     1       1.737   7.327  20.830  0.00  0.00    +0.000 A 
ENDROOT
BRANCH   4   7
ATOM      7  C   UNL     1      -0.096  10.666  20.649  0.00  0.00    +0.000 A 
ATOM      8  N   UNL     1      -1.198  11.118  20.076  0.00  0.00    +0.000 NA
ATOM      9  C   UNL     1      -1.403  12.343  20.657  0.00  0.00    +0.000 A 
ATOM     10  C   UNL     1      -2.374  13.317  20.402  0.00  0.00    +0.000 A 
ATOM     11  C   UNL     1      -2.307  14.514  21.125  0.00  0.00    +0.000 A 
ATOM     12 CL   UNL     1      -3.456  15.755  20.798  0.00  0.00    +0.000 Cl
ATOM     13  C   UNL     1      -1.316  14.727  22.093  0.00  0.00    +0.000 A 
ATOM     14  C   UNL     1      -0.346  13.749  22.369  0.00  0.00    +0.000 A 
ATOM     15  C   UNL     1      -0.428  12.582  21.612  0.00  0.00    +0.000 A 
ATOM     16  O   UNL     1       0.413  11.499  21.625  0.00  0.00    +0.000 OA
ENDBRANCH   4   7
BRANCH   1  19
ATOM     17  C   UNL     1       2.829   4.804  19.291  0.00  0.00    +0.000 C 
ATOM     18  O   UNL     1       1.691   4.382  19.502  0.00  0.00    +0.000 OA
ATOM     19  N   UNL     1       3.185   6.152  19.275  0.00  0.00    +0.000 N 
ATOM     20  H   UNL     1       4.117   6.375  18.948  0.00  0.00    +0.000 HD
BRANCH  17  21
ATOM     21  C   UNL     1       3.963   3.815  18.970  0.00  0.00    +0.000 C 
BRANCH  21  22
ATOM     22  O   UNL     1       5.157   4.532  18.676  0.00  0.00    +0.000 OA
BRANCH  22  26
ATOM     23  C   UNL     1       6.281   4.334  14.642  0.00  0.00    +0.000 A 
ATOM     24  C   UNL     1       5.072   3.812  15.117  0.00  0.00    +0.000 A 
ATOM     25  C   UNL     1       4.743   3.908  16.472  0.00  0.00    +0.000 A 
ATOM     26  C   UNL     1       5.623   4.489  17.389  0.00  0.00    +0.000 A 
ATOM     27  C   UNL     1       6.832   5.006  16.927  0.00  0.00    +0.000 A 
ATOM     28  C   UNL     1       7.159   4.927  15.562  0.00  0.00    +0.000 A 
BRANCH  23  29
ATOM     29  C   UNL     1       6.636   4.276  13.172  0.00  0.00    +0.000 C 
BRANCH  29  31
ATOM     30  C   UNL     1       4.719   3.464  11.696  0.00  0.00    +0.000 C 
ATOM     31  C   UNL     1       6.013   3.099  12.410  0.00  0.00    +0.000 C 
ENDBRANCH  29  31
ENDBRANCH  23  29
ENDBRANCH  22  26
ENDBRANCH  21  22
ENDBRANCH  17  21
ENDBRANCH   1  19
TORSDOF 7
ENDMDL
