MODEL 1
REMARK VINA RESULT:      -8.0      0.000      0.000
REMARK  Name = 
REMARK  8 active torsions:
REMARK  status: ('A' for Active; 'I' for Inactive)
REMARK    1  A    between atoms: C_1  and  C_2
REMARK    2  A    between atoms: C_2  and  O_3
REMARK    3  A    between atoms: O_3  and  C_4
REMARK    4  A    between atoms: C_4  and  C_6
REMARK    5  A    between atoms: C_8  and  C_9
REMARK    6  A    between atoms: C_16  and  N_17
REMARK    7  A    between atoms: N_17  and  S_18
REMARK    8  A    between atoms: S_18  and  C_21
REMARK                            x       y       z     vdW  Elec       q    Type
REMARK                         _______ _______ _______ _____ _____    ______ ____
ROOT
ATOM      1  C   UNL     1       6.492   5.313  17.909  0.00  0.00    +0.000 A 
ATOM      2  C   UNL     1       5.362   5.167  18.788  0.00  0.00    +0.000 A 
ATOM      3  C   UNL     1       4.393   4.295  18.337  0.00  0.00    +0.000 A 
ATOM      4  S   UNL     1       4.909   3.562  16.873  0.00  0.00    +0.000 S 
ATOM      5  C   UNL     1       6.353   4.482  16.816  0.00  0.00    +0.000 A 
ENDROOT
BRANCH   3   6
ATOM      6  C   UNL     1       3.110   3.975  18.993  0.00  0.00    +0.000 A 
ATOM      7  C   UNL     1       2.243   2.989  18.505  0.00  0.00    +0.000 A 
ATOM      8  C   UNL     1       1.010   2.749  19.125  0.00  0.00    +0.000 A 
ATOM      9  C   UNL     1       0.622   3.493  20.236  0.00  0.00    +0.000 A 
ATOM     10  C   UNL     1       1.462   4.487  20.727  0.00  0.00    +0.000 A 
ATOM     11  C   UNL     1       2.693   4.725  20.110  0.00  0.00    +0.000 A 
ENDBRANCH   3   6
BRANCH   1  12
ATOM     12  C   UNL     1       7.589   6.210  18.238  0.00  0.00    +0.000 C 
ATOM     13  O   UNL     1       8.193   6.134  19.303  0.00  0.00    +0.000 OA
BRANCH  12  14
ATOM     14  O   UNL     1       7.902   7.095  17.250  0.00  0.00    +0.000 OA
BRANCH  14  16
ATOM     15  C   UNL     1       8.512   9.175  18.315  0.00  0.00    +0.000 C 
ATOM     16  C   UNL     1       7.474   8.439  17.488  0.00  0.00    +0.000 C 
ENDBRANCH  14  16
ENDBRANCH  12  14
ENDBRANCH   1  12
BRANCH   5  17
ATOM     17  N   UNL     1       7.337   4.286  15.779  0.00  0.00    +0.000 N 
ATOM     18  H   UNL     1       7.266   3.328  15.422  0.00  0.00    +0.000 HD
BRANCH  17  19
ATOM     19  S   UNL     1       7.037   5.231  14.375  0.00  0.00    +0.000 S 
ATOM     20  O   UNL     1       5.958   6.127  14.740  0.00  0.00    +0.000 OA
ATOM     21  O   UNL     1       8.286   5.729  13.843  0.00  0.00    +0.000 OA
BRANCH  19  22
ATOM     22  C   UNL     1       6.370   4.065  13.206  0.00  0.00    +0.000 A 
ATOM     23  C   UNL     1       4.989   3.981  12.994  0.00  0.00    +0.000 A 
ATOM     24  C   UNL     1       4.492   3.096  12.032  0.00  0.00    +0.000 A 
ATOM     25  C   UNL     1       5.371   2.313  11.274  0.00  0.00    +0.000 A 
ATOM     26  C   UNL     1       6.745   2.420  11.468  0.00  0.00    +0.000 A 
ATOM     27  C   UNL     1       7.250   3.300  12.433  0.00  0.00    +0.000 A 
ENDBRANCH  19  22
ENDBRANCH  17  19
ENDBRANCH   5  17
TORSDOF 7
ENDMDL
MODEL 2
REMARK VINA RESULT:      -7.9      0.811      1.271
REMARK  Name = 
REMARK  8 active torsions:
REMARK  status: ('A' for Active; 'I' for Inactive)
REMARK    1  A    between atoms: C_1  and  C_2
REMARK    2  A    between atoms: C_2  and  O_3
REMARK    3  A    between atoms: O_3  and  C_4
REMARK    4  A    between atoms: C_4  and  C_6
REMARK    5  A    between atoms: C_8  and  C_9
REMARK    6  A    between atoms: C_16  and  N_17
REMARK    7  A    between atoms: N_17  and  S_18
REMARK    8  A    between atoms: S_18  and  C_21
REMARK                            x       y       z     vdW  Elec       q    Type
REMARK                         _______ _______ _______ _____ _____    ______ ____
ROOT
ATOM      1  C   UNL     1       6.495   4.764  18.127  0.00  0.00    +0.000 A 
ATOM      2  C   UNL     1       5.455   4.626  19.111  0.00  0.00    +0.000 A 
ATOM      3  C   UNL     1       4.380   3.862  18.707  0.00  0.00    +0.000 A 
ATOM      4  S   UNL     1       4.683   3.214  17.146  0.00  0.00    +0.000 S 
ATOM      5  C   UNL     1       6.179   4.035  16.999  0.00  0.00    +0.000 A 
ENDROOT
BRANCH   3   6
ATOM      6  C   UNL     1       3.152   3.578  19.476  0.00  0.00    +0.000 A 
ATOM      7  C   UNL     1       1.893   4.049  19.079  0.00  0.00    +0.000 A 
ATOM      8  C   UNL     1       0.758   3.803  19.862  0.00  0.00    +0.000 A 
ATOM      9  C   UNL     1       0.863   3.092  21.055  0.00  0.00    +0.000 A 
ATOM     10  C   UNL     1       2.107   2.630  21.474  0.00  0.00    +0.000 A 
ATOM     11  C   UNL     1       3.239   2.873  20.691  0.00  0.00    +0.000 A 
ENDBRANCH   3   6
BRANCH   1  12
ATOM     12  C   UNL     1       7.686   5.554  18.397  0.00  0.00    +0.000 C 
ATOM     13  O   UNL     1       8.367   5.379  19.402  0.00  0.00    +0.000 OA
BRANCH  12  14
ATOM     14  O   UNL     1       7.989   6.459  17.424  0.00  0.00    +0.000 OA
BRANCH  14  16
ATOM     15  C   UNL     1       8.087   8.826  17.895  0.00  0.00    +0.000 C 
ATOM     16  C   UNL     1       7.216   7.662  17.459  0.00  0.00    +0.000 C 
ENDBRANCH  14  16
ENDBRANCH  12  14
ENDBRANCH   1  12
BRANCH   5  17
ATOM     17  N   UNL     1       7.032   3.856  15.848  0.00  0.00    +0.000 N 
ATOM     18  H   UNL     1       6.806   2.965  15.396  0.00  0.00    +0.000 HD
BRANCH  17  19
ATOM     19  S   UNL     1       6.731   4.997  14.598  0.00  0.00    +0.000 S 
ATOM     20  O   UNL     1       5.579   5.756  15.043  0.00  0.00    +0.000 OA
ATOM     21  O   UNL     1       7.965   5.647  14.221  0.00  0.00    +0.000 OA
BRANCH  19  22
ATOM     22  C   UNL     1       6.195   3.999  13.224  0.00  0.00    +0.000 A 
ATOM     23  C   UNL     1       7.100   3.168  12.552  0.00  0.00    +0.000 A 
ATOM     24  C   UNL     1       6.644   2.353  11.511  0.00  0.00    +0.000 A 
ATOM     25  C   UNL     1       5.289   2.356  11.155  0.00  0.00    +0.000 A 
ATOM     26  C   UNL     1       4.389   3.163  11.844  0.00  0.00    +0.000 A 
ATOM     27  C   UNL     1       4.839   3.985  12.884  0.00  0.00    +0.000 A 
ENDBRANCH  19  22
ENDBRANCH  17  19
ENDBRANCH   5  17
TORSDOF 7
ENDMDL
MODEL 3
REMARK VINA RESULT:      -7.9      3.572      7.653
REMARK  Name = 
REMARK  8 active torsions:
REMARK  status: ('A' for Active; 'I' for Inactive)
REMARK    1  A    between atoms: C_1  and  C_2
REMARK    2  A    between atoms: C_2  and  O_3
REMARK    3  A    between atoms: O_3  and  C_4
REMARK    4  A    between atoms: C_4  and  C_6
REMARK    5  A    between atoms: C_8  and  C_9
REMARK    6  A    between atoms: C_16  and  N_17
REMARK    7  A    between atoms: N_17  and  S_18
REMARK    8  A    between atoms: S_18  and  C_21
REMARK                            x       y       z     vdW  Elec       q    Type
REMARK                         _______ _______ _______ _____ _____    ______ ____
ROOT
ATOM      1  C   UNL     1       4.750   3.858  17.841  0.00  0.00    +0.000 A 
ATOM      2  C   UNL     1       5.332   3.479  16.582  0.00  0.00    +0.000 A 
ATOM      3  C   UNL     1       5.569   4.530  15.720  0.00  0.00    +0.000 A 
ATOM      4  S   UNL     1       5.176   6.013  16.491  0.00  0.00    +0.000 S 
ATOM      5  C   UNL     1       4.611   5.229  17.906  0.00  0.00    +0.000 A 
ENDROOT
BRANCH   3   6
ATOM      6  C   UNL     1       6.113   4.451  14.350  0.00  0.00    +0.000 A 
ATOM      7  C   UNL     1       5.577   3.596  13.377  0.00  0.00    +0.000 A 
ATOM      8  C   UNL     1       6.154   3.510  12.104  0.00  0.00    +0.000 A 
ATOM      9  C   UNL     1       7.277   4.270  11.785  0.00  0.00    +0.000 A 
ATOM     10  C   UNL     1       7.833   5.113  12.741  0.00  0.00    +0.000 A 
ATOM     11  C   UNL     1       7.257   5.200  14.011  0.00  0.00    +0.000 A 
ENDBRANCH   3   6
BRANCH   1  12
ATOM     12  C   UNL     1       4.426   2.861  18.850  0.00  0.00    +0.000 C 
ATOM     13  O   UNL     1       4.752   2.997  20.025  0.00  0.00    +0.000 OA
BRANCH  12  14
ATOM     14  O   UNL     1       3.704   1.805  18.381  0.00  0.00    +0.000 OA
BRANCH  14  16
ATOM     15  C   UNL     1       1.516   2.192  19.325  0.00  0.00    +0.000 C 
ATOM     16  C   UNL     1       2.344   2.102  18.056  0.00  0.00    +0.000 C 
ENDBRANCH  14  16
ENDBRANCH  12  14
ENDBRANCH   1  12
BRANCH   5  17
ATOM     17  N   UNL     1       4.159   5.975  19.057  0.00  0.00    +0.000 N 
ATOM     18  H   UNL     1       4.383   6.966  18.926  0.00  0.00    +0.000 HD
BRANCH  17  19
ATOM     19  S   UNL     1       2.448   5.997  19.218  0.00  0.00    +0.000 S 
ATOM     20  O   UNL     1       1.941   5.388  18.004  0.00  0.00    +0.000 OA
ATOM     21  O   UNL     1       2.072   5.505  20.524  0.00  0.00    +0.000 OA
BRANCH  19  22
ATOM     22  C   UNL     1       2.031   7.727  19.144  0.00  0.00    +0.000 A 
ATOM     23  C   UNL     1       2.248   8.462  17.973  0.00  0.00    +0.000 A 
ATOM     24  C   UNL     1       1.862   9.805  17.921  0.00  0.00    +0.000 A 
ATOM     25  C   UNL     1       1.247  10.405  19.027  0.00  0.00    +0.000 A 
ATOM     26  C   UNL     1       1.009   9.663  20.179  0.00  0.00    +0.000 A 
ATOM     27  C   UNL     1       1.397   8.320  20.241  0.00  0.00    +0.000 A 
ENDBRANCH  19  22
ENDBRANCH  17  19
ENDBRANCH   5  17
TORSDOF 7
ENDMDL
MODEL 4
REMARK VINA RESULT:      -7.7      3.101      4.672
REMARK  Name = 
REMARK  8 active torsions:
REMARK  status: ('A' for Active; 'I' for Inactive)
REMARK    1  A    between atoms: C_1  and  C_2
REMARK    2  A    between atoms: C_2  and  O_3
REMARK    3  A    between atoms: O_3  and  C_4
REMARK    4  A    between atoms: C_4  and  C_6
REMARK    5  A    between atoms: C_8  and  C_9
REMARK    6  A    between atoms: C_16  and  N_17
REMARK    7  A    between atoms: N_17  and  S_18
REMARK    8  A    between atoms: S_18  and  C_21
REMARK                            x       y       z     vdW  Elec       q    Type
REMARK                         _______ _______ _______ _____ _____    ______ ____
ROOT
ATOM      1  C   UNL     1       3.733   4.831  18.960  0.00  0.00    +0.000 A 
ATOM      2  C   UNL     1       2.944   5.704  19.788  0.00  0.00    +0.000 A 
ATOM      3  C   UNL     1       2.566   6.884  19.180  0.00  0.00    +0.000 A 
ATOM      4  S   UNL     1       3.088   6.887  17.545  0.00  0.00    +0.000 S 
ATOM      5  C   UNL     1       3.884   5.379  17.703  0.00  0.00    +0.000 A 
ENDROOT
BRANCH   3   6
ATOM      6  C   UNL     1       1.796   7.988  19.785  0.00  0.00    +0.000 A 
ATOM      7  C   UNL     1       1.469   9.152  19.076  0.00  0.00    +0.000 A 
ATOM      8  C   UNL     1       0.782  10.201  19.700  0.00  0.00    +0.000 A 
ATOM      9  C   UNL     1       0.417  10.107  21.041  0.00  0.00    +0.000 A 
ATOM     10  C   UNL     1       0.746   8.967  21.767  0.00  0.00    +0.000 A 
ATOM     11  C   UNL     1       1.430   7.919  21.143  0.00  0.00    +0.000 A 
ENDBRANCH   3   6
BRANCH   1  12
ATOM     12  C   UNL     1       4.221   3.557  19.464  0.00  0.00    +0.000 C 
ATOM     13  O   UNL     1       5.418   3.289  19.501  0.00  0.00    +0.000 OA
BRANCH  12  14
ATOM     14  O   UNL     1       3.243   2.723  19.918  0.00  0.00    +0.000 OA
BRANCH  14  16
ATOM     15  C   UNL     1       1.097   2.321  18.887  0.00  0.00    +0.000 C 
ATOM     16  C   UNL     1       2.573   1.971  18.904  0.00  0.00    +0.000 C 
ENDBRANCH  14  16
ENDBRANCH  12  14
ENDBRANCH   1  12
BRANCH   5  17
ATOM     17  N   UNL     1       4.528   4.739  16.579  0.00  0.00    +0.000 N 
ATOM     18  H   UNL     1       4.050   5.014  15.716  0.00  0.00    +0.000 HD
BRANCH  17  19
ATOM     19  S   UNL     1       6.132   5.295  16.313  0.00  0.00    +0.000 S 
ATOM     20  O   UNL     1       6.050   6.742  16.373  0.00  0.00    +0.000 OA
ATOM     21  O   UNL     1       7.052   4.555  17.146  0.00  0.00    +0.000 OA
BRANCH  19  22
ATOM     22  C   UNL     1       6.461   4.864  14.617  0.00  0.00    +0.000 A 
ATOM     23  C   UNL     1       7.525   5.455  13.925  0.00  0.00    +0.000 A 
ATOM     24  C   UNL     1       7.797   5.061  12.611  0.00  0.00    +0.000 A 
ATOM     25  C   UNL     1       7.020   4.070  11.998  0.00  0.00    +0.000 A 
ATOM     26  C   UNL     1       5.981   3.466  12.699  0.00  0.00    +0.000 A 
ATOM     27  C   UNL     1       5.699   3.859  14.012  0.00  0.00    +0.000 A 
ENDBRANCH  19  22
ENDBRANCH  17  19
ENDBRANCH   5  17
TORSDOF 7
ENDMDL
MODEL 5
REMARK VINA RESULT:      -7.7      3.591      7.694
REMARK  Name = 
REMARK  8 active torsions:
REMARK  status: ('A' for Active; 'I' for Inactive)
REMARK    1  A    between atoms: C_1  and  C_2
REMARK    2  A    between atoms: C_2  and  O_3
REMARK    3  A    between atoms: O_3  and  C_4
REMARK    4  A    between atoms: C_4  and  C_6
REMARK    5  A    between atoms: C_8  and  C_9
REMARK    6  A    between atoms: C_16  and  N_17
REMARK    7  A    between atoms: N_17  and  S_18
REMARK    8  A    between atoms: S_18  and  C_21
REMARK                            x       y       z     vdW  Elec       q    Type
REMARK                         _______ _______ _______ _____ _____    ______ ____
ROOT
ATOM      1  C   UNL     1       4.681   3.953  17.800  0.00  0.00    +0.000 A 
ATOM      2  C   UNL     1       5.306   3.539  16.573  0.00  0.00    +0.000 A 
ATOM      3  C   UNL     1       5.627   4.571  15.715  0.00  0.00    +0.000 A 
ATOM      4  S   UNL     1       5.259   6.076  16.455  0.00  0.00    +0.000 S 
ATOM      5  C   UNL     1       4.596   5.330  17.847  0.00  0.00    +0.000 A 
ENDROOT
BRANCH   3   6
ATOM      6  C   UNL     1       6.232   4.456  14.374  0.00  0.00    +0.000 A 
ATOM      7  C   UNL     1       7.327   5.235  13.975  0.00  0.00    +0.000 A 
ATOM      8  C   UNL     1       7.841   5.135  12.677  0.00  0.00    +0.000 A 
ATOM      9  C   UNL     1       7.268   4.262  11.755  0.00  0.00    +0.000 A 
ATOM     10  C   UNL     1       6.171   3.492  12.126  0.00  0.00    +0.000 A 
ATOM     11  C   UNL     1       5.659   3.590  13.423  0.00  0.00    +0.000 A 
ENDBRANCH   3   6
BRANCH   1  12
ATOM     12  C   UNL     1       4.269   2.981  18.800  0.00  0.00    +0.000 C 
ATOM     13  O   UNL     1       4.474   3.153  19.997  0.00  0.00    +0.000 OA
BRANCH  12  14
ATOM     14  O   UNL     1       3.610   1.901  18.291  0.00  0.00    +0.000 OA
BRANCH  14  16
ATOM     15  C   UNL     1       1.368   2.193  19.139  0.00  0.00    +0.000 C 
ATOM     16  C   UNL     1       2.255   2.148  17.908  0.00  0.00    +0.000 C 
ENDBRANCH  14  16
ENDBRANCH  12  14
ENDBRANCH   1  12
BRANCH   5  17
ATOM     17  N   UNL     1       4.120   6.105  18.969  0.00  0.00    +0.000 N 
ATOM     18  H   UNL     1       4.296   7.098  18.791  0.00  0.00    +0.000 HD
BRANCH  17  19
ATOM     19  S   UNL     1       2.411   6.054  19.150  0.00  0.00    +0.000 S 
ATOM     20  O   UNL     1       1.916   5.443  17.932  0.00  0.00    +0.000 OA
ATOM     21  O   UNL     1       2.072   5.526  20.452  0.00  0.00    +0.000 OA
BRANCH  19  22
ATOM     22  C   UNL     1       1.923   7.766  19.109  0.00  0.00    +0.000 A 
ATOM     23  C   UNL     1       1.364   8.374  20.239  0.00  0.00    +0.000 A 
ATOM     24  C   UNL     1       1.039   9.734  20.199  0.00  0.00    +0.000 A 
ATOM     25  C   UNL     1       1.285  10.484  19.043  0.00  0.00    +0.000 A 
ATOM     26  C   UNL     1       1.865   9.881  17.931  0.00  0.00    +0.000 A 
ATOM     27  C   UNL     1       2.190   8.519  17.961  0.00  0.00    +0.000 A 
ENDBRANCH  19  22
ENDBRANCH  17  19
ENDBRANCH   5  17
TORSDOF 7
ENDMDL
MODEL 6
REMARK VINA RESULT:      -7.7      3.721      7.721
REMARK  Name = 
REMARK  8 active torsions:
REMARK  status: ('A' for Active; 'I' for Inactive)
REMARK    1  A    between atoms: C_1  and  C_2
REMARK    2  A    between atoms: C_2  and  O_3
REMARK    3  A    between atoms: O_3  and  C_4
REMARK    4  A    between atoms: C_4  and  C_6
REMARK    5  A    between atoms: C_8  and  C_9
REMARK    6  A    between atoms: C_16  and  N_17
REMARK    7  A    between atoms: N_17  and  S_18
REMARK    8  A    between atoms: S_18  and  C_21
REMARK                            x       y       z     vdW  Elec       q    Type
REMARK                         _______ _______ _______ _____ _____    ______ ____
ROOT
ATOM      1  C   UNL     1       4.640   3.940  18.307  0.00  0.00    +0.000 A 
ATOM      2  C   UNL     1       5.265   3.527  17.079  0.00  0.00    +0.000 A 
ATOM      3  C   UNL     1       5.475   4.546  16.173  0.00  0.00    +0.000 A 
ATOM      4  S   UNL     1       5.003   6.045  16.864  0.00  0.00    +0.000 S 
ATOM      5  C   UNL     1       4.441   5.305  18.303  0.00  0.00    +0.000 A 
ENDROOT
BRANCH   3   6
ATOM      6  C   UNL     1       6.053   4.426  14.819  0.00  0.00    +0.000 A 
ATOM      7  C   UNL     1       7.191   5.141  14.423  0.00  0.00    +0.000 A 
ATOM      8  C   UNL     1       7.679   5.041  13.114  0.00  0.00    +0.000 A 
ATOM      9  C   UNL     1       7.036   4.231  12.180  0.00  0.00    +0.000 A 
ATOM     10  C   UNL     1       5.896   3.525  12.550  0.00  0.00    +0.000 A 
ATOM     11  C   UNL     1       5.410   3.623  13.857  0.00  0.00    +0.000 A 
ENDBRANCH   3   6
BRANCH   1  12
ATOM     12  C   UNL     1       4.337   2.978  19.356  0.00  0.00    +0.000 C 
ATOM     13  O   UNL     1       5.219   2.388  19.971  0.00  0.00    +0.000 OA
BRANCH  12  14
ATOM     14  O   UNL     1       3.006   2.832  19.612  0.00  0.00    +0.000 OA
BRANCH  14  16
ATOM     15  C   UNL     1       0.785   2.306  18.825  0.00  0.00    +0.000 C 
ATOM     16  C   UNL     1       2.276   2.116  18.614  0.00  0.00    +0.000 C 
ENDBRANCH  14  16
ENDBRANCH  12  14
ENDBRANCH   1  12
BRANCH   5  17
ATOM     17  N   UNL     1       3.932   6.084  19.407  0.00  0.00    +0.000 N 
ATOM     18  H   UNL     1       4.216   7.061  19.290  0.00  0.00    +0.000 HD
BRANCH  17  19
ATOM     19  S   UNL     1       2.217   6.193  19.424  0.00  0.00    +0.000 S 
ATOM     20  O   UNL     1       1.782   5.565  18.192  0.00  0.00    +0.000 OA
ATOM     21  O   UNL     1       1.711   5.766  20.709  0.00  0.00    +0.000 OA
BRANCH  19  22
ATOM     22  C   UNL     1       1.894   7.936  19.260  0.00  0.00    +0.000 A 
ATOM     23  C   UNL     1       2.191   8.606  18.067  0.00  0.00    +0.000 A 
ATOM     24  C   UNL     1       1.878   9.964  17.943  0.00  0.00    +0.000 A 
ATOM     25  C   UNL     1       1.258  10.643  18.998  0.00  0.00    +0.000 A 
ATOM     26  C   UNL     1       0.941   9.967  20.172  0.00  0.00    +0.000 A 
ATOM     27  C   UNL     1       1.255   8.609  20.306  0.00  0.00    +0.000 A 
ENDBRANCH  19  22
ENDBRANCH  17  19
ENDBRANCH   5  17
TORSDOF 7
ENDMDL
MODEL 7
REMARK VINA RESULT:      -7.6      3.239      5.734
REMARK  Name = 
REMARK  8 active torsions:
REMARK  status: ('A' for Active; 'I' for Inactive)
REMARK    1  A    between atoms: C_1  and  C_2
REMARK    2  A    between atoms: C_2  and  O_3
REMARK    3  A    between atoms: O_3  and  C_4
REMARK    4  A    between atoms: C_4  and  C_6
REMARK    5  A    between atoms: C_8  and  C_9
REMARK    6  A    between atoms: C_16  and  N_17
REMARK    7  A    between atoms: N_17  and  S_18
REMARK    8  A    between atoms: S_18  and  C_21
REMARK                            x       y       z     vdW  Elec       q    Type
REMARK                         _______ _______ _______ _____ _____    ______ ____
ROOT
ATOM      1  C   UNL     1       3.737   4.598  18.916  0.00  0.00    +0.000 A 
ATOM      2  C   UNL     1       2.971   5.608  19.594  0.00  0.00    +0.000 A 
ATOM      3  C   UNL     1       2.765   6.760  18.863  0.00  0.00    +0.000 A 
ATOM      4  S   UNL     1       3.423   6.572  17.288  0.00  0.00    +0.000 S 
ATOM      5  C   UNL     1       4.049   5.017  17.638  0.00  0.00    +0.000 A 
ENDROOT
BRANCH   3   6
ATOM      6  C   UNL     1       2.059   7.978  19.304  0.00  0.00    +0.000 A 
ATOM      7  C   UNL     1       1.559   8.127  20.605  0.00  0.00    +0.000 A 
ATOM      8  C   UNL     1       0.848   9.276  20.972  0.00  0.00    +0.000 A 
ATOM      9  C   UNL     1       0.620  10.291  20.046  0.00  0.00    +0.000 A 
ATOM     10  C   UNL     1       1.095  10.156  18.745  0.00  0.00    +0.000 A 
ATOM     11  C   UNL     1       1.806   9.010  18.380  0.00  0.00    +0.000 A 
ENDBRANCH   3   6
BRANCH   1  12
ATOM     12  C   UNL     1       4.053   3.333  19.561  0.00  0.00    +0.000 C 
ATOM     13  O   UNL     1       5.210   2.967  19.743  0.00  0.00    +0.000 OA
BRANCH  12  14
ATOM     14  O   UNL     1       2.962   2.628  19.973  0.00  0.00    +0.000 OA
BRANCH  14  16
ATOM     15  C   UNL     1       0.837   2.502  18.833  0.00  0.00    +0.000 C 
ATOM     16  C   UNL     1       2.250   1.956  18.931  0.00  0.00    +0.000 C 
ENDBRANCH  14  16
ENDBRANCH  12  14
ENDBRANCH   1  12
BRANCH   5  17
ATOM     17  N   UNL     1       4.720   4.226  16.634  0.00  0.00    +0.000 N 
ATOM     18  H   UNL     1       4.050   3.971  15.902  0.00  0.00    +0.000 HD
BRANCH  17  19
ATOM     19  S   UNL     1       5.910   5.107  15.762  0.00  0.00    +0.000 S 
ATOM     20  O   UNL     1       6.730   4.104  15.113  0.00  0.00    +0.000 OA
ATOM     21  O   UNL     1       5.281   6.170  15.012  0.00  0.00    +0.000 OA
BRANCH  19  22
ATOM     22  C   UNL     1       6.911   5.852  17.033  0.00  0.00    +0.000 A 
ATOM     23  C   UNL     1       7.177   7.226  17.016  0.00  0.00    +0.000 A 
ATOM     24  C   UNL     1       7.920   7.797  18.054  0.00  0.00    +0.000 A 
ATOM     25  C   UNL     1       8.380   7.003  19.111  0.00  0.00    +0.000 A 
ATOM     26  C   UNL     1       8.091   5.642  19.137  0.00  0.00    +0.000 A 
ATOM     27  C   UNL     1       7.352   5.062  18.099  0.00  0.00    +0.000 A 
ENDBRANCH  19  22
ENDBRANCH  17  19
ENDBRANCH   5  17
TORSDOF 7
ENDMDL
MODEL 8
REMARK VINA RESULT:      -7.6      3.453      6.143
REMARK  Name = 
REMARK  8 active torsions:
REMARK  status: ('A' for Active; 'I' for Inactive)
REMARK    1  A    between atoms: C_1  and  C_2
REMARK    2  A    between atoms: C_2  and  O_3
REMARK    3  A    between atoms: O_3  and  C_4
REMARK    4  A    between atoms: C_4  and  C_6
REMARK    5  A    between atoms: C_8  and  C_9
REMARK    6  A    between atoms: C_16  and  N_17
REMARK    7  A    between atoms: N_17  and  S_18
REMARK    8  A    between atoms: S_18  and  C_21
REMARK                            x       y       z     vdW  Elec       q    Type
REMARK                         _______ _______ _______ _____ _____    ______ ____
ROOT
ATOM      1  C   UNL     1       4.375   6.518  17.099  0.00  0.00    +0.000 A 
ATOM      2  C   UNL     1       3.630   7.705  17.419  0.00  0.00    +0.000 A 
ATOM      3  C   UNL     1       2.697   7.544  18.423  0.00  0.00    +0.000 A 
ATOM      4  S   UNL     1       2.799   5.952  19.059  0.00  0.00    +0.000 S 
ATOM      5  C   UNL     1       4.001   5.484  17.932  0.00  0.00    +0.000 A 
ENDROOT
BRANCH   3   6
ATOM      6  C   UNL     1       1.760   8.561  18.938  0.00  0.00    +0.000 A 
ATOM      7  C   UNL     1       1.275   9.607  18.141  0.00  0.00    +0.000 A 
ATOM      8  C   UNL     1       0.428  10.584  18.679  0.00  0.00    +0.000 A 
ATOM      9  C   UNL     1       0.056  10.535  20.020  0.00  0.00    +0.000 A 
ATOM     10  C   UNL     1       0.539   9.514  20.832  0.00  0.00    +0.000 A 
ATOM     11  C   UNL     1       1.383   8.538  20.294  0.00  0.00    +0.000 A 
ENDBRANCH   3   6
BRANCH   1  12
ATOM     12  C   UNL     1       5.384   6.524  16.051  0.00  0.00    +0.000 C 
ATOM     13  O   UNL     1       5.137   6.910  14.913  0.00  0.00    +0.000 OA
BRANCH  12  14
ATOM     14  O   UNL     1       6.616   6.107  16.459  0.00  0.00    +0.000 OA
BRANCH  14  16
ATOM     15  C   UNL     1       7.720   6.294  18.598  0.00  0.00    +0.000 C 
ATOM     16  C   UNL     1       7.302   7.012  17.328  0.00  0.00    +0.000 C 
ENDBRANCH  14  16
ENDBRANCH  12  14
ENDBRANCH   1  12
BRANCH   5  17
ATOM     17  N   UNL     1       4.607   4.174  17.970  0.00  0.00    +0.000 N 
ATOM     18  H   UNL     1       4.950   3.987  18.917  0.00  0.00    +0.000 HD
BRANCH  17  19
ATOM     19  S   UNL     1       3.479   2.900  17.723  0.00  0.00    +0.000 S 
ATOM     20  O   UNL     1       2.529   3.413  16.755  0.00  0.00    +0.000 OA
ATOM     21  O   UNL     1       4.184   1.657  17.504  0.00  0.00    +0.000 OA
BRANCH  19  22
ATOM     22  C   UNL     1       2.621   2.777  19.278  0.00  0.00    +0.000 A 
ATOM     23  C   UNL     1       3.332   2.613  20.473  0.00  0.00    +0.000 A 
ATOM     24  C   UNL     1       2.639   2.574  21.687  0.00  0.00    +0.000 A 
ATOM     25  C   UNL     1       1.246   2.715  21.708  0.00  0.00    +0.000 A 
ATOM     26  C   UNL     1       0.546   2.905  20.521  0.00  0.00    +0.000 A 
ATOM     27  C   UNL     1       1.232   2.940  19.301  0.00  0.00    +0.000 A 
ENDBRANCH  19  22
ENDBRANCH  17  19
ENDBRANCH   5  17
TORSDOF 7
ENDMDL
MODEL 9
REMARK VINA RESULT:      -7.6      3.727      7.652
REMARK  Name = 
REMARK  8 active torsions:
REMARK  status: ('A' for Active; 'I' for Inactive)
REMARK    1  A    between atoms: C_1  and  C_2
REMARK    2  A    between atoms: C_2  and  O_3
REMARK    3  A    between atoms: O_3  and  C_4
REMARK    4  A    between atoms: C_4  and  C_6
REMARK    5  A    between atoms: C_8  and  C_9
REMARK    6  A    between atoms: C_16  and  N_17
REMARK    7  A    between atoms: N_17  and  S_18
REMARK    8  A    between atoms: S_18  and  C_21
REMARK                            x       y       z     vdW  Elec       q    Type
REMARK                         _______ _______ _______ _____ _____    ______ ____
ROOT
ATOM      1  C   UNL     1       4.602   4.035  18.220  0.00  0.00    +0.000 A 
ATOM      2  C   UNL     1       5.200   3.611  16.983  0.00  0.00    +0.000 A 
ATOM      3  C   UNL     1       5.385   4.620  16.060  0.00  0.00    +0.000 A 
ATOM      4  S   UNL     1       4.922   6.125  16.744  0.00  0.00    +0.000 S 
ATOM      5  C   UNL     1       4.397   5.400  18.205  0.00  0.00    +0.000 A 
ENDROOT
BRANCH   3   6
ATOM      6  C   UNL     1       5.932   4.486  14.695  0.00  0.00    +0.000 A 
ATOM      7  C   UNL     1       5.345   3.659  13.729  0.00  0.00    +0.000 A 
ATOM      8  C   UNL     1       5.923   3.518  12.461  0.00  0.00    +0.000 A 
ATOM      9  C   UNL     1       7.097   4.194  12.141  0.00  0.00    +0.000 A 
ATOM     10  C   UNL     1       7.705   5.008  13.091  0.00  0.00    +0.000 A 
ATOM     11  C   UNL     1       7.127   5.150  14.356  0.00  0.00    +0.000 A 
ENDBRANCH   3   6
BRANCH   1  12
ATOM     12  C   UNL     1       4.327   3.085  19.287  0.00  0.00    +0.000 C 
ATOM     13  O   UNL     1       5.226   2.527  19.907  0.00  0.00    +0.000 OA
BRANCH  12  14
ATOM     14  O   UNL     1       3.001   2.912  19.553  0.00  0.00    +0.000 OA
BRANCH  14  16
ATOM     15  C   UNL     1       0.786   2.312  18.801  0.00  0.00    +0.000 C 
ATOM     16  C   UNL     1       2.279   2.179  18.560  0.00  0.00    +0.000 C 
ENDBRANCH  14  16
ENDBRANCH  12  14
ENDBRANCH   1  12
BRANCH   5  17
ATOM     17  N   UNL     1       3.910   6.190  19.311  0.00  0.00    +0.000 N 
ATOM     18  H   UNL     1       4.155   7.173  19.158  0.00  0.00    +0.000 HD
BRANCH  17  19
ATOM     19  S   UNL     1       2.194   6.241  19.402  0.00  0.00    +0.000 S 
ATOM     20  O   UNL     1       1.728   5.580  18.198  0.00  0.00    +0.000 OA
ATOM     21  O   UNL     1       1.760   5.817  20.714  0.00  0.00    +0.000 OA
BRANCH  19  22
ATOM     22  C   UNL     1       1.805   7.970  19.228  0.00  0.00    +0.000 A 
ATOM     23  C   UNL     1       1.223   8.679  20.286  0.00  0.00    +0.000 A 
ATOM     24  C   UNL     1       0.977  10.048  20.145  0.00  0.00    +0.000 A 
ATOM     25  C   UNL     1       1.326  10.708  18.960  0.00  0.00    +0.000 A 
ATOM     26  C   UNL     1       1.929  10.006  17.922  0.00  0.00    +0.000 A 
ATOM     27  C   UNL     1       2.175   8.634  18.054  0.00  0.00    +0.000 A 
ENDBRANCH  19  22
ENDBRANCH  17  19
ENDBRANCH   5  17
TORSDOF 7
ENDMDL
