MODEL 1
REMARK VINA RESULT:      -9.6      0.000      0.000
REMARK  Name = 
REMARK  6 active torsions:
REMARK  status: ('A' for Active; 'I' for Inactive)
REMARK    1  A    between atoms: C_7  and  C_8
REMARK    2  A    between atoms: C_11  and  C_12
REMARK    3  A    between atoms: C_12  and  O_14
REMARK    4  A    between atoms: C_18  and  C_19
REMARK    5  A    between atoms: C_22  and  O_23
REMARK    6  A    between atoms: O_23  and  C_24
REMARK                            x       y       z     vdW  Elec       q    Type
REMARK                         _______ _______ _______ _____ _____    ______ ____
ROOT
ATOM      1  N   UNL     1       4.062   2.245  18.946  0.00  0.00    +0.000 N 
ATOM      2  C   UNL     1       3.098   2.902  19.597  0.00  0.00    +0.000 A 
ATOM      3  N   UNL     1       2.178   2.234  20.279  0.00  0.00    +0.000 NA
ATOM      4  N   UNL     1       1.399   3.172  20.804  0.00  0.00    +0.000 N 
ATOM      5  C   UNL     1       1.779   4.455  20.487  0.00  0.00    +0.000 A 
ATOM      6  C   UNL     1       1.231   5.679  20.851  0.00  0.00    +0.000 A 
ATOM      7  C   UNL     1       1.860   6.811  20.339  0.00  0.00    +0.000 A 
ATOM      8  N   UNL     1       2.925   6.731  19.502  0.00  0.00    +0.000 NA
ATOM      9  C   UNL     1       3.450   5.518  19.127  0.00  0.00    +0.000 A 
ATOM     10  C   UNL     1       2.892   4.328  19.656  0.00  0.00    +0.000 A 
ATOM     11  H   UNL     1       4.087   1.234  19.042  0.00  0.00    +0.000 HD
ATOM     12  H   UNL     1       4.962   2.664  18.730  0.00  0.00    +0.000 HD
ATOM     13  H   UNL     1       0.623   2.889  21.377  0.00  0.00    +0.000 HD
ENDROOT
BRANCH   7  14
ATOM     14  C   UNL     1       1.375   8.176  20.658  0.00  0.00    +0.000 A 
ATOM     15  C   UNL     1       1.018   8.544  21.969  0.00  0.00    +0.000 A 
ATOM     16  C   UNL     1       0.507   9.806  22.264  0.00  0.00    +0.000 A 
ATOM     17  C   UNL     1       0.338  10.756  21.251  0.00  0.00    +0.000 A 
ATOM     18  C   UNL     1       0.730  10.437  19.947  0.00  0.00    +0.000 A 
ATOM     19  C   UNL     1       1.238   9.161  19.658  0.00  0.00    +0.000 A 
BRANCH  17  20
ATOM     20  C   UNL     1      -0.216  12.078  21.638  0.00  0.00    +0.000 C 
ATOM     21  O   UNL     1      -0.319  13.003  20.850  0.00  0.00    +0.000 OA
BRANCH  20  22
ATOM     22  O   UNL     1      -0.540  12.189  22.943  0.00  0.00    +0.000 OA
ATOM     23  H   UNL     1      -0.016  12.829  23.456  0.00  0.00    +0.000 HD
ENDBRANCH  20  22
ENDBRANCH  17  20
ENDBRANCH   7  14
BRANCH   9  24
ATOM     24  C   UNL     1       4.545   5.540  18.149  0.00  0.00    +0.000 A 
ATOM     25  C   UNL     1       5.810   4.975  18.429  0.00  0.00    +0.000 A 
ATOM     26  C   UNL     1       6.833   4.980  17.470  0.00  0.00    +0.000 A 
ATOM     27  C   UNL     1       6.600   5.507  16.196  0.00  0.00    +0.000 A 
ATOM     28  C   UNL     1       5.380   6.108  15.920  0.00  0.00    +0.000 A 
ATOM     29  C   UNL     1       4.400   6.165  16.904  0.00  0.00    +0.000 A 
BRANCH  27  30
ATOM     30  O   UNL     1       7.649   5.493  15.309  0.00  0.00    +0.000 OA
BRANCH  30  31
ATOM     31  C   UNL     1       7.452   5.011  14.032  0.00  0.00    +0.000 A 
ATOM     32  C   UNL     1       8.047   5.560  12.888  0.00  0.00    +0.000 A 
ATOM     33  C   UNL     1       7.735   5.064  11.622  0.00  0.00    +0.000 A 
ATOM     34  C   UNL     1       6.797   4.043  11.492  0.00  0.00    +0.000 A 
ATOM     35  C   UNL     1       6.208   3.503  12.631  0.00  0.00    +0.000 A 
ATOM     36  F   UNL     1       5.304   2.522  12.500  0.00  0.00    +0.000 F 
ATOM     37  C   UNL     1       6.530   3.973  13.900  0.00  0.00    +0.000 A 
ENDBRANCH  30  31
ENDBRANCH  27  30
ENDBRANCH   9  24
TORSDOF 6
ENDMDL
MODEL 2
REMARK VINA RESULT:      -9.2      0.605      1.028
REMARK  Name = 
REMARK  6 active torsions:
REMARK  status: ('A' for Active; 'I' for Inactive)
REMARK    1  A    between atoms: C_7  and  C_8
REMARK    2  A    between atoms: C_11  and  C_12
REMARK    3  A    between atoms: C_12  and  O_14
REMARK    4  A    between atoms: C_18  and  C_19
REMARK    5  A    between atoms: C_22  and  O_23
REMARK    6  A    between atoms: O_23  and  C_24
REMARK                            x       y       z     vdW  Elec       q    Type
REMARK                         _______ _______ _______ _____ _____    ______ ____
ROOT
ATOM      1  N   UNL     1       4.719   2.373  19.577  0.00  0.00    +0.000 N 
ATOM      2  C   UNL     1       3.695   3.008  20.155  0.00  0.00    +0.000 A 
ATOM      3  N   UNL     1       2.898   2.362  20.995  0.00  0.00    +0.000 NA
ATOM      4  N   UNL     1       2.014   3.271  21.389  0.00  0.00    +0.000 N 
ATOM      5  C   UNL     1       2.204   4.512  20.828  0.00  0.00    +0.000 A 
ATOM      6  C   UNL     1       1.504   5.701  21.001  0.00  0.00    +0.000 A 
ATOM      7  C   UNL     1       1.954   6.792  20.262  0.00  0.00    +0.000 A 
ATOM      8  N   UNL     1       2.993   6.699  19.394  0.00  0.00    +0.000 NA
ATOM      9  C   UNL     1       3.668   5.516  19.211  0.00  0.00    +0.000 A 
ATOM     10  C   UNL     1       3.297   4.382  19.972  0.00  0.00    +0.000 A 
ATOM     11  H   UNL     1       4.887   1.409  19.850  0.00  0.00    +0.000 HD
ATOM     12  H   UNL     1       5.545   2.858  19.241  0.00  0.00    +0.000 HD
ATOM     13  H   UNL     1       1.303   3.000  22.046  0.00  0.00    +0.000 HD
ENDROOT
BRANCH   7  14
ATOM     14  C   UNL     1       1.297   8.118  20.361  0.00  0.00    +0.000 A 
ATOM     15  C   UNL     1       0.569   8.496  21.505  0.00  0.00    +0.000 A 
ATOM     16  C   UNL     1      -0.099   9.717  21.580  0.00  0.00    +0.000 A 
ATOM     17  C   UNL     1      -0.060  10.613  20.507  0.00  0.00    +0.000 A 
ATOM     18  C   UNL     1       0.695  10.286  19.376  0.00  0.00    +0.000 A 
ATOM     19  C   UNL     1       1.361   9.052  19.307  0.00  0.00    +0.000 A 
BRANCH  17  20
ATOM     20  C   UNL     1      -0.799  11.892  20.654  0.00  0.00    +0.000 C 
ATOM     21  O   UNL     1      -0.755  12.777  19.817  0.00  0.00    +0.000 OA
BRANCH  20  22
ATOM     22  O   UNL     1      -1.474  12.016  21.816  0.00  0.00    +0.000 OA
ATOM     23  H   UNL     1      -2.444  12.051  21.739  0.00  0.00    +0.000 HD
ENDBRANCH  20  22
ENDBRANCH  17  20
ENDBRANCH   7  14
BRANCH   9  24
ATOM     24  C   UNL     1       4.718   5.501  18.184  0.00  0.00    +0.000 A 
ATOM     25  C   UNL     1       4.468   5.903  16.853  0.00  0.00    +0.000 A 
ATOM     26  C   UNL     1       5.492   5.911  15.895  0.00  0.00    +0.000 A 
ATOM     27  C   UNL     1       6.796   5.562  16.256  0.00  0.00    +0.000 A 
ATOM     28  C   UNL     1       7.050   5.120  17.547  0.00  0.00    +0.000 A 
ATOM     29  C   UNL     1       6.011   5.044  18.467  0.00  0.00    +0.000 A 
BRANCH  27  30
ATOM     30  O   UNL     1       7.749   5.577  15.267  0.00  0.00    +0.000 OA
BRANCH  30  31
ATOM     31  C   UNL     1       7.459   5.028  14.035  0.00  0.00    +0.000 A 
ATOM     32  C   UNL     1       8.002   5.487  12.827  0.00  0.00    +0.000 A 
ATOM     33  C   UNL     1       7.596   4.929  11.614  0.00  0.00    +0.000 A 
ATOM     34  C   UNL     1       6.617   3.939  11.601  0.00  0.00    +0.000 A 
ATOM     35  C   UNL     1       6.080   3.490  12.804  0.00  0.00    +0.000 A 
ATOM     36  F   UNL     1       5.136   2.539  12.786  0.00  0.00    +0.000 F 
ATOM     37  C   UNL     1       6.495   4.021  14.021  0.00  0.00    +0.000 A 
ENDBRANCH  30  31
ENDBRANCH  27  30
ENDBRANCH   9  24
TORSDOF 6
ENDMDL
MODEL 3
REMARK VINA RESULT:      -9.2      1.335      1.742
REMARK  Name = 
REMARK  6 active torsions:
REMARK  status: ('A' for Active; 'I' for Inactive)
REMARK    1  A    between atoms: C_7  and  C_8
REMARK    2  A    between atoms: C_11  and  C_12
REMARK    3  A    between atoms: C_12  and  O_14
REMARK    4  A    between atoms: C_18  and  C_19
REMARK    5  A    between atoms: C_22  and  O_23
REMARK    6  A    between atoms: O_23  and  C_24
REMARK                            x       y       z     vdW  Elec       q    Type
REMARK                         _______ _______ _______ _____ _____    ______ ____
ROOT
ATOM      1  N   UNL     1       4.703   2.299  19.386  0.00  0.00    +0.000 N 
ATOM      2  C   UNL     1       3.800   3.036  20.041  0.00  0.00    +0.000 A 
ATOM      3  N   UNL     1       3.169   2.537  21.095  0.00  0.00    +0.000 NA
ATOM      4  N   UNL     1       2.371   3.515  21.505  0.00  0.00    +0.000 N 
ATOM      5  C   UNL     1       2.456   4.659  20.748  0.00  0.00    +0.000 A 
ATOM      6  C   UNL     1       1.800   5.878  20.870  0.00  0.00    +0.000 A 
ATOM      7  C   UNL     1       2.109   6.842  19.914  0.00  0.00    +0.000 A 
ATOM      8  N   UNL     1       2.973   6.600  18.896  0.00  0.00    +0.000 NA
ATOM      9  C   UNL     1       3.603   5.386  18.767  0.00  0.00    +0.000 A 
ATOM     10  C   UNL     1       3.376   4.380  19.737  0.00  0.00    +0.000 A 
ATOM     11  H   UNL     1       4.916   1.379  19.760  0.00  0.00    +0.000 HD
ATOM     12  H   UNL     1       5.454   2.710  18.841  0.00  0.00    +0.000 HD
ATOM     13  H   UNL     1       1.791   3.358  22.311  0.00  0.00    +0.000 HD
ENDROOT
BRANCH   7  14
ATOM     14  C   UNL     1       1.480   8.185  19.937  0.00  0.00    +0.000 A 
ATOM     15  C   UNL     1       0.804   8.663  21.076  0.00  0.00    +0.000 A 
ATOM     16  C   UNL     1       0.163   9.900  21.084  0.00  0.00    +0.000 A 
ATOM     17  C   UNL     1       0.177  10.713  19.946  0.00  0.00    +0.000 A 
ATOM     18  C   UNL     1       0.881  10.287  18.815  0.00  0.00    +0.000 A 
ATOM     19  C   UNL     1       1.521   9.037  18.814  0.00  0.00    +0.000 A 
BRANCH  17  20
ATOM     20  C   UNL     1      -0.532  12.015  20.024  0.00  0.00    +0.000 C 
ATOM     21  O   UNL     1      -0.077  12.976  20.620  0.00  0.00    +0.000 OA
BRANCH  20  22
ATOM     22  O   UNL     1      -1.746  12.026  19.434  0.00  0.00    +0.000 OA
ATOM     23  H   UNL     1      -2.298  11.240  19.588  0.00  0.00    +0.000 HD
ENDBRANCH  20  22
ENDBRANCH  17  20
ENDBRANCH   7  14
BRANCH   9  24
ATOM     24  C   UNL     1       4.450   5.198  17.581  0.00  0.00    +0.000 A 
ATOM     25  C   UNL     1       4.410   4.013  16.813  0.00  0.00    +0.000 A 
ATOM     26  C   UNL     1       5.204   3.866  15.667  0.00  0.00    +0.000 A 
ATOM     27  C   UNL     1       6.020   4.917  15.237  0.00  0.00    +0.000 A 
ATOM     28  C   UNL     1       6.106   6.070  16.005  0.00  0.00    +0.000 A 
ATOM     29  C   UNL     1       5.372   6.173  17.180  0.00  0.00    +0.000 A 
BRANCH  27  30
ATOM     30  O   UNL     1       6.782   4.702  14.115  0.00  0.00    +0.000 OA
BRANCH  30  31
ATOM     31  C   UNL     1       6.262   3.969  13.069  0.00  0.00    +0.000 A 
ATOM     32  C   UNL     1       4.909   3.986  12.699  0.00  0.00    +0.000 A 
ATOM     33  C   UNL     1       4.446   3.154  11.679  0.00  0.00    +0.000 A 
ATOM     34  C   UNL     1       5.324   2.273  11.053  0.00  0.00    +0.000 A 
ATOM     35  C   UNL     1       6.664   2.259  11.427  0.00  0.00    +0.000 A 
ATOM     36  F   UNL     1       7.504   1.407  10.823  0.00  0.00    +0.000 F 
ATOM     37  C   UNL     1       7.143   3.102  12.425  0.00  0.00    +0.000 A 
ENDBRANCH  30  31
ENDBRANCH  27  30
ENDBRANCH   9  24
TORSDOF 6
ENDMDL
MODEL 4
REMARK VINA RESULT:      -9.1      1.447      1.916
REMARK  Name = 
REMARK  6 active torsions:
REMARK  status: ('A' for Active; 'I' for Inactive)
REMARK    1  A    between atoms: C_7  and  C_8
REMARK    2  A    between atoms: C_11  and  C_12
REMARK    3  A    between atoms: C_12  and  O_14
REMARK    4  A    between atoms: C_18  and  C_19
REMARK    5  A    between atoms: C_22  and  O_23
REMARK    6  A    between atoms: O_23  and  C_24
REMARK                            x       y       z     vdW  Elec       q    Type
REMARK                         _______ _______ _______ _____ _____    ______ ____
ROOT
ATOM      1  N   UNL     1       4.590   2.305  19.339  0.00  0.00    +0.000 N 
ATOM      2  C   UNL     1       3.744   3.098  20.005  0.00  0.00    +0.000 A 
ATOM      3  N   UNL     1       3.170   2.672  21.122  0.00  0.00    +0.000 NA
ATOM      4  N   UNL     1       2.419   3.690  21.524  0.00  0.00    +0.000 N 
ATOM      5  C   UNL     1       2.479   4.788  20.699  0.00  0.00    +0.000 A 
ATOM      6  C   UNL     1       1.856   6.027  20.791  0.00  0.00    +0.000 A 
ATOM      7  C   UNL     1       2.123   6.929  19.765  0.00  0.00    +0.000 A 
ATOM      8  N   UNL     1       2.917   6.611  18.712  0.00  0.00    +0.000 NA
ATOM      9  C   UNL     1       3.515   5.377  18.613  0.00  0.00    +0.000 A 
ATOM     10  C   UNL     1       3.328   4.433  19.651  0.00  0.00    +0.000 A 
ATOM     11  H   UNL     1       4.808   1.402  19.750  0.00  0.00    +0.000 HD
ATOM     12  H   UNL     1       5.313   2.668  18.726  0.00  0.00    +0.000 HD
ATOM     13  H   UNL     1       1.888   3.591  22.372  0.00  0.00    +0.000 HD
ENDROOT
BRANCH   7  14
ATOM     14  C   UNL     1       1.524   8.286  19.751  0.00  0.00    +0.000 A 
ATOM     15  C   UNL     1       0.883   8.820  20.885  0.00  0.00    +0.000 A 
ATOM     16  C   UNL     1       0.269  10.070  20.859  0.00  0.00    +0.000 A 
ATOM     17  C   UNL     1       0.275  10.839  19.691  0.00  0.00    +0.000 A 
ATOM     18  C   UNL     1       0.945  10.356  18.562  0.00  0.00    +0.000 A 
ATOM     19  C   UNL     1       1.558   9.093  18.596  0.00  0.00    +0.000 A 
BRANCH  17  20
ATOM     20  C   UNL     1      -0.405  12.159  19.735  0.00  0.00    +0.000 C 
ATOM     21  O   UNL     1      -0.594  12.834  18.738  0.00  0.00    +0.000 OA
BRANCH  20  22
ATOM     22  O   UNL     1      -0.741  12.573  20.975  0.00  0.00    +0.000 OA
ATOM     23  H   UNL     1      -1.510  13.166  21.028  0.00  0.00    +0.000 HD
ENDBRANCH  20  22
ENDBRANCH  17  20
ENDBRANCH   7  14
BRANCH   9  24
ATOM     24  C   UNL     1       4.281   5.105  17.391  0.00  0.00    +0.000 A 
ATOM     25  C   UNL     1       4.892   6.138  16.645  0.00  0.00    +0.000 A 
ATOM     26  C   UNL     1       5.646   5.854  15.497  0.00  0.00    +0.000 A 
ATOM     27  C   UNL     1       5.845   4.530  15.096  0.00  0.00    +0.000 A 
ATOM     28  C   UNL     1       5.214   3.506  15.790  0.00  0.00    +0.000 A 
ATOM     29  C   UNL     1       4.407   3.807  16.880  0.00  0.00    +0.000 A 
BRANCH  27  30
ATOM     30  O   UNL     1       6.582   4.322  13.955  0.00  0.00    +0.000 OA
BRANCH  30  31
ATOM     31  C   UNL     1       6.006   3.674  12.883  0.00  0.00    +0.000 A 
ATOM     32  C   UNL     1       4.724   3.962  12.392  0.00  0.00    +0.000 A 
ATOM     33  C   UNL     1       4.181   3.206  11.352  0.00  0.00    +0.000 A 
ATOM     34  C   UNL     1       4.900   2.136  10.826  0.00  0.00    +0.000 A 
ATOM     35  C   UNL     1       6.171   1.855  11.319  0.00  0.00    +0.000 A 
ATOM     36  F   UNL     1       6.857   0.823  10.811  0.00  0.00    +0.000 F 
ATOM     37  C   UNL     1       6.733   2.617  12.338  0.00  0.00    +0.000 A 
ENDBRANCH  30  31
ENDBRANCH  27  30
ENDBRANCH   9  24
TORSDOF 6
ENDMDL
MODEL 5
REMARK VINA RESULT:      -9.1      1.510      2.150
REMARK  Name = 
REMARK  6 active torsions:
REMARK  status: ('A' for Active; 'I' for Inactive)
REMARK    1  A    between atoms: C_7  and  C_8
REMARK    2  A    between atoms: C_11  and  C_12
REMARK    3  A    between atoms: C_12  and  O_14
REMARK    4  A    between atoms: C_18  and  C_19
REMARK    5  A    between atoms: C_22  and  O_23
REMARK    6  A    between atoms: O_23  and  C_24
REMARK                            x       y       z     vdW  Elec       q    Type
REMARK                         _______ _______ _______ _____ _____    ______ ____
ROOT
ATOM      1  N   UNL     1       4.773   2.381  19.134  0.00  0.00    +0.000 N 
ATOM      2  C   UNL     1       3.893   3.158  19.775  0.00  0.00    +0.000 A 
ATOM      3  N   UNL     1       3.289   2.719  20.870  0.00  0.00    +0.000 NA
ATOM      4  N   UNL     1       2.509   3.724  21.251  0.00  0.00    +0.000 N 
ATOM      5  C   UNL     1       2.580   4.826  20.433  0.00  0.00    +0.000 A 
ATOM      6  C   UNL     1       1.935   6.055  20.510  0.00  0.00    +0.000 A 
ATOM      7  C   UNL     1       2.223   6.966  19.496  0.00  0.00    +0.000 A 
ATOM      8  N   UNL     1       3.057   6.664  18.469  0.00  0.00    +0.000 NA
ATOM      9  C   UNL     1       3.676   5.440  18.385  0.00  0.00    +0.000 A 
ATOM     10  C   UNL     1       3.469   4.488  19.413  0.00  0.00    +0.000 A 
ATOM     11  H   UNL     1       4.991   1.480  19.549  0.00  0.00    +0.000 HD
ATOM     12  H   UNL     1       5.511   2.758  18.547  0.00  0.00    +0.000 HD
ATOM     13  H   UNL     1       1.952   3.613  22.080  0.00  0.00    +0.000 HD
ENDROOT
BRANCH   7  14
ATOM     14  C   UNL     1       1.604   8.313  19.468  0.00  0.00    +0.000 A 
ATOM     15  C   UNL     1       1.600   9.097  18.299  0.00  0.00    +0.000 A 
ATOM     16  C   UNL     1       1.071  10.386  18.282  0.00  0.00    +0.000 A 
ATOM     17  C   UNL     1       0.519  10.941  19.442  0.00  0.00    +0.000 A 
ATOM     18  C   UNL     1       0.465  10.168  20.606  0.00  0.00    +0.000 A 
ATOM     19  C   UNL     1       1.004   8.872  20.615  0.00  0.00    +0.000 A 
BRANCH  17  20
ATOM     20  C   UNL     1      -0.021  12.321  19.352  0.00  0.00    +0.000 C 
ATOM     21  O   UNL     1      -0.337  12.969  20.335  0.00  0.00    +0.000 OA
BRANCH  20  22
ATOM     22  O   UNL     1      -0.186  12.775  18.091  0.00  0.00    +0.000 OA
ATOM     23  H   UNL     1       0.382  13.521  17.833  0.00  0.00    +0.000 HD
ENDBRANCH  20  22
ENDBRANCH  17  20
ENDBRANCH   7  14
BRANCH   9  24
ATOM     24  C   UNL     1       4.487   5.185  17.188  0.00  0.00    +0.000 A 
ATOM     25  C   UNL     1       4.774   3.874  16.744  0.00  0.00    +0.000 A 
ATOM     26  C   UNL     1       5.525   3.652  15.582  0.00  0.00    +0.000 A 
ATOM     27  C   UNL     1       5.966   4.733  14.812  0.00  0.00    +0.000 A 
ATOM     28  C   UNL     1       5.733   6.026  15.258  0.00  0.00    +0.000 A 
ATOM     29  C   UNL     1       5.053   6.233  16.452  0.00  0.00    +0.000 A 
BRANCH  27  30
ATOM     30  O   UNL     1       6.708   4.446  13.692  0.00  0.00    +0.000 OA
BRANCH  30  31
ATOM     31  C   UNL     1       6.218   3.554  12.762  0.00  0.00    +0.000 A 
ATOM     32  C   UNL     1       6.994   2.562  12.145  0.00  0.00    +0.000 A 
ATOM     33  C   UNL     1       6.442   1.748  11.155  0.00  0.00    +0.000 A 
ATOM     34  C   UNL     1       5.126   1.950  10.748  0.00  0.00    +0.000 A 
ATOM     35  C   UNL     1       4.362   2.938  11.363  0.00  0.00    +0.000 A 
ATOM     36  F   UNL     1       3.096   3.129  10.966  0.00  0.00    +0.000 F 
ATOM     37  C   UNL     1       4.893   3.738  12.369  0.00  0.00    +0.000 A 
ENDBRANCH  30  31
ENDBRANCH  27  30
ENDBRANCH   9  24
TORSDOF 6
ENDMDL
MODEL 6
REMARK VINA RESULT:      -9.1      5.204      7.767
REMARK  Name = 
REMARK  6 active torsions:
REMARK  status: ('A' for Active; 'I' for Inactive)
REMARK    1  A    between atoms: C_7  and  C_8
REMARK    2  A    between atoms: C_11  and  C_12
REMARK    3  A    between atoms: C_12  and  O_14
REMARK    4  A    between atoms: C_18  and  C_19
REMARK    5  A    between atoms: C_22  and  O_23
REMARK    6  A    between atoms: O_23  and  C_24
REMARK                            x       y       z     vdW  Elec       q    Type
REMARK                         _______ _______ _______ _____ _____    ______ ____
ROOT
ATOM      1  N   UNL     1       2.686  11.974  17.826  0.00  0.00    +0.000 N 
ATOM      2  C   UNL     1       1.741  12.780  18.322  0.00  0.00    +0.000 A 
ATOM      3  N   UNL     1       1.749  14.074  18.033  0.00  0.00    +0.000 NA
ATOM      4  N   UNL     1       0.689  14.567  18.662  0.00  0.00    +0.000 N 
ATOM      5  C   UNL     1      -0.028  13.628  19.366  0.00  0.00    +0.000 A 
ATOM      6  C   UNL     1      -1.184  13.754  20.127  0.00  0.00    +0.000 A 
ATOM      7  C   UNL     1      -1.654  12.590  20.731  0.00  0.00    +0.000 A 
ATOM      8  N   UNL     1      -1.004  11.404  20.616  0.00  0.00    +0.000 NA
ATOM      9  C   UNL     1       0.151  11.289  19.880  0.00  0.00    +0.000 A 
ATOM     10  C   UNL     1       0.652  12.422  19.196  0.00  0.00    +0.000 A 
ATOM     11  H   UNL     1       3.362  12.383  17.186  0.00  0.00    +0.000 HD
ATOM     12  H   UNL     1       2.543  10.977  17.697  0.00  0.00    +0.000 HD
ATOM     13  H   UNL     1       0.491  15.549  18.577  0.00  0.00    +0.000 HD
ENDROOT
BRANCH   7  14
ATOM     14  C   UNL     1      -2.881  12.591  21.564  0.00  0.00    +0.000 A 
ATOM     15  C   UNL     1      -4.147  12.853  21.009  0.00  0.00    +0.000 A 
ATOM     16  C   UNL     1      -5.295  12.912  21.797  0.00  0.00    +0.000 A 
ATOM     17  C   UNL     1      -5.218  12.705  23.178  0.00  0.00    +0.000 A 
ATOM     18  C   UNL     1      -3.981  12.396  23.751  0.00  0.00    +0.000 A 
ATOM     19  C   UNL     1      -2.828  12.343  22.951  0.00  0.00    +0.000 A 
BRANCH  17  20
ATOM     20  C   UNL     1      -6.481  12.789  23.955  0.00  0.00    +0.000 C 
ATOM     21  O   UNL     1      -7.189  11.819  24.165  0.00  0.00    +0.000 OA
BRANCH  20  22
ATOM     22  O   UNL     1      -6.807  14.035  24.358  0.00  0.00    +0.000 OA
ATOM     23  H   UNL     1      -6.156  14.479  24.929  0.00  0.00    +0.000 HD
ENDBRANCH  20  22
ENDBRANCH  17  20
ENDBRANCH   7  14
BRANCH   9  24
ATOM     24  C   UNL     1       0.821   9.982  19.895  0.00  0.00    +0.000 A 
ATOM     25  C   UNL     1       1.363   9.406  18.724  0.00  0.00    +0.000 A 
ATOM     26  C   UNL     1       2.026   8.172  18.764  0.00  0.00    +0.000 A 
ATOM     27  C   UNL     1       2.203   7.508  19.982  0.00  0.00    +0.000 A 
ATOM     28  C   UNL     1       1.638   8.036  21.134  0.00  0.00    +0.000 A 
ATOM     29  C   UNL     1       0.916   9.222  21.067  0.00  0.00    +0.000 A 
BRANCH  27  30
ATOM     30  O   UNL     1       2.850   6.296  19.949  0.00  0.00    +0.000 OA
BRANCH  30  31
ATOM     31  C   UNL     1       2.161   5.169  19.552  0.00  0.00    +0.000 A 
ATOM     32  C   UNL     1       1.236   4.493  20.360  0.00  0.00    +0.000 A 
ATOM     33  C   UNL     1       0.639   3.313  19.914  0.00  0.00    +0.000 A 
ATOM     34  C   UNL     1       0.996   2.783  18.677  0.00  0.00    +0.000 A 
ATOM     35  C   UNL     1       1.917   3.458  17.881  0.00  0.00    +0.000 A 
ATOM     36  F   UNL     1       2.258   2.942  16.692  0.00  0.00    +0.000 F 
ATOM     37  C   UNL     1       2.499   4.648  18.304  0.00  0.00    +0.000 A 
ENDBRANCH  30  31
ENDBRANCH  27  30
ENDBRANCH   9  24
TORSDOF 6
ENDMDL
MODEL 7
REMARK VINA RESULT:      -9.1      1.328      1.987
REMARK  Name = 
REMARK  6 active torsions:
REMARK  status: ('A' for Active; 'I' for Inactive)
REMARK    1  A    between atoms: C_7  and  C_8
REMARK    2  A    between atoms: C_11  and  C_12
REMARK    3  A    between atoms: C_12  and  O_14
REMARK    4  A    between atoms: C_18  and  C_19
REMARK    5  A    between atoms: C_22  and  O_23
REMARK    6  A    between atoms: O_23  and  C_24
REMARK                            x       y       z     vdW  Elec       q    Type
REMARK                         _______ _______ _______ _____ _____    ______ ____
ROOT
ATOM      1  N   UNL     1       4.504   2.333  19.240  0.00  0.00    +0.000 N 
ATOM      2  C   UNL     1       3.644   3.081  19.939  0.00  0.00    +0.000 A 
ATOM      3  N   UNL     1       3.034   2.578  21.004  0.00  0.00    +0.000 NA
ATOM      4  N   UNL     1       2.278   3.569  21.459  0.00  0.00    +0.000 N 
ATOM      5  C   UNL     1       2.370   4.725  20.721  0.00  0.00    +0.000 A 
ATOM      6  C   UNL     1       1.751   5.959  20.888  0.00  0.00    +0.000 A 
ATOM      7  C   UNL     1       2.055   6.933  19.941  0.00  0.00    +0.000 A 
ATOM      8  N   UNL     1       2.878   6.688  18.890  0.00  0.00    +0.000 NA
ATOM      9  C   UNL     1       3.470   5.460  18.717  0.00  0.00    +0.000 A 
ATOM     10  C   UNL     1       3.247   4.442  19.675  0.00  0.00    +0.000 A 
ATOM     11  H   UNL     1       4.704   1.400  19.589  0.00  0.00    +0.000 HD
ATOM     12  H   UNL     1       5.248   2.735  18.678  0.00  0.00    +0.000 HD
ATOM     13  H   UNL     1       1.721   3.411  22.281  0.00  0.00    +0.000 HD
ENDROOT
BRANCH   7  14
ATOM     14  C   UNL     1       1.465   8.292  20.011  0.00  0.00    +0.000 A 
ATOM     15  C   UNL     1       1.453   9.149  18.895  0.00  0.00    +0.000 A 
ATOM     16  C   UNL     1       0.952  10.447  18.972  0.00  0.00    +0.000 A 
ATOM     17  C   UNL     1       0.437  10.938  20.176  0.00  0.00    +0.000 A 
ATOM     18  C   UNL     1       0.390  10.093  21.290  0.00  0.00    +0.000 A 
ATOM     19  C   UNL     1       0.902   8.788  21.205  0.00  0.00    +0.000 A 
BRANCH  17  20
ATOM     20  C   UNL     1      -0.074  12.332  20.186  0.00  0.00    +0.000 C 
ATOM     21  O   UNL     1       0.330  13.175  20.968  0.00  0.00    +0.000 OA
BRANCH  20  22
ATOM     22  O   UNL     1      -1.063  12.570  19.298  0.00  0.00    +0.000 OA
ATOM     23  H   UNL     1      -0.949  12.165  18.421  0.00  0.00    +0.000 HD
ENDBRANCH  20  22
ENDBRANCH  17  20
ENDBRANCH   7  14
BRANCH   9  24
ATOM     24  C   UNL     1       4.271   5.274  17.500  0.00  0.00    +0.000 A 
ATOM     25  C   UNL     1       4.728   6.367  16.731  0.00  0.00    +0.000 A 
ATOM     26  C   UNL     1       5.518   6.169  15.589  0.00  0.00    +0.000 A 
ATOM     27  C   UNL     1       5.907   4.878  15.218  0.00  0.00    +0.000 A 
ATOM     28  C   UNL     1       5.429   3.790  15.935  0.00  0.00    +0.000 A 
ATOM     29  C   UNL     1       4.584   3.996  17.019  0.00  0.00    +0.000 A 
BRANCH  27  30
ATOM     30  O   UNL     1       6.669   4.753  14.082  0.00  0.00    +0.000 OA
BRANCH  30  31
ATOM     31  C   UNL     1       6.208   3.981  13.036  0.00  0.00    +0.000 A 
ATOM     32  C   UNL     1       4.861   3.906  12.654  0.00  0.00    +0.000 A 
ATOM     33  C   UNL     1       4.464   3.039  11.635  0.00  0.00    +0.000 A 
ATOM     34  C   UNL     1       5.405   2.216  11.022  0.00  0.00    +0.000 A 
ATOM     35  C   UNL     1       6.740   2.293  11.408  0.00  0.00    +0.000 A 
ATOM     36  F   UNL     1       7.641   1.497  10.816  0.00  0.00    +0.000 F 
ATOM     37  C   UNL     1       7.152   3.172  12.405  0.00  0.00    +0.000 A 
ENDBRANCH  30  31
ENDBRANCH  27  30
ENDBRANCH   9  24
TORSDOF 6
ENDMDL
MODEL 8
REMARK VINA RESULT:      -9.1      1.069      1.567
REMARK  Name = 
REMARK  6 active torsions:
REMARK  status: ('A' for Active; 'I' for Inactive)
REMARK    1  A    between atoms: C_7  and  C_8
REMARK    2  A    between atoms: C_11  and  C_12
REMARK    3  A    between atoms: C_12  and  O_14
REMARK    4  A    between atoms: C_18  and  C_19
REMARK    5  A    between atoms: C_22  and  O_23
REMARK    6  A    between atoms: O_23  and  C_24
REMARK                            x       y       z     vdW  Elec       q    Type
REMARK                         _______ _______ _______ _____ _____    ______ ____
ROOT
ATOM      1  N   UNL     1       3.742   2.024  19.464  0.00  0.00    +0.000 N 
ATOM      2  C   UNL     1       2.814   2.804  20.028  0.00  0.00    +0.000 A 
ATOM      3  N   UNL     1       1.846   2.269  20.759  0.00  0.00    +0.000 NA
ATOM      4  N   UNL     1       1.123   3.303  21.170  0.00  0.00    +0.000 N 
ATOM      5  C   UNL     1       1.587   4.520  20.729  0.00  0.00    +0.000 A 
ATOM      6  C   UNL     1       1.115   5.807  20.955  0.00  0.00    +0.000 A 
ATOM      7  C   UNL     1       1.819   6.839  20.341  0.00  0.00    +0.000 A 
ATOM      8  N   UNL     1       2.886   6.605  19.536  0.00  0.00    +0.000 NA
ATOM      9  C   UNL     1       3.337   5.329  19.297  0.00  0.00    +0.000 A 
ATOM     10  C   UNL     1       2.699   4.239  19.935  0.00  0.00    +0.000 A 
ATOM     11  H   UNL     1       3.701   1.029  19.665  0.00  0.00    +0.000 HD
ATOM     12  H   UNL     1       4.668   2.361  19.223  0.00  0.00    +0.000 HD
ATOM     13  H   UNL     1       0.324   3.130  21.756  0.00  0.00    +0.000 HD
ENDROOT
BRANCH   7  14
ATOM     14  C   UNL     1       1.419   8.257  20.509  0.00  0.00    +0.000 A 
ATOM     15  C   UNL     1       1.072   8.780  21.768  0.00  0.00    +0.000 A 
ATOM     16  C   UNL     1       0.640  10.096  21.923  0.00  0.00    +0.000 A 
ATOM     17  C   UNL     1       0.543  10.944  20.814  0.00  0.00    +0.000 A 
ATOM     18  C   UNL     1       0.927  10.467  19.557  0.00  0.00    +0.000 A 
ATOM     19  C   UNL     1       1.356   9.138  19.410  0.00  0.00    +0.000 A 
BRANCH  17  20
ATOM     20  C   UNL     1       0.070  12.331  21.053  0.00  0.00    +0.000 C 
ATOM     21  O   UNL     1      -1.044  12.710  20.733  0.00  0.00    +0.000 OA
BRANCH  20  22
ATOM     22  O   UNL     1       0.993  13.151  21.597  0.00  0.00    +0.000 OA
ATOM     23  H   UNL     1       0.913  14.092  21.363  0.00  0.00    +0.000 HD
ENDBRANCH  20  22
ENDBRANCH  17  20
ENDBRANCH   7  14
BRANCH   9  24
ATOM     24  C   UNL     1       4.442   5.182  18.341  0.00  0.00    +0.000 A 
ATOM     25  C   UNL     1       4.237   5.247  16.945  0.00  0.00    +0.000 A 
ATOM     26  C   UNL     1       5.310   5.134  16.049  0.00  0.00    +0.000 A 
ATOM     27  C   UNL     1       6.616   5.001  16.530  0.00  0.00    +0.000 A 
ATOM     28  C   UNL     1       6.831   4.889  17.896  0.00  0.00    +0.000 A 
ATOM     29  C   UNL     1       5.751   4.925  18.770  0.00  0.00    +0.000 A 
BRANCH  27  30
ATOM     30  O   UNL     1       7.620   4.882  15.599  0.00  0.00    +0.000 OA
BRANCH  30  31
ATOM     31  C   UNL     1       7.297   4.711  14.270  0.00  0.00    +0.000 A 
ATOM     32  C   UNL     1       6.557   3.626  13.778  0.00  0.00    +0.000 A 
ATOM     33  C   UNL     1       6.340   3.483  12.407  0.00  0.00    +0.000 A 
ATOM     34  C   UNL     1       6.895   4.401  11.520  0.00  0.00    +0.000 A 
ATOM     35  C   UNL     1       7.630   5.475  12.014  0.00  0.00    +0.000 A 
ATOM     36  F   UNL     1       8.163   6.355  11.156  0.00  0.00    +0.000 F 
ATOM     37  C   UNL     1       7.832   5.642  13.380  0.00  0.00    +0.000 A 
ENDBRANCH  30  31
ENDBRANCH  27  30
ENDBRANCH   9  24
TORSDOF 6
ENDMDL
MODEL 9
REMARK VINA RESULT:      -9.0      5.535      7.777
REMARK  Name = 
REMARK  6 active torsions:
REMARK  status: ('A' for Active; 'I' for Inactive)
REMARK    1  A    between atoms: C_7  and  C_8
REMARK    2  A    between atoms: C_11  and  C_12
REMARK    3  A    between atoms: C_12  and  O_14
REMARK    4  A    between atoms: C_18  and  C_19
REMARK    5  A    between atoms: C_22  and  O_23
REMARK    6  A    between atoms: O_23  and  C_24
REMARK                            x       y       z     vdW  Elec       q    Type
REMARK                         _______ _______ _______ _____ _____    ______ ____
ROOT
ATOM      1  N   UNL     1       3.109  12.170  17.504  0.00  0.00    +0.000 N 
ATOM      2  C   UNL     1       2.251  12.980  18.133  0.00  0.00    +0.000 A 
ATOM      3  N   UNL     1       2.387  14.295  18.042  0.00  0.00    +0.000 NA
ATOM      4  N   UNL     1       1.383  14.789  18.757  0.00  0.00    +0.000 N 
ATOM      5  C   UNL     1       0.578  13.829  19.324  0.00  0.00    +0.000 A 
ATOM      6  C   UNL     1      -0.557  13.951  20.117  0.00  0.00    +0.000 A 
ATOM      7  C   UNL     1      -1.139  12.762  20.546  0.00  0.00    +0.000 A 
ATOM      8  N   UNL     1      -0.612  11.549  20.243  0.00  0.00    +0.000 NA
ATOM      9  C   UNL     1       0.524  11.433  19.478  0.00  0.00    +0.000 A 
ATOM     10  C   UNL     1       1.134  12.602  18.963  0.00  0.00    +0.000 A 
ATOM     11  H   UNL     1       3.820  12.602  16.922  0.00  0.00    +0.000 HD
ATOM     12  H   UNL     1       2.867  11.222  17.230  0.00  0.00    +0.000 HD
ATOM     13  H   UNL     1       1.284  15.787  18.824  0.00  0.00    +0.000 HD
ENDROOT
BRANCH   7  14
ATOM     14  C   UNL     1      -2.357  12.757  21.392  0.00  0.00    +0.000 A 
ATOM     15  C   UNL     1      -2.303  12.434  22.761  0.00  0.00    +0.000 A 
ATOM     16  C   UNL     1      -3.453  12.372  23.546  0.00  0.00    +0.000 A 
ATOM     17  C   UNL     1      -4.708  12.636  22.987  0.00  0.00    +0.000 A 
ATOM     18  C   UNL     1      -4.789  13.007  21.642  0.00  0.00    +0.000 A 
ATOM     19  C   UNL     1      -3.626  13.062  20.856  0.00  0.00    +0.000 A 
BRANCH  17  20
ATOM     20  C   UNL     1      -5.889  12.546  23.882  0.00  0.00    +0.000 C 
ATOM     21  O   UNL     1      -6.999  12.919  23.545  0.00  0.00    +0.000 OA
BRANCH  20  22
ATOM     22  O   UNL     1      -5.619  12.072  25.117  0.00  0.00    +0.000 OA
ATOM     23  H   UNL     1      -6.050  11.231  25.350  0.00  0.00    +0.000 HD
ENDBRANCH  20  22
ENDBRANCH  17  20
ENDBRANCH   7  14
BRANCH   9  24
ATOM     24  C   UNL     1       1.060  10.080  19.283  0.00  0.00    +0.000 A 
ATOM     25  C   UNL     1       1.478   9.616  18.016  0.00  0.00    +0.000 A 
ATOM     26  C   UNL     1       2.016   8.331  17.856  0.00  0.00    +0.000 A 
ATOM     27  C   UNL     1       2.192   7.499  18.967  0.00  0.00    +0.000 A 
ATOM     28  C   UNL     1       1.745   7.921  20.211  0.00  0.00    +0.000 A 
ATOM     29  C   UNL     1       1.143   9.167  20.342  0.00  0.00    +0.000 A 
BRANCH  27  30
ATOM     30  O   UNL     1       2.711   6.248  18.740  0.00  0.00    +0.000 OA
BRANCH  30  31
ATOM     31  C   UNL     1       2.215   5.169  19.439  0.00  0.00    +0.000 A 
ATOM     32  C   UNL     1       2.505   4.909  20.786  0.00  0.00    +0.000 A 
ATOM     33  C   UNL     1       2.027   3.751  21.401  0.00  0.00    +0.000 A 
ATOM     34  C   UNL     1       1.291   2.829  20.661  0.00  0.00    +0.000 A 
ATOM     35  C   UNL     1       1.008   3.092  19.324  0.00  0.00    +0.000 A 
ATOM     36  F   UNL     1       0.300   2.201  18.616  0.00  0.00    +0.000 F 
ATOM     37  C   UNL     1       1.457   4.255  18.707  0.00  0.00    +0.000 A 
ENDBRANCH  30  31
ENDBRANCH  27  30
ENDBRANCH   9  24
TORSDOF 6
ENDMDL
