MODEL 1
REMARK VINA RESULT:      -7.0      0.000      0.000
REMARK  Name = 
REMARK  7 active torsions:
REMARK  status: ('A' for Active; 'I' for Inactive)
REMARK    1  A    between atoms: C_1  and  C_2
REMARK    2  A    between atoms: C_2  and  C_3
REMARK    3  A    between atoms: C_5  and  C_6
REMARK    4  A    between atoms: C_10  and  C_11
REMARK    5  A    between atoms: C_13  and  C_14
REMARK    6  A    between atoms: N_19  and  C_20
REMARK    7  A    between atoms: C_21  and  C_23
REMARK                            x       y       z     vdW  Elec       q    Type
REMARK                         _______ _______ _______ _____ _____    ______ ____
ROOT
ATOM      1  C   UNL     1      -1.997  13.280  20.743  0.00  0.00    +0.000 A 
ATOM      2  C   UNL     1      -1.369  14.433  20.262  0.00  0.00    +0.000 A 
ATOM      3  C   UNL     1      -1.897  15.670  20.578  0.00  0.00    +0.000 A 
ATOM      4  N   UNL     1      -2.955  15.842  21.389  0.00  0.00    +0.000 NA
ATOM      5  C   UNL     1      -3.568  14.736  21.862  0.00  0.00    +0.000 A 
ATOM      6  N   UNL     1      -4.616  14.939  22.780  0.00  0.00    +0.000 N 
ATOM      7  C   UNL     1      -4.271  15.775  23.922  0.00  0.00    +0.000 C 
ATOM      8  C   UNL     1      -5.893  14.373  22.761  0.00  0.00    +0.000 C 
ATOM      9  O   UNL     1      -6.657  14.509  23.722  0.00  0.00    +0.000 OA
ATOM     10  C   UNL     1      -3.136  13.452  21.548  0.00  0.00    +0.000 A 
ENDROOT
BRANCH   8  11
ATOM     11  C   UNL     1      -6.424  13.599  21.592  0.00  0.00    +0.000 A 
ATOM     12  C   UNL     1      -6.871  14.347  20.489  0.00  0.00    +0.000 A 
ATOM     13  C   UNL     1      -7.403  13.719  19.360  0.00  0.00    +0.000 A 
ATOM     14  C   UNL     1      -7.507  12.332  19.325  0.00  0.00    +0.000 A 
ATOM     15  C   UNL     1      -7.030  11.574  20.391  0.00  0.00    +0.000 A 
ATOM     16  C   UNL     1      -6.457  12.202  21.503  0.00  0.00    +0.000 A 
ENDBRANCH   8  11
BRANCH   1  20
ATOM     17  C   UNL     1      -0.023   9.942  20.537  0.00  0.00    +0.000 A 
ATOM     18  N   UNL     1      -0.788   9.900  19.472  0.00  0.00    +0.000 NA
ATOM     19  C   UNL     1      -1.625  11.014  19.423  0.00  0.00    +0.000 A 
ATOM     20  C   UNL     1      -1.445  11.938  20.459  0.00  0.00    +0.000 A 
ATOM     21  S   UNL     1      -0.243  11.305  21.539  0.00  0.00    +0.000 S 
BRANCH  19  22
ATOM     22  C   UNL     1      -2.542  11.151  18.287  0.00  0.00    +0.000 A 
ATOM     23  C   UNL     1      -3.796  11.749  18.484  0.00  0.00    +0.000 A 
ATOM     24  C   UNL     1      -4.720  11.832  17.439  0.00  0.00    +0.000 A 
ATOM     25  C   UNL     1      -4.414  11.290  16.193  0.00  0.00    +0.000 A 
ATOM     26  C   UNL     1      -3.163  10.706  15.966  0.00  0.00    +0.000 A 
ATOM     27  C   UNL     1      -2.838  10.050  14.656  0.00  0.00    +0.000 C 
ATOM     28  C   UNL     1      -2.219  10.683  17.006  0.00  0.00    +0.000 A 
ENDBRANCH  19  22
BRANCH  17  30
ATOM     29  C   UNL     1       1.510   9.097  22.318  0.00  0.00    +0.000 C 
ATOM     30  C   UNL     1       0.993   8.906  20.901  0.00  0.00    +0.000 C 
ENDBRANCH  17  30
ENDBRANCH   1  20
TORSDOF 4
ENDMDL
MODEL 2
REMARK VINA RESULT:      -7.0      3.861      6.502
REMARK  Name = 
REMARK  7 active torsions:
REMARK  status: ('A' for Active; 'I' for Inactive)
REMARK    1  A    between atoms: C_1  and  C_2
REMARK    2  A    between atoms: C_2  and  C_3
REMARK    3  A    between atoms: C_5  and  C_6
REMARK    4  A    between atoms: C_10  and  C_11
REMARK    5  A    between atoms: C_13  and  C_14
REMARK    6  A    between atoms: N_19  and  C_20
REMARK    7  A    between atoms: C_21  and  C_23
REMARK                            x       y       z     vdW  Elec       q    Type
REMARK                         _______ _______ _______ _____ _____    ______ ____
ROOT
ATOM      1  C   UNL     1      -0.449  13.489  19.316  0.00  0.00    +0.000 A 
ATOM      2  C   UNL     1      -1.301  13.772  20.388  0.00  0.00    +0.000 A 
ATOM      3  C   UNL     1      -1.532  15.089  20.736  0.00  0.00    +0.000 A 
ATOM      4  N   UNL     1      -1.035  16.136  20.056  0.00  0.00    +0.000 NA
ATOM      5  C   UNL     1      -0.213  15.875  19.017  0.00  0.00    +0.000 A 
ATOM      6  N   UNL     1       0.224  16.982  18.264  0.00  0.00    +0.000 N 
ATOM      7  C   UNL     1      -0.844  17.845  17.777  0.00  0.00    +0.000 C 
ATOM      8  C   UNL     1       1.529  17.290  17.872  0.00  0.00    +0.000 C 
ATOM      9  O   UNL     1       1.746  18.205  17.071  0.00  0.00    +0.000 OA
ATOM     10  C   UNL     1       0.117  14.579  18.634  0.00  0.00    +0.000 A 
ENDROOT
BRANCH   8  11
ATOM     11  C   UNL     1       2.731  16.568  18.400  0.00  0.00    +0.000 A 
ATOM     12  C   UNL     1       3.438  15.764  17.489  0.00  0.00    +0.000 A 
ATOM     13  C   UNL     1       4.559  15.034  17.891  0.00  0.00    +0.000 A 
ATOM     14  C   UNL     1       4.981  15.088  19.215  0.00  0.00    +0.000 A 
ATOM     15  C   UNL     1       4.318  15.911  20.121  0.00  0.00    +0.000 A 
ATOM     16  C   UNL     1       3.221  16.677  19.708  0.00  0.00    +0.000 A 
ENDBRANCH   8  11
BRANCH   1  20
ATOM     17  C   UNL     1       0.946  10.012  18.293  0.00  0.00    +0.000 A 
ATOM     18  N   UNL     1      -0.305   9.958  17.898  0.00  0.00    +0.000 NA
ATOM     19  C   UNL     1      -0.983  11.124  18.251  0.00  0.00    +0.000 A 
ATOM     20  C   UNL     1      -0.202  12.095  18.887  0.00  0.00    +0.000 A 
ATOM     21  S   UNL     1       1.394  11.448  19.097  0.00  0.00    +0.000 S 
BRANCH  19  22
ATOM     22  C   UNL     1      -2.393  11.254  17.872  0.00  0.00    +0.000 A 
ATOM     23  C   UNL     1      -2.773  11.017  16.542  0.00  0.00    +0.000 A 
ATOM     24  C   UNL     1      -4.096  11.200  16.133  0.00  0.00    +0.000 A 
ATOM     25  C   UNL     1      -5.050  11.653  17.041  0.00  0.00    +0.000 A 
ATOM     26  C   UNL     1      -4.701  11.878  18.377  0.00  0.00    +0.000 A 
ATOM     27  C   UNL     1      -5.693  12.437  19.356  0.00  0.00    +0.000 C 
ATOM     28  C   UNL     1      -3.382  11.632  18.791  0.00  0.00    +0.000 A 
ENDBRANCH  19  22
BRANCH  17  30
ATOM     29  C   UNL     1       2.021   7.976  19.260  0.00  0.00    +0.000 C 
ATOM     30  C   UNL     1       1.957   8.931  18.078  0.00  0.00    +0.000 C 
ENDBRANCH  17  30
ENDBRANCH   1  20
TORSDOF 4
ENDMDL
MODEL 3
REMARK VINA RESULT:      -6.8      1.652      4.333
REMARK  Name = 
REMARK  7 active torsions:
REMARK  status: ('A' for Active; 'I' for Inactive)
REMARK    1  A    between atoms: C_1  and  C_2
REMARK    2  A    between atoms: C_2  and  C_3
REMARK    3  A    between atoms: C_5  and  C_6
REMARK    4  A    between atoms: C_10  and  C_11
REMARK    5  A    between atoms: C_13  and  C_14
REMARK    6  A    between atoms: N_19  and  C_20
REMARK    7  A    between atoms: C_21  and  C_23
REMARK                            x       y       z     vdW  Elec       q    Type
REMARK                         _______ _______ _______ _____ _____    ______ ____
ROOT
ATOM      1  C   UNL     1      -2.189  12.493  19.796  0.00  0.00    +0.000 A 
ATOM      2  C   UNL     1      -1.344  13.596  19.954  0.00  0.00    +0.000 A 
ATOM      3  C   UNL     1      -1.584  14.488  20.982  0.00  0.00    +0.000 A 
ATOM      4  N   UNL     1      -2.554  14.324  21.898  0.00  0.00    +0.000 NA
ATOM      5  C   UNL     1      -3.375  13.261  21.757  0.00  0.00    +0.000 A 
ATOM      6  N   UNL     1      -4.325  13.059  22.776  0.00  0.00    +0.000 N 
ATOM      7  C   UNL     1      -3.773  13.016  24.123  0.00  0.00    +0.000 C 
ATOM      8  C   UNL     1      -5.694  12.818  22.635  0.00  0.00    +0.000 C 
ATOM      9  O   UNL     1      -6.380  12.492  23.609  0.00  0.00    +0.000 OA
ATOM     10  C   UNL     1      -3.239  12.345  20.719  0.00  0.00    +0.000 A 
ENDROOT
BRANCH   8  11
ATOM     11  C   UNL     1      -6.415  12.957  21.329  0.00  0.00    +0.000 A 
ATOM     12  C   UNL     1      -6.756  11.766  20.663  0.00  0.00    +0.000 A 
ATOM     13  C   UNL     1      -7.411  11.791  19.430  0.00  0.00    +0.000 A 
ATOM     14  C   UNL     1      -7.723  13.011  18.837  0.00  0.00    +0.000 A 
ATOM     15  C   UNL     1      -7.430  14.199  19.502  0.00  0.00    +0.000 A 
ATOM     16  C   UNL     1      -6.814  14.172  20.758  0.00  0.00    +0.000 A 
ENDBRANCH   8  11
BRANCH   1  20
ATOM     17  C   UNL     1      -2.189  10.180  16.678  0.00  0.00    +0.000 A 
ATOM     18  N   UNL     1      -1.330   9.595  17.480  0.00  0.00    +0.000 NA
ATOM     19  C   UNL     1      -1.158  10.342  18.645  0.00  0.00    +0.000 A 
ATOM     20  C   UNL     1      -1.948  11.495  18.732  0.00  0.00    +0.000 A 
ATOM     21  S   UNL     1      -2.848  11.642  17.257  0.00  0.00    +0.000 S 
BRANCH  19  22
ATOM     22  C   UNL     1      -0.247   9.833  19.674  0.00  0.00    +0.000 A 
ATOM     23  C   UNL     1       0.894   9.114  19.287  0.00  0.00    +0.000 A 
ATOM     24  C   UNL     1       1.746   8.556  20.244  0.00  0.00    +0.000 A 
ATOM     25  C   UNL     1       1.449   8.682  21.599  0.00  0.00    +0.000 A 
ATOM     26  C   UNL     1       0.328   9.411  22.011  0.00  0.00    +0.000 A 
ATOM     27  C   UNL     1      -0.053   9.498  23.460  0.00  0.00    +0.000 C 
ATOM     28  C   UNL     1      -0.486  10.019  21.043  0.00  0.00    +0.000 A 
ENDBRANCH  19  22
BRANCH  17  30
ATOM     29  C   UNL     1      -3.730  10.477  14.735  0.00  0.00    +0.000 C 
ATOM     30  C   UNL     1      -2.607   9.650  15.342  0.00  0.00    +0.000 C 
ENDBRANCH  17  30
ENDBRANCH   1  20
TORSDOF 4
ENDMDL
MODEL 4
REMARK VINA RESULT:      -6.8      1.226      1.498
REMARK  Name = 
REMARK  7 active torsions:
REMARK  status: ('A' for Active; 'I' for Inactive)
REMARK    1  A    between atoms: C_1  and  C_2
REMARK    2  A    between atoms: C_2  and  C_3
REMARK    3  A    between atoms: C_5  and  C_6
REMARK    4  A    between atoms: C_10  and  C_11
REMARK    5  A    between atoms: C_13  and  C_14
REMARK    6  A    between atoms: N_19  and  C_20
REMARK    7  A    between atoms: C_21  and  C_23
REMARK                            x       y       z     vdW  Elec       q    Type
REMARK                         _______ _______ _______ _____ _____    ______ ____
ROOT
ATOM      1  C   UNL     1      -0.876  13.283  20.061  0.00  0.00    +0.000 A 
ATOM      2  C   UNL     1      -0.242  14.250  19.276  0.00  0.00    +0.000 A 
ATOM      3  C   UNL     1      -0.525  15.585  19.492  0.00  0.00    +0.000 A 
ATOM      4  N   UNL     1      -1.333  16.025  20.471  0.00  0.00    +0.000 NA
ATOM      5  C   UNL     1      -1.950  15.100  21.237  0.00  0.00    +0.000 A 
ATOM      6  N   UNL     1      -2.720  15.583  22.312  0.00  0.00    +0.000 N 
ATOM      7  C   UNL     1      -2.018  16.497  23.202  0.00  0.00    +0.000 C 
ATOM      8  C   UNL     1      -4.026  15.226  22.659  0.00  0.00    +0.000 C 
ATOM      9  O   UNL     1      -4.521  15.604  23.725  0.00  0.00    +0.000 OA
ATOM     10  C   UNL     1      -1.764  13.734  21.052  0.00  0.00    +0.000 A 
ENDROOT
BRANCH   8  11
ATOM     11  C   UNL     1      -4.907  14.399  21.771  0.00  0.00    +0.000 A 
ATOM     12  C   UNL     1      -5.451  15.040  20.644  0.00  0.00    +0.000 A 
ATOM     13  C   UNL     1      -6.301  14.360  19.769  0.00  0.00    +0.000 A 
ATOM     14  C   UNL     1      -6.630  13.031  20.016  0.00  0.00    +0.000 A 
ATOM     15  C   UNL     1      -6.067  12.369  21.104  0.00  0.00    +0.000 A 
ATOM     16  C   UNL     1      -5.180  13.038  21.956  0.00  0.00    +0.000 A 
ENDBRANCH   8  11
BRANCH   1  20
ATOM     17  C   UNL     1       0.551   9.672  20.017  0.00  0.00    +0.000 A 
ATOM     18  N   UNL     1      -0.400   9.625  19.114  0.00  0.00    +0.000 NA
ATOM     19  C   UNL     1      -1.072  10.845  19.044  0.00  0.00    +0.000 A 
ATOM     20  C   UNL     1      -0.575  11.845  19.888  0.00  0.00    +0.000 A 
ATOM     21  S   UNL     1       0.712  11.162  20.830  0.00  0.00    +0.000 S 
BRANCH  19  22
ATOM     22  C   UNL     1      -2.159  10.990  18.071  0.00  0.00    +0.000 A 
ATOM     23  C   UNL     1      -3.383  11.536  18.486  0.00  0.00    +0.000 A 
ATOM     24  C   UNL     1      -4.462  11.624  17.602  0.00  0.00    +0.000 A 
ATOM     25  C   UNL     1      -4.340  11.137  16.303  0.00  0.00    +0.000 A 
ATOM     26  C   UNL     1      -3.124  10.606  15.860  0.00  0.00    +0.000 A 
ATOM     27  C   UNL     1      -2.991  10.008  14.490  0.00  0.00    +0.000 C 
ATOM     28  C   UNL     1      -2.029  10.579  16.737  0.00  0.00    +0.000 A 
ENDBRANCH  19  22
BRANCH  17  30
ATOM     29  C   UNL     1       2.124   7.958  19.108  0.00  0.00    +0.000 C 
ATOM     30  C   UNL     1       1.468   8.537  20.352  0.00  0.00    +0.000 C 
ENDBRANCH  17  30
ENDBRANCH   1  20
TORSDOF 4
ENDMDL
MODEL 5
REMARK VINA RESULT:      -6.7      3.775      6.310
REMARK  Name = 
REMARK  7 active torsions:
REMARK  status: ('A' for Active; 'I' for Inactive)
REMARK    1  A    between atoms: C_1  and  C_2
REMARK    2  A    between atoms: C_2  and  C_3
REMARK    3  A    between atoms: C_5  and  C_6
REMARK    4  A    between atoms: C_10  and  C_11
REMARK    5  A    between atoms: C_13  and  C_14
REMARK    6  A    between atoms: N_19  and  C_20
REMARK    7  A    between atoms: C_21  and  C_23
REMARK                            x       y       z     vdW  Elec       q    Type
REMARK                         _______ _______ _______ _____ _____    ______ ____
ROOT
ATOM      1  C   UNL     1      -0.508  13.435  19.523  0.00  0.00    +0.000 A 
ATOM      2  C   UNL     1      -1.459  13.813  20.476  0.00  0.00    +0.000 A 
ATOM      3  C   UNL     1      -1.708  15.156  20.684  0.00  0.00    +0.000 A 
ATOM      4  N   UNL     1      -1.133  16.138  19.968  0.00  0.00    +0.000 NA
ATOM      5  C   UNL     1      -0.215  15.785  19.044  0.00  0.00    +0.000 A 
ATOM      6  N   UNL     1       0.308  16.820  18.246  0.00  0.00    +0.000 N 
ATOM      7  C   UNL     1      -0.695  17.641  17.581  0.00  0.00    +0.000 C 
ATOM      8  C   UNL     1       1.649  17.089  17.961  0.00  0.00    +0.000 C 
ATOM      9  O   UNL     1       1.957  17.929  17.110  0.00  0.00    +0.000 OA
ATOM     10  C   UNL     1       0.136  14.459  18.810  0.00  0.00    +0.000 A 
ENDROOT
BRANCH   8  11
ATOM     11  C   UNL     1       2.784  16.411  18.669  0.00  0.00    +0.000 A 
ATOM     12  C   UNL     1       3.015  16.790  20.003  0.00  0.00    +0.000 A 
ATOM     13  C   UNL     1       4.062  16.231  20.740  0.00  0.00    +0.000 A 
ATOM     14  C   UNL     1       4.901  15.293  20.147  0.00  0.00    +0.000 A 
ATOM     15  C   UNL     1       4.660  14.875  18.840  0.00  0.00    +0.000 A 
ATOM     16  C   UNL     1       3.585  15.403  18.117  0.00  0.00    +0.000 A 
ENDBRANCH   8  11
BRANCH   1  20
ATOM     17  C   UNL     1       0.916   9.854  19.048  0.00  0.00    +0.000 A 
ATOM     18  N   UNL     1      -0.214   9.813  18.383  0.00  0.00    +0.000 NA
ATOM     19  C   UNL     1      -0.899  11.022  18.503  0.00  0.00    +0.000 A 
ATOM     20  C   UNL     1      -0.237  12.008  19.243  0.00  0.00    +0.000 A 
ATOM     21  S   UNL     1       1.238  11.324  19.849  0.00  0.00    +0.000 S 
BRANCH  19  22
ATOM     22  C   UNL     1      -2.180  11.172  17.806  0.00  0.00    +0.000 A 
ATOM     23  C   UNL     1      -3.288  11.676  18.505  0.00  0.00    +0.000 A 
ATOM     24  C   UNL     1      -4.540  11.766  17.890  0.00  0.00    +0.000 A 
ATOM     25  C   UNL     1      -4.706  11.325  16.580  0.00  0.00    +0.000 A 
ATOM     26  C   UNL     1      -3.613  10.837  15.856  0.00  0.00    +0.000 A 
ATOM     27  C   UNL     1      -3.783  10.286  14.470  0.00  0.00    +0.000 C 
ATOM     28  C   UNL     1      -2.348  10.807  16.463  0.00  0.00    +0.000 A 
ENDBRANCH  19  22
BRANCH  17  30
ATOM     29  C   UNL     1       2.492   8.396  17.773  0.00  0.00    +0.000 C 
ATOM     30  C   UNL     1       1.898   8.728  19.133  0.00  0.00    +0.000 C 
ENDBRANCH  17  30
ENDBRANCH   1  20
TORSDOF 4
ENDMDL
MODEL 6
REMARK VINA RESULT:      -6.7      9.371     13.166
REMARK  Name = 
REMARK  7 active torsions:
REMARK  status: ('A' for Active; 'I' for Inactive)
REMARK    1  A    between atoms: C_1  and  C_2
REMARK    2  A    between atoms: C_2  and  C_3
REMARK    3  A    between atoms: C_5  and  C_6
REMARK    4  A    between atoms: C_10  and  C_11
REMARK    5  A    between atoms: C_13  and  C_14
REMARK    6  A    between atoms: N_19  and  C_20
REMARK    7  A    between atoms: C_21  and  C_23
REMARK                            x       y       z     vdW  Elec       q    Type
REMARK                         _______ _______ _______ _____ _____    ______ ____
ROOT
ATOM      1  C   UNL     1       7.293  15.833  19.701  0.00  0.00    +0.000 A 
ATOM      2  C   UNL     1       7.752  16.930  20.437  0.00  0.00    +0.000 A 
ATOM      3  C   UNL     1       9.060  17.347  20.281  0.00  0.00    +0.000 A 
ATOM      4  N   UNL     1       9.916  16.799  19.402  0.00  0.00    +0.000 NA
ATOM      5  C   UNL     1       9.483  15.740  18.684  0.00  0.00    +0.000 A 
ATOM      6  N   UNL     1      10.364  15.239  17.707  0.00  0.00    +0.000 N 
ATOM      7  C   UNL     1      10.863  16.235  16.768  0.00  0.00    +0.000 C 
ATOM      8  C   UNL     1      10.738  13.910  17.491  0.00  0.00    +0.000 C 
ATOM      9  O   UNL     1      11.390  13.593  16.490  0.00  0.00    +0.000 OA
ATOM     10  C   UNL     1       8.200  15.221  18.819  0.00  0.00    +0.000 A 
ENDROOT
BRANCH   8  11
ATOM     11  C   UNL     1      10.405  12.804  18.446  0.00  0.00    +0.000 A 
ATOM     12  C   UNL     1       9.616  11.753  17.948  0.00  0.00    +0.000 A 
ATOM     13  C   UNL     1       9.234  10.687  18.767  0.00  0.00    +0.000 A 
ATOM     14  C   UNL     1       9.627  10.665  20.102  0.00  0.00    +0.000 A 
ATOM     15  C   UNL     1      10.444  11.677  20.600  0.00  0.00    +0.000 A 
ATOM     16  C   UNL     1      10.862  12.721  19.768  0.00  0.00    +0.000 A 
ENDBRANCH   8  11
BRANCH   1  20
ATOM     17  C   UNL     1       3.505  15.057  19.347  0.00  0.00    +0.000 A 
ATOM     18  N   UNL     1       3.783  14.632  20.557  0.00  0.00    +0.000 NA
ATOM     19  C   UNL     1       5.142  14.779  20.831  0.00  0.00    +0.000 A 
ATOM     20  C   UNL     1       5.891  15.375  19.810  0.00  0.00    +0.000 A 
ATOM     21  S   UNL     1       4.833  15.662  18.465  0.00  0.00    +0.000 S 
BRANCH  19  22
ATOM     22  C   UNL     1       5.638  14.376  22.150  0.00  0.00    +0.000 A 
ATOM     23  C   UNL     1       5.061  14.933  23.301  0.00  0.00    +0.000 A 
ATOM     24  C   UNL     1       5.556  14.623  24.571  0.00  0.00    +0.000 A 
ATOM     25  C   UNL     1       6.654  13.777  24.702  0.00  0.00    +0.000 A 
ATOM     26  C   UNL     1       7.234  13.192  23.571  0.00  0.00    +0.000 A 
ATOM     27  C   UNL     1       8.463  12.337  23.682  0.00  0.00    +0.000 C 
ATOM     28  C   UNL     1       6.690  13.463  22.306  0.00  0.00    +0.000 A 
ENDBRANCH  19  22
BRANCH  17  30
ATOM     29  C   UNL     1       1.086  14.549  19.704  0.00  0.00    +0.000 C 
ATOM     30  C   UNL     1       2.142  15.045  18.729  0.00  0.00    +0.000 C 
ENDBRANCH  17  30
ENDBRANCH   1  20
TORSDOF 4
ENDMDL
MODEL 7
REMARK VINA RESULT:      -6.7      2.403      3.785
REMARK  Name = 
REMARK  7 active torsions:
REMARK  status: ('A' for Active; 'I' for Inactive)
REMARK    1  A    between atoms: C_1  and  C_2
REMARK    2  A    between atoms: C_2  and  C_3
REMARK    3  A    between atoms: C_5  and  C_6
REMARK    4  A    between atoms: C_10  and  C_11
REMARK    5  A    between atoms: C_13  and  C_14
REMARK    6  A    between atoms: N_19  and  C_20
REMARK    7  A    between atoms: C_21  and  C_23
REMARK                            x       y       z     vdW  Elec       q    Type
REMARK                         _______ _______ _______ _____ _____    ______ ____
ROOT
ATOM      1  C   UNL     1      -0.190  13.535  19.411  0.00  0.00    +0.000 A 
ATOM      2  C   UNL     1      -0.295  14.582  18.491  0.00  0.00    +0.000 A 
ATOM      3  C   UNL     1      -0.381  15.881  18.954  0.00  0.00    +0.000 A 
ATOM      4  N   UNL     1      -0.301  16.214  20.254  0.00  0.00    +0.000 NA
ATOM      5  C   UNL     1      -0.197  15.211  21.152  0.00  0.00    +0.000 A 
ATOM      6  N   UNL     1      -0.024  15.585  22.498  0.00  0.00    +0.000 N 
ATOM      7  C   UNL     1       1.078  16.507  22.736  0.00  0.00    +0.000 C 
ATOM      8  C   UNL     1      -0.721  15.115  23.614  0.00  0.00    +0.000 C 
ATOM      9  O   UNL     1      -0.352  15.407  24.756  0.00  0.00    +0.000 OA
ATOM     10  C   UNL     1      -0.160  13.872  20.775  0.00  0.00    +0.000 A 
ENDROOT
BRANCH   8  11
ATOM     11  C   UNL     1      -1.952  14.267  23.508  0.00  0.00    +0.000 A 
ATOM     12  C   UNL     1      -3.181  14.942  23.413  0.00  0.00    +0.000 A 
ATOM     13  C   UNL     1      -4.386  14.240  23.332  0.00  0.00    +0.000 A 
ATOM     14  C   UNL     1      -4.378  12.849  23.357  0.00  0.00    +0.000 A 
ATOM     15  C   UNL     1      -3.167  12.163  23.407  0.00  0.00    +0.000 A 
ATOM     16  C   UNL     1      -1.958  12.867  23.444  0.00  0.00    +0.000 A 
ENDBRANCH   8  11
BRANCH   1  20
ATOM     17  C   UNL     1       0.915  10.002  18.239  0.00  0.00    +0.000 A 
ATOM     18  N   UNL     1      -0.374  10.007  17.989  0.00  0.00    +0.000 NA
ATOM     19  C   UNL     1      -0.953  11.202  18.415  0.00  0.00    +0.000 A 
ATOM     20  C   UNL     1      -0.059  12.133  18.958  0.00  0.00    +0.000 A 
ATOM     21  S   UNL     1       1.518  11.411  18.985  0.00  0.00    +0.000 S 
BRANCH  19  22
ATOM     22  C   UNL     1      -2.389  11.399  18.200  0.00  0.00    +0.000 A 
ATOM     23  C   UNL     1      -2.942  11.104  16.944  0.00  0.00    +0.000 A 
ATOM     24  C   UNL     1      -4.294  11.347  16.684  0.00  0.00    +0.000 A 
ATOM     25  C   UNL     1      -5.101  11.917  17.666  0.00  0.00    +0.000 A 
ATOM     26  C   UNL     1      -4.577  12.202  18.932  0.00  0.00    +0.000 A 
ATOM     27  C   UNL     1      -5.407  12.884  19.980  0.00  0.00    +0.000 C 
ATOM     28  C   UNL     1      -3.234  11.898  19.201  0.00  0.00    +0.000 A 
ENDBRANCH  19  22
BRANCH  17  30
ATOM     29  C   UNL     1       2.083   7.975  19.113  0.00  0.00    +0.000 C 
ATOM     30  C   UNL     1       1.844   8.875  17.911  0.00  0.00    +0.000 C 
ENDBRANCH  17  30
ENDBRANCH   1  20
TORSDOF 4
ENDMDL
MODEL 8
REMARK VINA RESULT:      -6.6      3.774      6.460
REMARK  Name = 
REMARK  7 active torsions:
REMARK  status: ('A' for Active; 'I' for Inactive)
REMARK    1  A    between atoms: C_1  and  C_2
REMARK    2  A    between atoms: C_2  and  C_3
REMARK    3  A    between atoms: C_5  and  C_6
REMARK    4  A    between atoms: C_10  and  C_11
REMARK    5  A    between atoms: C_13  and  C_14
REMARK    6  A    between atoms: N_19  and  C_20
REMARK    7  A    between atoms: C_21  and  C_23
REMARK                            x       y       z     vdW  Elec       q    Type
REMARK                         _______ _______ _______ _____ _____    ______ ____
ROOT
ATOM      1  C   UNL     1      -0.674  13.735  19.582  0.00  0.00    +0.000 A 
ATOM      2  C   UNL     1      -1.574  14.174  20.558  0.00  0.00    +0.000 A 
ATOM      3  C   UNL     1      -1.767  15.531  20.737  0.00  0.00    +0.000 A 
ATOM      4  N   UNL     1      -1.185  16.471  19.973  0.00  0.00    +0.000 NA
ATOM      5  C   UNL     1      -0.315  16.059  19.026  0.00  0.00    +0.000 A 
ATOM      6  N   UNL     1       0.214  17.052  18.180  0.00  0.00    +0.000 N 
ATOM      7  C   UNL     1      -0.783  17.892  17.529  0.00  0.00    +0.000 C 
ATOM      8  C   UNL     1       1.552  17.264  17.838  0.00  0.00    +0.000 C 
ATOM      9  O   UNL     1       1.857  18.069  16.953  0.00  0.00    +0.000 OA
ATOM     10  C   UNL     1      -0.021  14.716  18.816  0.00  0.00    +0.000 A 
ENDROOT
BRANCH   8  11
ATOM     11  C   UNL     1       2.688  16.564  18.522  0.00  0.00    +0.000 A 
ATOM     12  C   UNL     1       2.966  16.952  19.845  0.00  0.00    +0.000 A 
ATOM     13  C   UNL     1       4.018  16.374  20.559  0.00  0.00    +0.000 A 
ATOM     14  C   UNL     1       4.815  15.407  19.955  0.00  0.00    +0.000 A 
ATOM     15  C   UNL     1       4.527  14.981  18.661  0.00  0.00    +0.000 A 
ATOM     16  C   UNL     1       3.446  15.529  17.962  0.00  0.00    +0.000 A 
ENDBRANCH   8  11
BRANCH   1  20
ATOM     17  C   UNL     1       0.619  10.109  19.079  0.00  0.00    +0.000 A 
ATOM     18  N   UNL     1      -0.593  10.063  18.579  0.00  0.00    +0.000 NA
ATOM     19  C   UNL     1      -1.238  11.289  18.738  0.00  0.00    +0.000 A 
ATOM     20  C   UNL     1      -0.464  12.293  19.333  0.00  0.00    +0.000 A 
ATOM     21  S   UNL     1       1.071  11.606  19.759  0.00  0.00    +0.000 S 
BRANCH  19  22
ATOM     22  C   UNL     1      -2.601  11.435  18.220  0.00  0.00    +0.000 A 
ATOM     23  C   UNL     1      -2.851  11.181  16.862  0.00  0.00    +0.000 A 
ATOM     24  C   UNL     1      -4.125  11.378  16.321  0.00  0.00    +0.000 A 
ATOM     25  C   UNL     1      -5.155  11.862  17.123  0.00  0.00    +0.000 A 
ATOM     26  C   UNL     1      -4.936  12.104  18.484  0.00  0.00    +0.000 A 
ATOM     27  C   UNL     1      -6.010  12.695  19.350  0.00  0.00    +0.000 C 
ATOM     28  C   UNL     1      -3.669  11.844  19.030  0.00  0.00    +0.000 A 
ENDBRANCH  19  22
BRANCH  17  30
ATOM     29  C   UNL     1       2.145   8.704  17.688  0.00  0.00    +0.000 C 
ATOM     30  C   UNL     1       1.588   8.968  19.078  0.00  0.00    +0.000 C 
ENDBRANCH  17  30
ENDBRANCH   1  20
TORSDOF 4
ENDMDL
MODEL 9
REMARK VINA RESULT:      -6.6      1.391      2.447
REMARK  Name = 
REMARK  7 active torsions:
REMARK  status: ('A' for Active; 'I' for Inactive)
REMARK    1  A    between atoms: C_1  and  C_2
REMARK    2  A    between atoms: C_2  and  C_3
REMARK    3  A    between atoms: C_5  and  C_6
REMARK    4  A    between atoms: C_10  and  C_11
REMARK    5  A    between atoms: C_13  and  C_14
REMARK    6  A    between atoms: N_19  and  C_20
REMARK    7  A    between atoms: C_21  and  C_23
REMARK                            x       y       z     vdW  Elec       q    Type
REMARK                         _______ _______ _______ _____ _____    ______ ____
ROOT
ATOM      1  C   UNL     1      -0.790  13.274  19.810  0.00  0.00    +0.000 A 
ATOM      2  C   UNL     1      -0.195  13.952  18.742  0.00  0.00    +0.000 A 
ATOM      3  C   UNL     1      -0.358  15.320  18.636  0.00  0.00    +0.000 A 
ATOM      4  N   UNL     1      -1.005  16.064  19.549  0.00  0.00    +0.000 NA
ATOM      5  C   UNL     1      -1.582  15.421  20.587  0.00  0.00    +0.000 A 
ATOM      6  N   UNL     1      -2.177  16.226  21.576  0.00  0.00    +0.000 N 
ATOM      7  C   UNL     1      -1.308  17.259  22.124  0.00  0.00    +0.000 C 
ATOM      8  C   UNL     1      -3.451  16.095  22.136  0.00  0.00    +0.000 C 
ATOM      9  O   UNL     1      -3.781  16.771  23.116  0.00  0.00    +0.000 OA
ATOM     10  C   UNL     1      -1.515  14.040  20.739  0.00  0.00    +0.000 A 
ENDROOT
BRANCH   8  11
ATOM     11  C   UNL     1      -4.490  15.165  21.587  0.00  0.00    +0.000 A 
ATOM     12  C   UNL     1      -4.700  13.965  22.288  0.00  0.00    +0.000 A 
ATOM     13  C   UNL     1      -5.632  13.024  21.844  0.00  0.00    +0.000 A 
ATOM     14  C   UNL     1      -6.359  13.265  20.683  0.00  0.00    +0.000 A 
ATOM     15  C   UNL     1      -6.194  14.468  20.000  0.00  0.00    +0.000 A 
ATOM     16  C   UNL     1      -5.293  15.429  20.470  0.00  0.00    +0.000 A 
ENDBRANCH   8  11
BRANCH   1  20
ATOM     17  C   UNL     1       0.283   9.650  20.696  0.00  0.00    +0.000 A 
ATOM     18  N   UNL     1      -0.573   9.474  19.718  0.00  0.00    +0.000 NA
ATOM     19  C   UNL     1      -1.116  10.693  19.314  0.00  0.00    +0.000 A 
ATOM     20  C   UNL     1      -0.612  11.816  19.980  0.00  0.00    +0.000 A 
ATOM     21  S   UNL     1       0.504  11.267  21.190  0.00  0.00    +0.000 S 
BRANCH  19  22
ATOM     22  C   UNL     1      -2.082  10.698  18.212  0.00  0.00    +0.000 A 
ATOM     23  C   UNL     1      -1.752  10.061  17.005  0.00  0.00    +0.000 A 
ATOM     24  C   UNL     1      -2.621  10.107  15.912  0.00  0.00    +0.000 A 
ATOM     25  C   UNL     1      -3.816  10.816  16.001  0.00  0.00    +0.000 A 
ATOM     26  C   UNL     1      -4.177  11.443  17.199  0.00  0.00    +0.000 A 
ATOM     27  C   UNL     1      -5.423  12.275  17.296  0.00  0.00    +0.000 C 
ATOM     28  C   UNL     1      -3.325  11.339  18.310  0.00  0.00    +0.000 A 
ENDBRANCH  19  22
BRANCH  17  30
ATOM     29  C   UNL     1       1.801   7.694  20.363  0.00  0.00    +0.000 C 
ATOM     30  C   UNL     1       1.050   8.554  21.368  0.00  0.00    +0.000 C 
ENDBRANCH  17  30
ENDBRANCH   1  20
TORSDOF 4
ENDMDL
