MODEL 1
REMARK VINA RESULT:      -6.9      0.000      0.000
REMARK  Name = 
REMARK  10 active torsions:
REMARK  status: ('A' for Active; 'I' for Inactive)
REMARK    1  A    between atoms: C_1  and  O_2
REMARK    2  A    between atoms: O_2  and  C_3
REMARK    3  A    between atoms: C_3  and  C_4
REMARK    4  A    between atoms: C_4  and  N_5
REMARK    5  A    between atoms: C_6  and  C_7
REMARK    6  A    between atoms: C_9  and  C_10
REMARK    7  A    between atoms: C_10  and  C_12
REMARK    8  A    between atoms: C_12  and  S_13
REMARK    9  A    between atoms: S_13  and  C_14
REMARK   10  A    between atoms: C_26  and  C_27
REMARK                            x       y       z     vdW  Elec       q    Type
REMARK                         _______ _______ _______ _____ _____    ______ ____
ROOT
ATOM      1  C   UNL     1       1.551   5.712  20.863  0.00  0.00    +0.000 C 
ENDROOT
BRANCH   1   2
ATOM      2  C   UNL     1       1.823   4.959  19.568  0.00  0.00    +0.000 C 
ATOM      3  O   UNL     1       1.081   3.988  19.362  0.00  0.00    +0.000 OA
BRANCH   2   8
ATOM      4  N   UNL     1       4.711   4.798  17.283  0.00  0.00    +0.000 N 
ATOM      5  C   UNL     1       4.308   6.088  17.024  0.00  0.00    +0.000 A 
ATOM      6  C   UNL     1       4.869   6.999  15.994  0.00  0.00    +0.000 C 
ATOM      7  C   UNL     1       3.254   6.360  17.872  0.00  0.00    +0.000 A 
ATOM      8  C   UNL     1       2.958   5.212  18.647  0.00  0.00    +0.000 A 
ATOM      9  C   UNL     1       4.025   4.331  18.394  0.00  0.00    +0.000 A 
ATOM     10  C   UNL     1       4.441   3.078  19.108  0.00  0.00    +0.000 C 
BRANCH   4  11
ATOM     11  C   UNL     1       5.716   4.042  16.543  0.00  0.00    +0.000 C 
BRANCH  11  12
ATOM     12  C   UNL     1       7.157   4.481  16.813  0.00  0.00    +0.000 C 
BRANCH  12  14
ATOM     13  C   UNL     1       6.963   4.589  14.457  0.00  0.00    +0.000 C 
ATOM     14  O   UNL     1       7.716   4.992  15.595  0.00  0.00    +0.000 OA
ENDBRANCH  12  14
ENDBRANCH  11  12
ENDBRANCH   4  11
ENDBRANCH   2   8
ENDBRANCH   1   2
BRANCH   1  15
ATOM     15  S   UNL     1       1.770   7.482  21.047  0.00  0.00    +0.000 S 
BRANCH  15  16
ATOM     16  C   UNL     1       0.410   8.564  20.456  0.00  0.00    +0.000 A 
ATOM     17  N   UNL     1      -0.384   8.660  21.574  0.00  0.00    +0.000 NA
ATOM     18  C   UNL     1      -0.016   9.636  22.420  0.00  0.00    +0.000 A 
ATOM     19  N   UNL     1       0.746  10.696  22.127  0.00  0.00    +0.000 NA
ATOM     20  C   UNL     1       0.841  10.840  20.785  0.00  0.00    +0.000 A 
ATOM     21  S   UNL     1       0.959  12.416  20.118  0.00  0.00    +0.000 S 
ATOM     22  C   UNL     1      -0.103  11.927  18.922  0.00  0.00    +0.000 A 
ATOM     23  C   UNL     1      -0.215  10.557  18.807  0.00  0.00    +0.000 A 
ATOM     24  C   UNL     1       0.564   9.840  19.834  0.00  0.00    +0.000 A 
ATOM     25  C   UNL     1      -1.319  10.271  17.819  0.00  0.00    +0.000 C 
ATOM     26  C   UNL     1      -2.164  11.597  17.884  0.00  0.00    +0.000 C 
ATOM     27  C   UNL     1      -1.124  12.719  18.176  0.00  0.00    +0.000 C 
ENDBRANCH  15  16
ENDBRANCH   1  15
TORSDOF 7
ENDMDL
MODEL 2
REMARK VINA RESULT:      -6.9      1.301      1.664
REMARK  Name = 
REMARK  10 active torsions:
REMARK  status: ('A' for Active; 'I' for Inactive)
REMARK    1  A    between atoms: C_1  and  O_2
REMARK    2  A    between atoms: O_2  and  C_3
REMARK    3  A    between atoms: C_3  and  C_4
REMARK    4  A    between atoms: C_4  and  N_5
REMARK    5  A    between atoms: C_6  and  C_7
REMARK    6  A    between atoms: C_9  and  C_10
REMARK    7  A    between atoms: C_10  and  C_12
REMARK    8  A    between atoms: C_12  and  S_13
REMARK    9  A    between atoms: S_13  and  C_14
REMARK   10  A    between atoms: C_26  and  C_27
REMARK                            x       y       z     vdW  Elec       q    Type
REMARK                         _______ _______ _______ _____ _____    ______ ____
ROOT
ATOM      1  C   UNL     1       2.311   6.637  19.737  0.00  0.00    +0.000 C 
ENDROOT
BRANCH   1   2
ATOM      2  C   UNL     1       3.039   5.304  19.837  0.00  0.00    +0.000 C 
ATOM      3  O   UNL     1       2.684   4.583  20.781  0.00  0.00    +0.000 OA
BRANCH   2   8
ATOM      4  N   UNL     1       5.375   4.268  17.180  0.00  0.00    +0.000 N 
ATOM      5  C   UNL     1       6.293   4.655  18.129  0.00  0.00    +0.000 A 
ATOM      6  C   UNL     1       7.766   4.724  17.958  0.00  0.00    +0.000 C 
ATOM      7  C   UNL     1       5.582   5.011  19.258  0.00  0.00    +0.000 A 
ATOM      8  C   UNL     1       4.193   4.888  19.004  0.00  0.00    +0.000 A 
ATOM      9  C   UNL     1       4.119   4.224  17.766  0.00  0.00    +0.000 A 
ATOM     10  C   UNL     1       2.956   3.562  17.087  0.00  0.00    +0.000 C 
BRANCH   4  11
ATOM     11  C   UNL     1       5.662   3.925  15.791  0.00  0.00    +0.000 C 
BRANCH  11  12
ATOM     12  C   UNL     1       5.901   5.132  14.882  0.00  0.00    +0.000 C 
BRANCH  12  14
ATOM     13  C   UNL     1       6.184   3.609  13.094  0.00  0.00    +0.000 C 
ATOM     14  O   UNL     1       6.732   4.724  13.787  0.00  0.00    +0.000 OA
ENDBRANCH  12  14
ENDBRANCH  11  12
ENDBRANCH   4  11
ENDBRANCH   2   8
ENDBRANCH   1   2
BRANCH   1  15
ATOM     15  S   UNL     1       1.515   7.441  21.129  0.00  0.00    +0.000 S 
BRANCH  15  16
ATOM     16  C   UNL     1       0.096   8.546  20.763  0.00  0.00    +0.000 A 
ATOM     17  N   UNL     1      -0.646   8.448  21.917  0.00  0.00    +0.000 NA
ATOM     18  C   UNL     1      -0.268   9.302  22.881  0.00  0.00    +0.000 A 
ATOM     19  N   UNL     1       0.447  10.422  22.715  0.00  0.00    +0.000 NA
ATOM     20  C   UNL     1       0.473  10.763  21.407  0.00  0.00    +0.000 A 
ATOM     21  S   UNL     1       0.511  12.424  20.976  0.00  0.00    +0.000 S 
ATOM     22  C   UNL     1      -0.593  12.076  19.767  0.00  0.00    +0.000 A 
ATOM     23  C   UNL     1      -0.669  10.734  19.456  0.00  0.00    +0.000 A 
ATOM     24  C   UNL     1       0.181   9.904  20.331  0.00  0.00    +0.000 A 
ATOM     25  C   UNL     1      -1.810  10.555  18.485  0.00  0.00    +0.000 C 
ATOM     26  C   UNL     1      -2.690  11.825  18.781  0.00  0.00    +0.000 C 
ATOM     27  C   UNL     1      -1.672  12.930  19.191  0.00  0.00    +0.000 C 
ENDBRANCH  15  16
ENDBRANCH   1  15
TORSDOF 7
ENDMDL
MODEL 3
REMARK VINA RESULT:      -6.7      5.956      8.028
REMARK  Name = 
REMARK  10 active torsions:
REMARK  status: ('A' for Active; 'I' for Inactive)
REMARK    1  A    between atoms: C_1  and  O_2
REMARK    2  A    between atoms: O_2  and  C_3
REMARK    3  A    between atoms: C_3  and  C_4
REMARK    4  A    between atoms: C_4  and  N_5
REMARK    5  A    between atoms: C_6  and  C_7
REMARK    6  A    between atoms: C_9  and  C_10
REMARK    7  A    between atoms: C_10  and  C_12
REMARK    8  A    between atoms: C_12  and  S_13
REMARK    9  A    between atoms: S_13  and  C_14
REMARK   10  A    between atoms: C_26  and  C_27
REMARK                            x       y       z     vdW  Elec       q    Type
REMARK                         _______ _______ _______ _____ _____    ______ ____
ROOT
ATOM      1  C   UNL     1       7.120   8.366  17.601  0.00  0.00    +0.000 C 
ENDROOT
BRANCH   1   2
ATOM      2  C   UNL     1       6.939   6.886  17.293  0.00  0.00    +0.000 C 
ATOM      3  O   UNL     1       7.629   6.459  16.355  0.00  0.00    +0.000 OA
BRANCH   2   8
ATOM      4  N   UNL     1       3.938   5.018  18.339  0.00  0.00    +0.000 N 
ATOM      5  C   UNL     1       4.898   4.204  18.894  0.00  0.00    +0.000 A 
ATOM      6  C   UNL     1       4.670   2.902  19.569  0.00  0.00    +0.000 C 
ATOM      7  C   UNL     1       6.120   4.804  18.664  0.00  0.00    +0.000 A 
ATOM      8  C   UNL     1       5.933   5.993  17.916  0.00  0.00    +0.000 A 
ATOM      9  C   UNL     1       4.540   6.194  17.916  0.00  0.00    +0.000 A 
ATOM     10  C   UNL     1       3.733   7.401  17.538  0.00  0.00    +0.000 C 
BRANCH   4  11
ATOM     11  C   UNL     1       2.512   4.725  18.233  0.00  0.00    +0.000 C 
BRANCH  11  12
ATOM     12  C   UNL     1       1.749   4.837  19.555  0.00  0.00    +0.000 C 
BRANCH  12  14
ATOM     13  C   UNL     1       1.301   3.078  21.072  0.00  0.00    +0.000 C 
ATOM     14  O   UNL     1       1.040   3.611  19.780  0.00  0.00    +0.000 OA
ENDBRANCH  12  14
ENDBRANCH  11  12
ENDBRANCH   4  11
ENDBRANCH   2   8
ENDBRANCH   1   2
BRANCH   1  15
ATOM     15  S   UNL     1       8.653   9.073  18.206  0.00  0.00    +0.000 S 
BRANCH  15  16
ATOM     16  C   UNL     1       8.629  10.844  18.688  0.00  0.00    +0.000 A 
ATOM     17  N   UNL     1       9.153  10.801  19.959  0.00  0.00    +0.000 NA
ATOM     18  C   UNL     1      10.495  10.840  19.996  0.00  0.00    +0.000 A 
ATOM     19  N   UNL     1      11.304  11.276  19.023  0.00  0.00    +0.000 NA
ATOM     20  C   UNL     1      10.594  11.977  18.111  0.00  0.00    +0.000 A 
ATOM     21  S   UNL     1      11.336  13.299  17.308  0.00  0.00    +0.000 S 
ATOM     22  C   UNL     1       9.905  14.145  17.501  0.00  0.00    +0.000 A 
ATOM     23  C   UNL     1       8.821  13.340  17.786  0.00  0.00    +0.000 A 
ATOM     24  C   UNL     1       9.197  11.923  17.945  0.00  0.00    +0.000 A 
ATOM     25  C   UNL     1       7.652  14.243  18.097  0.00  0.00    +0.000 C 
ATOM     26  C   UNL     1       8.375  15.572  18.530  0.00  0.00    +0.000 C 
ATOM     27  C   UNL     1       9.682  15.608  17.684  0.00  0.00    +0.000 C 
ENDBRANCH  15  16
ENDBRANCH   1  15
TORSDOF 7
ENDMDL
MODEL 4
REMARK VINA RESULT:      -6.7      2.065      2.842
REMARK  Name = 
REMARK  10 active torsions:
REMARK  status: ('A' for Active; 'I' for Inactive)
REMARK    1  A    between atoms: C_1  and  O_2
REMARK    2  A    between atoms: O_2  and  C_3
REMARK    3  A    between atoms: C_3  and  C_4
REMARK    4  A    between atoms: C_4  and  N_5
REMARK    5  A    between atoms: C_6  and  C_7
REMARK    6  A    between atoms: C_9  and  C_10
REMARK    7  A    between atoms: C_10  and  C_12
REMARK    8  A    between atoms: C_12  and  S_13
REMARK    9  A    between atoms: S_13  and  C_14
REMARK   10  A    between atoms: C_26  and  C_27
REMARK                            x       y       z     vdW  Elec       q    Type
REMARK                         _______ _______ _______ _____ _____    ______ ____
ROOT
ATOM      1  C   UNL     1       1.535   8.649  17.937  0.00  0.00    +0.000 C 
ENDROOT
BRANCH   1   2
ATOM      2  C   UNL     1       2.105   7.497  18.753  0.00  0.00    +0.000 C 
ATOM      3  O   UNL     1       2.245   7.731  19.962  0.00  0.00    +0.000 OA
BRANCH   2   8
ATOM      4  N   UNL     1       4.079   4.615  17.574  0.00  0.00    +0.000 N 
ATOM      5  C   UNL     1       2.838   4.020  17.615  0.00  0.00    +0.000 A 
ATOM      6  C   UNL     1       2.538   2.586  17.370  0.00  0.00    +0.000 C 
ATOM      7  C   UNL     1       1.932   4.997  17.970  0.00  0.00    +0.000 A 
ATOM      8  C   UNL     1       2.614   6.218  18.200  0.00  0.00    +0.000 A 
ATOM      9  C   UNL     1       3.922   5.983  17.738  0.00  0.00    +0.000 A 
ATOM     10  C   UNL     1       5.039   6.944  17.453  0.00  0.00    +0.000 C 
BRANCH   4  11
ATOM     11  C   UNL     1       5.354   3.939  17.361  0.00  0.00    +0.000 C 
BRANCH  11  12
ATOM     12  C   UNL     1       5.933   4.121  15.956  0.00  0.00    +0.000 C 
BRANCH  12  14
ATOM     13  C   UNL     1       7.736   4.559  17.424  0.00  0.00    +0.000 C 
ATOM     14  O   UNL     1       7.289   4.572  16.074  0.00  0.00    +0.000 OA
ENDBRANCH  12  14
ENDBRANCH  11  12
ENDBRANCH   4  11
ENDBRANCH   2   8
ENDBRANCH   1   2
BRANCH   1  15
ATOM     15  S   UNL     1       1.277  10.298  18.594  0.00  0.00    +0.000 S 
BRANCH  15  16
ATOM     16  C   UNL     1      -0.335  10.638  19.403  0.00  0.00    +0.000 A 
ATOM     17  N   UNL     1      -0.363   9.683  20.393  0.00  0.00    +0.000 NA
ATOM     18  C   UNL     1       0.251  10.056  21.527  0.00  0.00    +0.000 A 
ATOM     19  N   UNL     1       0.529  11.310  21.904  0.00  0.00    +0.000 NA
ATOM     20  C   UNL     1      -0.173  12.186  21.150  0.00  0.00    +0.000 A 
ATOM     21  S   UNL     1      -0.712  13.654  21.856  0.00  0.00    +0.000 S 
ATOM     22  C   UNL     1      -2.167  13.437  21.057  0.00  0.00    +0.000 A 
ATOM     23  C   UNL     1      -2.097  12.535  20.016  0.00  0.00    +0.000 A 
ATOM     24  C   UNL     1      -0.770  11.901  19.908  0.00  0.00    +0.000 A 
ATOM     25  C   UNL     1      -3.501  12.318  19.507  0.00  0.00    +0.000 C 
ATOM     26  C   UNL     1      -4.366  12.726  20.756  0.00  0.00    +0.000 C 
ATOM     27  C   UNL     1      -3.543  13.844  21.463  0.00  0.00    +0.000 C 
ENDBRANCH  15  16
ENDBRANCH   1  15
TORSDOF 7
ENDMDL
MODEL 5
REMARK VINA RESULT:      -6.7      2.829      8.686
REMARK  Name = 
REMARK  10 active torsions:
REMARK  status: ('A' for Active; 'I' for Inactive)
REMARK    1  A    between atoms: C_1  and  O_2
REMARK    2  A    between atoms: O_2  and  C_3
REMARK    3  A    between atoms: C_3  and  C_4
REMARK    4  A    between atoms: C_4  and  N_5
REMARK    5  A    between atoms: C_6  and  C_7
REMARK    6  A    between atoms: C_9  and  C_10
REMARK    7  A    between atoms: C_10  and  C_12
REMARK    8  A    between atoms: C_12  and  S_13
REMARK    9  A    between atoms: S_13  and  C_14
REMARK   10  A    between atoms: C_26  and  C_27
REMARK                            x       y       z     vdW  Elec       q    Type
REMARK                         _______ _______ _______ _____ _____    ______ ____
ROOT
ATOM      1  C   UNL     1       1.489   5.924  21.031  0.00  0.00    +0.000 C 
ENDROOT
BRANCH   1   2
ATOM      2  C   UNL     1       1.723   7.247  20.317  0.00  0.00    +0.000 C 
ATOM      3  O   UNL     1       2.602   7.222  19.443  0.00  0.00    +0.000 OA
BRANCH   2   8
ATOM      4  N   UNL     1       0.035  10.523  20.434  0.00  0.00    +0.000 N 
ATOM      5  C   UNL     1      -0.044  10.196  21.769  0.00  0.00    +0.000 A 
ATOM      6  C   UNL     1      -0.755  10.959  22.825  0.00  0.00    +0.000 C 
ATOM      7  C   UNL     1       0.626   9.001  21.933  0.00  0.00    +0.000 A 
ATOM      8  C   UNL     1       1.098   8.543  20.678  0.00  0.00    +0.000 A 
ATOM      9  C   UNL     1       0.886   9.627  19.806  0.00  0.00    +0.000 A 
ATOM     10  C   UNL     1       1.412   9.878  18.423  0.00  0.00    +0.000 C 
BRANCH   4  11
ATOM     11  C   UNL     1      -0.634  11.642  19.778  0.00  0.00    +0.000 C 
BRANCH  11  12
ATOM     12  C   UNL     1      -1.883  11.250  18.987  0.00  0.00    +0.000 C 
BRANCH  12  14
ATOM     13  C   UNL     1      -2.978  12.769  20.433  0.00  0.00    +0.000 C 
ATOM     14  O   UNL     1      -2.844  12.308  19.094  0.00  0.00    +0.000 OA
ENDBRANCH  12  14
ENDBRANCH  11  12
ENDBRANCH   4  11
ENDBRANCH   2   8
ENDBRANCH   1   2
BRANCH   1  15
ATOM     15  S   UNL     1       1.921   4.329  20.333  0.00  0.00    +0.000 S 
BRANCH  15  16
ATOM     16  C   UNL     1       3.673   4.070  19.849  0.00  0.00    +0.000 A 
ATOM     17  N   UNL     1       3.828   2.720  20.053  0.00  0.00    +0.000 NA
ATOM     18  C   UNL     1       3.459   1.965  19.005  0.00  0.00    +0.000 A 
ATOM     19  N   UNL     1       3.331   2.374  17.737  0.00  0.00    +0.000 NA
ATOM     20  C   UNL     1       3.931   3.575  17.577  0.00  0.00    +0.000 A 
ATOM     21  S   UNL     1       4.678   3.944  16.077  0.00  0.00    +0.000 S 
ATOM     22  C   UNL     1       5.943   4.620  16.938  0.00  0.00    +0.000 A 
ATOM     23  C   UNL     1       5.628   4.909  18.250  0.00  0.00    +0.000 A 
ATOM     24  C   UNL     1       4.268   4.466  18.613  0.00  0.00    +0.000 A 
ATOM     25  C   UNL     1       6.898   5.348  18.938  0.00  0.00    +0.000 C 
ATOM     26  C   UNL     1       8.002   4.693  18.029  0.00  0.00    +0.000 C 
ATOM     27  C   UNL     1       7.393   4.696  16.596  0.00  0.00    +0.000 C 
ENDBRANCH  15  16
ENDBRANCH   1  15
TORSDOF 7
ENDMDL
MODEL 6
REMARK VINA RESULT:      -6.6      6.462      8.233
REMARK  Name = 
REMARK  10 active torsions:
REMARK  status: ('A' for Active; 'I' for Inactive)
REMARK    1  A    between atoms: C_1  and  O_2
REMARK    2  A    between atoms: O_2  and  C_3
REMARK    3  A    between atoms: C_3  and  C_4
REMARK    4  A    between atoms: C_4  and  N_5
REMARK    5  A    between atoms: C_6  and  C_7
REMARK    6  A    between atoms: C_9  and  C_10
REMARK    7  A    between atoms: C_10  and  C_12
REMARK    8  A    between atoms: C_12  and  S_13
REMARK    9  A    between atoms: S_13  and  C_14
REMARK   10  A    between atoms: C_26  and  C_27
REMARK                            x       y       z     vdW  Elec       q    Type
REMARK                         _______ _______ _______ _____ _____    ______ ____
ROOT
ATOM      1  C   UNL     1       7.418   9.033  17.750  0.00  0.00    +0.000 C 
ENDROOT
BRANCH   1   2
ATOM      2  C   UNL     1       7.194   7.610  17.260  0.00  0.00    +0.000 C 
ATOM      3  O   UNL     1       8.071   7.173  16.500  0.00  0.00    +0.000 OA
BRANCH   2   8
ATOM      4  N   UNL     1       4.678   5.093  18.224  0.00  0.00    +0.000 N 
ATOM      5  C   UNL     1       3.832   6.141  17.943  0.00  0.00    +0.000 A 
ATOM      6  C   UNL     1       2.362   6.170  18.148  0.00  0.00    +0.000 C 
ATOM      7  C   UNL     1       4.614   7.179  17.477  0.00  0.00    +0.000 A 
ATOM      8  C   UNL     1       5.978   6.796  17.504  0.00  0.00    +0.000 A 
ATOM      9  C   UNL     1       5.951   5.417  17.779  0.00  0.00    +0.000 A 
ATOM     10  C   UNL     1       7.034   4.383  17.669  0.00  0.00    +0.000 C 
BRANCH   4  11
ATOM     11  C   UNL     1       4.308   3.829  18.853  0.00  0.00    +0.000 C 
BRANCH  11  12
ATOM     12  C   UNL     1       3.906   2.731  17.866  0.00  0.00    +0.000 C 
BRANCH  12  14
ATOM     13  C   UNL     1       1.701   2.290  18.600  0.00  0.00    +0.000 C 
ATOM     14  O   UNL     1       2.508   2.863  17.579  0.00  0.00    +0.000 OA
ENDBRANCH  12  14
ENDBRANCH  11  12
ENDBRANCH   4  11
ENDBRANCH   2   8
ENDBRANCH   1   2
BRANCH   1  15
ATOM     15  S   UNL     1       8.932   9.584  18.538  0.00  0.00    +0.000 S 
BRANCH  15  16
ATOM     16  C   UNL     1       9.117  11.386  18.837  0.00  0.00    +0.000 A 
ATOM     17  N   UNL     1       9.694  11.410  20.084  0.00  0.00    +0.000 NA
ATOM     18  C   UNL     1      11.033  11.307  20.067  0.00  0.00    +0.000 A 
ATOM     19  N   UNL     1      11.835  11.555  19.024  0.00  0.00    +0.000 NA
ATOM     20  C   UNL     1      11.158  12.237  18.072  0.00  0.00    +0.000 A 
ATOM     21  S   UNL     1      11.994  13.387  17.112  0.00  0.00    +0.000 S 
ATOM     22  C   UNL     1      10.670  14.397  17.271  0.00  0.00    +0.000 A 
ATOM     23  C   UNL     1       9.523  13.747  17.678  0.00  0.00    +0.000 A 
ATOM     24  C   UNL     1       9.757  12.319  17.966  0.00  0.00    +0.000 A 
ATOM     25  C   UNL     1       8.471  14.798  17.939  0.00  0.00    +0.000 C 
ATOM     26  C   UNL     1       9.349  16.076  18.206  0.00  0.00    +0.000 C 
ATOM     27  C   UNL     1      10.611  15.887  17.312  0.00  0.00    +0.000 C 
ENDBRANCH  15  16
ENDBRANCH   1  15
TORSDOF 7
ENDMDL
MODEL 7
REMARK VINA RESULT:      -6.5      2.495      3.992
REMARK  Name = 
REMARK  10 active torsions:
REMARK  status: ('A' for Active; 'I' for Inactive)
REMARK    1  A    between atoms: C_1  and  O_2
REMARK    2  A    between atoms: O_2  and  C_3
REMARK    3  A    between atoms: C_3  and  C_4
REMARK    4  A    between atoms: C_4  and  N_5
REMARK    5  A    between atoms: C_6  and  C_7
REMARK    6  A    between atoms: C_9  and  C_10
REMARK    7  A    between atoms: C_10  and  C_12
REMARK    8  A    between atoms: C_12  and  S_13
REMARK    9  A    between atoms: S_13  and  C_14
REMARK   10  A    between atoms: C_26  and  C_27
REMARK                            x       y       z     vdW  Elec       q    Type
REMARK                         _______ _______ _______ _____ _____    ______ ____
ROOT
ATOM      1  C   UNL     1       0.842   9.704  18.256  0.00  0.00    +0.000 C 
ENDROOT
BRANCH   1   2
ATOM      2  C   UNL     1       1.516   8.671  19.147  0.00  0.00    +0.000 C 
ATOM      3  O   UNL     1       1.348   8.839  20.364  0.00  0.00    +0.000 OA
BRANCH   2   8
ATOM      4  N   UNL     1       3.271   5.536  18.315  0.00  0.00    +0.000 N 
ATOM      5  C   UNL     1       3.949   6.388  17.474  0.00  0.00    +0.000 A 
ATOM      6  C   UNL     1       4.972   6.008  16.467  0.00  0.00    +0.000 C 
ATOM      7  C   UNL     1       3.467   7.660  17.711  0.00  0.00    +0.000 A 
ATOM      8  C   UNL     1       2.439   7.605  18.685  0.00  0.00    +0.000 A 
ATOM      9  C   UNL     1       2.496   6.291  19.183  0.00  0.00    +0.000 A 
ATOM     10  C   UNL     1       1.867   5.687  20.405  0.00  0.00    +0.000 C 
BRANCH   4  11
ATOM     11  C   UNL     1       3.364   4.080  18.329  0.00  0.00    +0.000 C 
BRANCH  11  12
ATOM     12  C   UNL     1       2.539   3.388  17.242  0.00  0.00    +0.000 C 
BRANCH  12  14
ATOM     13  C   UNL     1       2.138   2.098  19.184  0.00  0.00    +0.000 C 
ATOM     14  O   UNL     1       1.714   2.391  17.858  0.00  0.00    +0.000 OA
ENDBRANCH  12  14
ENDBRANCH  11  12
ENDBRANCH   4  11
ENDBRANCH   2   8
ENDBRANCH   1   2
BRANCH   1  15
ATOM     15  S   UNL     1      -0.730  10.475  18.644  0.00  0.00    +0.000 S 
BRANCH  15  16
ATOM     16  C   UNL     1      -0.690  12.211  19.241  0.00  0.00    +0.000 A 
ATOM     17  N   UNL     1      -1.233  12.092  20.498  0.00  0.00    +0.000 NA
ATOM     18  C   UNL     1      -0.339  11.777  21.450  0.00  0.00    +0.000 A 
ATOM     19  N   UNL     1       0.988  11.935  21.376  0.00  0.00    +0.000 NA
ATOM     20  C   UNL     1       1.299  12.754  20.346  0.00  0.00    +0.000 A 
ATOM     21  S   UNL     1       2.658  13.793  20.483  0.00  0.00    +0.000 S 
ATOM     22  C   UNL     1       1.738  14.995  19.769  0.00  0.00    +0.000 A 
ATOM     23  C   UNL     1       0.624  14.521  19.108  0.00  0.00    +0.000 A 
ATOM     24  C   UNL     1       0.455  13.064  19.263  0.00  0.00    +0.000 A 
ATOM     25  C   UNL     1      -0.187  15.715  18.667  0.00  0.00    +0.000 C 
ATOM     26  C   UNL     1       0.296  16.824  19.672  0.00  0.00    +0.000 C 
ATOM     27  C   UNL     1       1.784  16.472  19.970  0.00  0.00    +0.000 C 
ENDBRANCH  15  16
ENDBRANCH   1  15
TORSDOF 7
ENDMDL
MODEL 8
REMARK VINA RESULT:      -6.5      3.635      9.442
REMARK  Name = 
REMARK  10 active torsions:
REMARK  status: ('A' for Active; 'I' for Inactive)
REMARK    1  A    between atoms: C_1  and  O_2
REMARK    2  A    between atoms: O_2  and  C_3
REMARK    3  A    between atoms: C_3  and  C_4
REMARK    4  A    between atoms: C_4  and  N_5
REMARK    5  A    between atoms: C_6  and  C_7
REMARK    6  A    between atoms: C_9  and  C_10
REMARK    7  A    between atoms: C_10  and  C_12
REMARK    8  A    between atoms: C_12  and  S_13
REMARK    9  A    between atoms: S_13  and  C_14
REMARK   10  A    between atoms: C_26  and  C_27
REMARK                            x       y       z     vdW  Elec       q    Type
REMARK                         _______ _______ _______ _____ _____    ______ ____
ROOT
ATOM      1  C   UNL     1       1.009   9.249  18.945  0.00  0.00    +0.000 C 
ENDROOT
BRANCH   1   2
ATOM      2  C   UNL     1       0.595  10.698  18.732  0.00  0.00    +0.000 C 
ATOM      3  O   UNL     1       1.533  11.492  18.571  0.00  0.00    +0.000 OA
BRANCH   2   8
ATOM      4  N   UNL     1      -3.035  11.336  18.627  0.00  0.00    +0.000 N 
ATOM      5  C   UNL     1      -2.686  12.258  19.586  0.00  0.00    +0.000 A 
ATOM      6  C   UNL     1      -3.614  13.104  20.378  0.00  0.00    +0.000 C 
ATOM      7  C   UNL     1      -1.312  12.217  19.706  0.00  0.00    +0.000 A 
ATOM      8  C   UNL     1      -0.788  11.224  18.841  0.00  0.00    +0.000 A 
ATOM      9  C   UNL     1      -1.879  10.846  18.037  0.00  0.00    +0.000 A 
ATOM     10  C   UNL     1      -1.920  10.050  16.766  0.00  0.00    +0.000 C 
BRANCH   4  11
ATOM     11  C   UNL     1      -4.392  10.948  18.254  0.00  0.00    +0.000 C 
BRANCH  11  12
ATOM     12  C   UNL     1      -5.045  11.867  17.219  0.00  0.00    +0.000 C 
BRANCH  12  14
ATOM     13  C   UNL     1      -6.912  13.295  16.948  0.00  0.00    +0.000 C 
ATOM     14  O   UNL     1      -6.039  12.664  17.877  0.00  0.00    +0.000 OA
ENDBRANCH  12  14
ENDBRANCH  11  12
ENDBRANCH   4  11
ENDBRANCH   2   8
ENDBRANCH   1   2
BRANCH   1  15
ATOM     15  S   UNL     1       1.902   8.282  17.727  0.00  0.00    +0.000 S 
BRANCH  15  16
ATOM     16  C   UNL     1       3.428   7.429  18.286  0.00  0.00    +0.000 A 
ATOM     17  N   UNL     1       2.999   6.796  19.428  0.00  0.00    +0.000 NA
ATOM     18  C   UNL     1       2.443   5.593  19.208  0.00  0.00    +0.000 A 
ATOM     19  N   UNL     1       2.603   4.832  18.118  0.00  0.00    +0.000 NA
ATOM     20  C   UNL     1       3.654   5.278  17.393  0.00  0.00    +0.000 A 
ATOM     21  S   UNL     1       4.610   4.149  16.525  0.00  0.00    +0.000 S 
ATOM     22  C   UNL     1       5.963   4.995  17.029  0.00  0.00    +0.000 A 
ATOM     23  C   UNL     1       5.683   6.269  17.480  0.00  0.00    +0.000 A 
ATOM     24  C   UNL     1       4.236   6.555  17.497  0.00  0.00    +0.000 A 
ATOM     25  C   UNL     1       6.958   6.840  18.052  0.00  0.00    +0.000 C 
ATOM     26  C   UNL     1       7.770   5.538  18.398  0.00  0.00    +0.000 C 
ATOM     27  C   UNL     1       7.340   4.501  17.319  0.00  0.00    +0.000 C 
ENDBRANCH  15  16
ENDBRANCH   1  15
TORSDOF 7
ENDMDL
MODEL 9
REMARK VINA RESULT:      -6.5      2.904      4.639
REMARK  Name = 
REMARK  10 active torsions:
REMARK  status: ('A' for Active; 'I' for Inactive)
REMARK    1  A    between atoms: C_1  and  O_2
REMARK    2  A    between atoms: O_2  and  C_3
REMARK    3  A    between atoms: C_3  and  C_4
REMARK    4  A    between atoms: C_4  and  N_5
REMARK    5  A    between atoms: C_6  and  C_7
REMARK    6  A    between atoms: C_9  and  C_10
REMARK    7  A    between atoms: C_10  and  C_12
REMARK    8  A    between atoms: C_12  and  S_13
REMARK    9  A    between atoms: S_13  and  C_14
REMARK   10  A    between atoms: C_26  and  C_27
REMARK                            x       y       z     vdW  Elec       q    Type
REMARK                         _______ _______ _______ _____ _____    ______ ____
ROOT
ATOM      1  C   UNL     1       1.565  11.092  18.633  0.00  0.00    +0.000 C 
ENDROOT
BRANCH   1   2
ATOM      2  C   UNL     1       1.158   9.681  18.232  0.00  0.00    +0.000 C 
ATOM      3  O   UNL     1       0.015   9.580  17.762  0.00  0.00    +0.000 OA
BRANCH   2   8
ATOM      4  N   UNL     1       2.582   6.500  19.435  0.00  0.00    +0.000 N 
ATOM      5  C   UNL     1       3.226   6.575  18.221  0.00  0.00    +0.000 A 
ATOM      6  C   UNL     1       4.105   5.540  17.622  0.00  0.00    +0.000 C 
ATOM      7  C   UNL     1       2.866   7.777  17.645  0.00  0.00    +0.000 A 
ATOM      8  C   UNL     1       1.946   8.451  18.487  0.00  0.00    +0.000 A 
ATOM      9  C   UNL     1       1.961   7.715  19.685  0.00  0.00    +0.000 A 
ATOM     10  C   UNL     1       1.424   8.059  21.044  0.00  0.00    +0.000 C 
BRANCH   4  11
ATOM     11  C   UNL     1       2.571   5.354  20.338  0.00  0.00    +0.000 C 
BRANCH  11  12
ATOM     12  C   UNL     1       1.293   4.516  20.272  0.00  0.00    +0.000 C 
BRANCH  12  14
ATOM     13  C   UNL     1       1.038   2.733  18.737  0.00  0.00    +0.000 C 
ATOM     14  O   UNL     1       1.647   3.165  19.948  0.00  0.00    +0.000 OA
ENDBRANCH  12  14
ENDBRANCH  11  12
ENDBRANCH   4  11
ENDBRANCH   2   8
ENDBRANCH   1   2
BRANCH   1  15
ATOM     15  S   UNL     1       0.936  11.931  20.087  0.00  0.00    +0.000 S 
BRANCH  15  16
ATOM     16  C   UNL     1      -0.847  11.724  20.472  0.00  0.00    +0.000 A 
ATOM     17  N   UNL     1      -0.831  10.650  21.329  0.00  0.00    +0.000 NA
ATOM     18  C   UNL     1      -0.623  10.981  22.614  0.00  0.00    +0.000 A 
ATOM     19  N   UNL     1      -0.805  12.189  23.161  0.00  0.00    +0.000 NA
ATOM     20  C   UNL     1      -1.534  12.968  22.330  0.00  0.00    +0.000 A 
ATOM     21  S   UNL     1      -2.612  14.125  22.998  0.00  0.00    +0.000 S 
ATOM     22  C   UNL     1      -3.723  13.678  21.829  0.00  0.00    +0.000 A 
ATOM     23  C   UNL     1      -3.165  12.998  20.767  0.00  0.00    +0.000 A 
ATOM     24  C   UNL     1      -1.725  12.742  20.954  0.00  0.00    +0.000 A 
ATOM     25  C   UNL     1      -4.296  12.518  19.889  0.00  0.00    +0.000 C 
ATOM     26  C   UNL     1      -5.502  12.495  20.898  0.00  0.00    +0.000 C 
ATOM     27  C   UNL     1      -5.213  13.657  21.893  0.00  0.00    +0.000 C 
ENDBRANCH  15  16
ENDBRANCH   1  15
TORSDOF 7
ENDMDL
