MODEL 1
REMARK VINA RESULT:      -7.8      0.000      0.000
REMARK  Name = 
REMARK  5 active torsions:
REMARK  status: ('A' for Active; 'I' for Inactive)
REMARK    1  A    between atoms: C_1  and  C_2
REMARK    2  A    between atoms: C_5  and  N_6
REMARK    3  A    between atoms: N_14  and  C_15
REMARK    4  A    between atoms: C_19  and  C_20
REMARK    5  A    between atoms: C_20  and  O_22
REMARK                            x       y       z     vdW  Elec       q    Type
REMARK                         _______ _______ _______ _____ _____    ______ ____
ROOT
ATOM      1  C   UNL     1       2.160   5.322  21.091  0.00  0.00    +0.000 C 
ATOM      2  C   UNL     1       1.873   6.657  20.425  0.00  0.00    +0.000 A 
ATOM      3  N   UNL     1       1.283   7.551  21.168  0.00  0.00    +0.000 NA
ATOM      4  C   UNL     1       1.091   8.809  20.591  0.00  0.00    +0.000 A 
ATOM      5  C   UNL     1       0.505   9.943  21.229  0.00  0.00    +0.000 A 
ATOM      6  C   UNL     1       0.473  11.024  20.359  0.00  0.00    +0.000 A 
ATOM      7  S   UNL     1       1.153  10.659  18.828  0.00  0.00    +0.000 S 
ATOM      8  C   UNL     1       1.501   9.072  19.314  0.00  0.00    +0.000 A 
ATOM      9  C   UNL     1       2.158   8.102  18.478  0.00  0.00    +0.000 A 
ATOM     10  O   UNL     1       2.535   8.339  17.330  0.00  0.00    +0.000 OA
ATOM     11  N   UNL     1       2.306   6.856  19.109  0.00  0.00    +0.000 N 
ENDROOT
BRANCH  11  12
ATOM     12  C   UNL     1       2.910   5.809  18.348  0.00  0.00    +0.000 A 
ATOM     13  C   UNL     1       2.123   4.782  17.807  0.00  0.00    +0.000 A 
ATOM     14  C   UNL     1       2.712   3.753  17.075  0.00  0.00    +0.000 A 
ATOM     15  C   UNL     1       4.092   3.748  16.869  0.00  0.00    +0.000 A 
ATOM     16  C   UNL     1       4.886   4.784  17.376  0.00  0.00    +0.000 A 
ATOM     17  C   UNL     1       4.294   5.817  18.117  0.00  0.00    +0.000 A 
BRANCH  16  18
ATOM     18  C   UNL     1       6.353   4.699  17.160  0.00  0.00    +0.000 C 
ATOM     19  O   UNL     1       6.887   5.107  16.142  0.00  0.00    +0.000 OA
BRANCH  18  20
ATOM     20  O   UNL     1       7.041   4.153  18.183  0.00  0.00    +0.000 OA
ATOM     21  H   UNL     1       7.625   3.407  17.952  0.00  0.00    +0.000 HD
ENDBRANCH  18  20
ENDBRANCH  16  18
ENDBRANCH  11  12
BRANCH   5  22
ATOM     22  N   UNL     1       0.006  10.041  22.582  0.00  0.00    +0.000 N 
ATOM     23  O   UNL     1       0.741   9.678  23.506  0.00  0.00    +0.000 OA
ATOM     24  O   UNL     1      -1.139  10.497  22.719  0.00  0.00    +0.000 OA
ENDBRANCH   5  22
TORSDOF 4
ENDMDL
MODEL 2
REMARK VINA RESULT:      -7.8      0.814      1.050
REMARK  Name = 
REMARK  5 active torsions:
REMARK  status: ('A' for Active; 'I' for Inactive)
REMARK    1  A    between atoms: C_1  and  C_2
REMARK    2  A    between atoms: C_5  and  N_6
REMARK    3  A    between atoms: N_14  and  C_15
REMARK    4  A    between atoms: C_19  and  C_20
REMARK    5  A    between atoms: C_20  and  O_22
REMARK                            x       y       z     vdW  Elec       q    Type
REMARK                         _______ _______ _______ _____ _____    ______ ____
ROOT
ATOM      1  C   UNL     1       2.666   4.993  20.720  0.00  0.00    +0.000 C 
ATOM      2  C   UNL     1       2.275   6.324  20.103  0.00  0.00    +0.000 A 
ATOM      3  N   UNL     1       1.551   7.110  20.851  0.00  0.00    +0.000 NA
ATOM      4  C   UNL     1       1.257   8.370  20.325  0.00  0.00    +0.000 A 
ATOM      5  C   UNL     1       0.517   9.400  20.980  0.00  0.00    +0.000 A 
ATOM      6  C   UNL     1       0.417  10.518  20.163  0.00  0.00    +0.000 A 
ATOM      7  S   UNL     1       1.218  10.310  18.661  0.00  0.00    +0.000 S 
ATOM      8  C   UNL     1       1.708   8.744  19.090  0.00  0.00    +0.000 A 
ATOM      9  C   UNL     1       2.512   7.896  18.251  0.00  0.00    +0.000 A 
ATOM     10  O   UNL     1       2.925   8.234  17.141  0.00  0.00    +0.000 OA
ATOM     11  N   UNL     1       2.757   6.640  18.828  0.00  0.00    +0.000 N 
ENDROOT
BRANCH  11  12
ATOM     12  C   UNL     1       3.513   5.705  18.056  0.00  0.00    +0.000 A 
ATOM     13  C   UNL     1       2.889   4.583  17.492  0.00  0.00    +0.000 A 
ATOM     14  C   UNL     1       3.627   3.664  16.750  0.00  0.00    +0.000 A 
ATOM     15  C   UNL     1       4.994   3.865  16.555  0.00  0.00    +0.000 A 
ATOM     16  C   UNL     1       5.624   4.998  17.085  0.00  0.00    +0.000 A 
ATOM     17  C   UNL     1       4.882   5.919  17.838  0.00  0.00    +0.000 A 
BRANCH  16  18
ATOM     18  C   UNL     1       7.090   5.132  16.881  0.00  0.00    +0.000 C 
ATOM     19  O   UNL     1       7.896   4.432  17.471  0.00  0.00    +0.000 OA
BRANCH  18  20
ATOM     20  O   UNL     1       7.448   6.071  15.983  0.00  0.00    +0.000 OA
ATOM     21  H   UNL     1       7.061   6.955  16.115  0.00  0.00    +0.000 HD
ENDBRANCH  18  20
ENDBRANCH  16  18
ENDBRANCH  11  12
BRANCH   5  22
ATOM     22  N   UNL     1      -0.066   9.370  22.302  0.00  0.00    +0.000 N 
ATOM     23  O   UNL     1       0.325  10.197  23.134  0.00  0.00    +0.000 OA
ATOM     24  O   UNL     1      -0.935   8.510  22.507  0.00  0.00    +0.000 OA
ENDBRANCH   5  22
TORSDOF 4
ENDMDL
MODEL 3
REMARK VINA RESULT:      -7.0      0.972      1.079
REMARK  Name = 
REMARK  5 active torsions:
REMARK  status: ('A' for Active; 'I' for Inactive)
REMARK    1  A    between atoms: C_1  and  C_2
REMARK    2  A    between atoms: C_5  and  N_6
REMARK    3  A    between atoms: N_14  and  C_15
REMARK    4  A    between atoms: C_19  and  C_20
REMARK    5  A    between atoms: C_20  and  O_22
REMARK                            x       y       z     vdW  Elec       q    Type
REMARK                         _______ _______ _______ _____ _____    ______ ____
ROOT
ATOM      1  C   UNL     1       2.383   5.859  21.016  0.00  0.00    +0.000 C 
ATOM      2  C   UNL     1       1.895   7.154  20.391  0.00  0.00    +0.000 A 
ATOM      3  N   UNL     1       1.242   7.960  21.182  0.00  0.00    +0.000 NA
ATOM      4  C   UNL     1       0.862   9.189  20.640  0.00  0.00    +0.000 A 
ATOM      5  C   UNL     1       0.177  10.234  21.330  0.00  0.00    +0.000 A 
ATOM      6  C   UNL     1      -0.039  11.313  20.483  0.00  0.00    +0.000 A 
ATOM      7  S   UNL     1       0.594  11.053  18.910  0.00  0.00    +0.000 S 
ATOM      8  C   UNL     1       1.164   9.516  19.347  0.00  0.00    +0.000 A 
ATOM      9  C   UNL     1       1.888   8.647  18.459  0.00  0.00    +0.000 A 
ATOM     10  O   UNL     1       2.167   8.942  17.297  0.00  0.00    +0.000 OA
ATOM     11  N   UNL     1       2.225   7.421  19.058  0.00  0.00    +0.000 N 
ENDROOT
BRANCH  11  12
ATOM     12  C   UNL     1       2.911   6.467  18.245  0.00  0.00    +0.000 A 
ATOM     13  C   UNL     1       2.356   5.199  18.022  0.00  0.00    +0.000 A 
ATOM     14  C   UNL     1       3.030   4.263  17.240  0.00  0.00    +0.000 A 
ATOM     15  C   UNL     1       4.259   4.591  16.667  0.00  0.00    +0.000 A 
ATOM     16  C   UNL     1       4.810   5.864  16.856  0.00  0.00    +0.000 A 
ATOM     17  C   UNL     1       4.134   6.805  17.647  0.00  0.00    +0.000 A 
BRANCH  16  18
ATOM     18  C   UNL     1       6.141   6.137  16.257  0.00  0.00    +0.000 C 
ATOM     19  O   UNL     1       6.961   6.863  16.794  0.00  0.00    +0.000 OA
BRANCH  18  20
ATOM     20  O   UNL     1       6.372   5.506  15.088  0.00  0.00    +0.000 OA
ATOM     21  H   UNL     1       7.238   5.678  14.676  0.00  0.00    +0.000 HD
ENDBRANCH  18  20
ENDBRANCH  16  18
ENDBRANCH  11  12
BRANCH   5  22
ATOM     22  N   UNL     1      -0.254  10.253  22.709  0.00  0.00    +0.000 N 
ATOM     23  O   UNL     1       0.457   9.697  23.553  0.00  0.00    +0.000 OA
ATOM     24  O   UNL     1      -1.318  10.841  22.950  0.00  0.00    +0.000 OA
ENDBRANCH   5  22
TORSDOF 4
ENDMDL
MODEL 4
REMARK VINA RESULT:      -6.6      2.986      7.011
REMARK  Name = 
REMARK  5 active torsions:
REMARK  status: ('A' for Active; 'I' for Inactive)
REMARK    1  A    between atoms: C_1  and  C_2
REMARK    2  A    between atoms: C_5  and  N_6
REMARK    3  A    between atoms: N_14  and  C_15
REMARK    4  A    between atoms: C_19  and  C_20
REMARK    5  A    between atoms: C_20  and  O_22
REMARK                            x       y       z     vdW  Elec       q    Type
REMARK                         _______ _______ _______ _____ _____    ______ ____
ROOT
ATOM      1  C   UNL     1       0.033   8.360  21.543  0.00  0.00    +0.000 C 
ATOM      2  C   UNL     1       1.055   7.913  20.513  0.00  0.00    +0.000 A 
ATOM      3  N   UNL     1       1.590   6.740  20.709  0.00  0.00    +0.000 NA
ATOM      4  C   UNL     1       2.467   6.284  19.724  0.00  0.00    +0.000 A 
ATOM      5  C   UNL     1       3.133   5.022  19.712  0.00  0.00    +0.000 A 
ATOM      6  C   UNL     1       3.929   4.905  18.581  0.00  0.00    +0.000 A 
ATOM      7  S   UNL     1       3.843   6.287  17.569  0.00  0.00    +0.000 S 
ATOM      8  C   UNL     1       2.745   7.040  18.619  0.00  0.00    +0.000 A 
ATOM      9  C   UNL     1       2.164   8.334  18.379  0.00  0.00    +0.000 A 
ATOM     10  O   UNL     1       2.407   9.013  17.381  0.00  0.00    +0.000 OA
ATOM     11  N   UNL     1       1.305   8.741  19.413  0.00  0.00    +0.000 N 
ENDROOT
BRANCH  11  12
ATOM     12  C   UNL     1       0.707  10.033  19.291  0.00  0.00    +0.000 A 
ATOM     13  C   UNL     1       1.288  11.144  19.920  0.00  0.00    +0.000 A 
ATOM     14  C   UNL     1       0.699  12.402  19.813  0.00  0.00    +0.000 A 
ATOM     15  C   UNL     1      -0.469  12.562  19.068  0.00  0.00    +0.000 A 
ATOM     16  C   UNL     1      -1.043  11.467  18.409  0.00  0.00    +0.000 A 
ATOM     17  C   UNL     1      -0.454  10.200  18.521  0.00  0.00    +0.000 A 
BRANCH  16  18
ATOM     18  C   UNL     1      -2.311  11.694  17.669  0.00  0.00    +0.000 C 
ATOM     19  O   UNL     1      -3.385  11.805  18.236  0.00  0.00    +0.000 OA
BRANCH  18  20
ATOM     20  O   UNL     1      -2.173  11.782  16.331  0.00  0.00    +0.000 OA
ATOM     21  H   UNL     1      -2.536  12.588  15.919  0.00  0.00    +0.000 HD
ENDBRANCH  18  20
ENDBRANCH  16  18
ENDBRANCH  11  12
BRANCH   5  22
ATOM     22  N   UNL     1       3.039   3.960  20.688  0.00  0.00    +0.000 N 
ATOM     23  O   UNL     1       2.352   4.150  21.697  0.00  0.00    +0.000 OA
ATOM     24  O   UNL     1       3.658   2.916  20.434  0.00  0.00    +0.000 OA
ENDBRANCH   5  22
TORSDOF 4
ENDMDL
MODEL 5
REMARK VINA RESULT:      -6.6      1.573      2.022
REMARK  Name = 
REMARK  5 active torsions:
REMARK  status: ('A' for Active; 'I' for Inactive)
REMARK    1  A    between atoms: C_1  and  C_2
REMARK    2  A    between atoms: C_5  and  N_6
REMARK    3  A    between atoms: N_14  and  C_15
REMARK    4  A    between atoms: C_19  and  C_20
REMARK    5  A    between atoms: C_20  and  O_22
REMARK                            x       y       z     vdW  Elec       q    Type
REMARK                         _______ _______ _______ _____ _____    ______ ____
ROOT
ATOM      1  C   UNL     1       2.313   5.780  21.088  0.00  0.00    +0.000 C 
ATOM      2  C   UNL     1       1.881   7.084  20.443  0.00  0.00    +0.000 A 
ATOM      3  N   UNL     1       1.211   7.904  21.204  0.00  0.00    +0.000 NA
ATOM      4  C   UNL     1       0.882   9.141  20.646  0.00  0.00    +0.000 A 
ATOM      5  C   UNL     1       0.191  10.201  21.305  0.00  0.00    +0.000 A 
ATOM      6  C   UNL     1       0.035  11.283  20.450  0.00  0.00    +0.000 A 
ATOM      7  S   UNL     1       0.728  11.008  18.905  0.00  0.00    +0.000 S 
ATOM      8  C   UNL     1       1.246   9.460  19.367  0.00  0.00    +0.000 A 
ATOM      9  C   UNL     1       1.988   8.574  18.511  0.00  0.00    +0.000 A 
ATOM     10  O   UNL     1       2.323   8.861  17.362  0.00  0.00    +0.000 OA
ATOM     11  N   UNL     1       2.273   7.342  19.124  0.00  0.00    +0.000 N 
ENDROOT
BRANCH  11  12
ATOM     12  C   UNL     1       2.972   6.373  18.342  0.00  0.00    +0.000 A 
ATOM     13  C   UNL     1       4.030   6.764  17.509  0.00  0.00    +0.000 A 
ATOM     14  C   UNL     1       4.703   5.821  16.735  0.00  0.00    +0.000 A 
ATOM     15  C   UNL     1       4.332   4.477  16.797  0.00  0.00    +0.000 A 
ATOM     16  C   UNL     1       3.299   4.068  17.648  0.00  0.00    +0.000 A 
ATOM     17  C   UNL     1       2.617   5.018  18.422  0.00  0.00    +0.000 A 
BRANCH  16  18
ATOM     18  C   UNL     1       2.921   2.631  17.635  0.00  0.00    +0.000 C 
ATOM     19  O   UNL     1       1.776   2.260  17.442  0.00  0.00    +0.000 OA
BRANCH  18  20
ATOM     20  O   UNL     1       3.947   1.779  17.834  0.00  0.00    +0.000 OA
ATOM     21  H   UNL     1       4.224   1.657  18.760  0.00  0.00    +0.000 HD
ENDBRANCH  18  20
ENDBRANCH  16  18
ENDBRANCH  11  12
BRANCH   5  22
ATOM     22  N   UNL     1      -0.299  10.232  22.665  0.00  0.00    +0.000 N 
ATOM     23  O   UNL     1       0.405   9.737  23.552  0.00  0.00    +0.000 OA
ATOM     24  O   UNL     1      -1.402  10.766  22.846  0.00  0.00    +0.000 OA
ENDBRANCH   5  22
TORSDOF 4
ENDMDL
MODEL 6
REMARK VINA RESULT:      -6.3      3.670      5.153
REMARK  Name = 
REMARK  5 active torsions:
REMARK  status: ('A' for Active; 'I' for Inactive)
REMARK    1  A    between atoms: C_1  and  C_2
REMARK    2  A    between atoms: C_5  and  N_6
REMARK    3  A    between atoms: N_14  and  C_15
REMARK    4  A    between atoms: C_19  and  C_20
REMARK    5  A    between atoms: C_20  and  O_22
REMARK                            x       y       z     vdW  Elec       q    Type
REMARK                         _______ _______ _______ _____ _____    ______ ____
ROOT
ATOM      1  C   UNL     1       4.766   2.031  17.093  0.00  0.00    +0.000 C 
ATOM      2  C   UNL     1       4.179   3.345  17.578  0.00  0.00    +0.000 A 
ATOM      3  N   UNL     1       3.402   3.273  18.623  0.00  0.00    +0.000 NA
ATOM      4  C   UNL     1       2.926   4.485  19.127  0.00  0.00    +0.000 A 
ATOM      5  C   UNL     1       2.098   4.647  20.278  0.00  0.00    +0.000 A 
ATOM      6  C   UNL     1       1.816   5.990  20.487  0.00  0.00    +0.000 A 
ATOM      7  S   UNL     1       2.556   7.007  19.321  0.00  0.00    +0.000 S 
ATOM      8  C   UNL     1       3.260   5.675  18.543  0.00  0.00    +0.000 A 
ATOM      9  C   UNL     1       4.119   5.779  17.393  0.00  0.00    +0.000 A 
ATOM     10  O   UNL     1       4.427   6.850  16.870  0.00  0.00    +0.000 OA
ATOM     11  N   UNL     1       4.550   4.526  16.926  0.00  0.00    +0.000 N 
ENDROOT
BRANCH  11  12
ATOM     12  C   UNL     1       5.375   4.516  15.759  0.00  0.00    +0.000 A 
ATOM     13  C   UNL     1       6.621   5.160  15.768  0.00  0.00    +0.000 A 
ATOM     14  C   UNL     1       7.420   5.162  14.627  0.00  0.00    +0.000 A 
ATOM     15  C   UNL     1       6.986   4.512  13.471  0.00  0.00    +0.000 A 
ATOM     16  C   UNL     1       5.758   3.839  13.459  0.00  0.00    +0.000 A 
ATOM     17  C   UNL     1       4.950   3.841  14.605  0.00  0.00    +0.000 A 
BRANCH  16  18
ATOM     18  C   UNL     1       5.331   3.204  12.185  0.00  0.00    +0.000 C 
ATOM     19  O   UNL     1       4.377   3.609  11.543  0.00  0.00    +0.000 OA
BRANCH  18  20
ATOM     20  O   UNL     1       6.093   2.163  11.793  0.00  0.00    +0.000 OA
ATOM     21  H   UNL     1       7.015   2.168  12.110  0.00  0.00    +0.000 HD
ENDBRANCH  18  20
ENDBRANCH  16  18
ENDBRANCH  11  12
BRANCH   5  22
ATOM     22  N   UNL     1       1.594   3.619  21.160  0.00  0.00    +0.000 N 
ATOM     23  O   UNL     1       2.176   3.430  22.234  0.00  0.00    +0.000 OA
ATOM     24  O   UNL     1       0.593   2.997  20.774  0.00  0.00    +0.000 OA
ENDBRANCH   5  22
TORSDOF 4
ENDMDL
MODEL 7
REMARK VINA RESULT:      -6.3      2.138      2.728
REMARK  Name = 
REMARK  5 active torsions:
REMARK  status: ('A' for Active; 'I' for Inactive)
REMARK    1  A    between atoms: C_1  and  C_2
REMARK    2  A    between atoms: C_5  and  N_6
REMARK    3  A    between atoms: N_14  and  C_15
REMARK    4  A    between atoms: C_19  and  C_20
REMARK    5  A    between atoms: C_20  and  O_22
REMARK                            x       y       z     vdW  Elec       q    Type
REMARK                         _______ _______ _______ _____ _____    ______ ____
ROOT
ATOM      1  C   UNL     1       2.643   8.590  17.237  0.00  0.00    +0.000 C 
ATOM      2  C   UNL     1       2.031   8.607  18.626  0.00  0.00    +0.000 A 
ATOM      3  N   UNL     1       1.451   9.720  18.982  0.00  0.00    +0.000 NA
ATOM      4  C   UNL     1       0.812   9.718  20.223  0.00  0.00    +0.000 A 
ATOM      5  C   UNL     1       0.085  10.806  20.794  0.00  0.00    +0.000 A 
ATOM      6  C   UNL     1      -0.416  10.453  22.039  0.00  0.00    +0.000 A 
ATOM      7  S   UNL     1      -0.020   8.842  22.476  0.00  0.00    +0.000 S 
ATOM      8  C   UNL     1       0.806   8.604  21.015  0.00  0.00    +0.000 A 
ATOM      9  C   UNL     1       1.435   7.365  20.641  0.00  0.00    +0.000 A 
ATOM     10  O   UNL     1       1.425   6.357  21.349  0.00  0.00    +0.000 OA
ATOM     11  N   UNL     1       2.073   7.437  19.392  0.00  0.00    +0.000 N 
ENDROOT
BRANCH  11  12
ATOM     12  C   UNL     1       2.765   6.269  18.947  0.00  0.00    +0.000 A 
ATOM     13  C   UNL     1       2.068   5.233  18.309  0.00  0.00    +0.000 A 
ATOM     14  C   UNL     1       2.740   4.088  17.886  0.00  0.00    +0.000 A 
ATOM     15  C   UNL     1       4.116   3.974  18.088  0.00  0.00    +0.000 A 
ATOM     16  C   UNL     1       4.830   5.015  18.695  0.00  0.00    +0.000 A 
ATOM     17  C   UNL     1       4.153   6.165  19.125  0.00  0.00    +0.000 A 
BRANCH  16  18
ATOM     18  C   UNL     1       6.284   4.815  18.921  0.00  0.00    +0.000 C 
ATOM     19  O   UNL     1       6.858   5.258  19.901  0.00  0.00    +0.000 OA
BRANCH  18  20
ATOM     20  O   UNL     1       6.907   4.093  17.968  0.00  0.00    +0.000 OA
ATOM     21  H   UNL     1       7.856   4.281  17.845  0.00  0.00    +0.000 HD
ENDBRANCH  18  20
ENDBRANCH  16  18
ENDBRANCH  11  12
BRANCH   5  22
ATOM     22  N   UNL     1      -0.154  12.111  20.221  0.00  0.00    +0.000 N 
ATOM     23  O   UNL     1      -0.938  12.200  19.271  0.00  0.00    +0.000 OA
ATOM     24  O   UNL     1       0.449  13.063  20.738  0.00  0.00    +0.000 OA
ENDBRANCH   5  22
TORSDOF 4
ENDMDL
MODEL 8
REMARK VINA RESULT:      -6.3      2.883      3.707
REMARK  Name = 
REMARK  5 active torsions:
REMARK  status: ('A' for Active; 'I' for Inactive)
REMARK    1  A    between atoms: C_1  and  C_2
REMARK    2  A    between atoms: C_5  and  N_6
REMARK    3  A    between atoms: N_14  and  C_15
REMARK    4  A    between atoms: C_19  and  C_20
REMARK    5  A    between atoms: C_20  and  O_22
REMARK                            x       y       z     vdW  Elec       q    Type
REMARK                         _______ _______ _______ _____ _____    ______ ____
ROOT
ATOM      1  C   UNL     1       3.017   7.895  16.998  0.00  0.00    +0.000 C 
ATOM      2  C   UNL     1       2.328   8.288  18.292  0.00  0.00    +0.000 A 
ATOM      3  N   UNL     1       1.843   9.498  18.337  0.00  0.00    +0.000 NA
ATOM      4  C   UNL     1       1.134   9.840  19.491  0.00  0.00    +0.000 A 
ATOM      5  C   UNL     1       0.488  11.088  19.738  0.00  0.00    +0.000 A 
ATOM      6  C   UNL     1      -0.119  11.080  20.986  0.00  0.00    +0.000 A 
ATOM      7  S   UNL     1       0.085   9.588  21.808  0.00  0.00    +0.000 S 
ATOM      8  C   UNL     1       0.969   8.946  20.512  0.00  0.00    +0.000 A 
ATOM      9  C   UNL     1       1.490   7.606  20.482  0.00  0.00    +0.000 A 
ATOM     10  O   UNL     1       1.337   6.796  21.397  0.00  0.00    +0.000 OA
ATOM     11  N   UNL     1       2.206   7.330  19.305  0.00  0.00    +0.000 N 
ENDROOT
BRANCH  11  12
ATOM     12  C   UNL     1       2.802   6.036  19.194  0.00  0.00    +0.000 A 
ATOM     13  C   UNL     1       4.169   5.862  19.452  0.00  0.00    +0.000 A 
ATOM     14  C   UNL     1       4.755   4.604  19.331  0.00  0.00    +0.000 A 
ATOM     15  C   UNL     1       3.976   3.506  18.962  0.00  0.00    +0.000 A 
ATOM     16  C   UNL     1       2.603   3.660  18.732  0.00  0.00    +0.000 A 
ATOM     17  C   UNL     1       2.015   4.928  18.848  0.00  0.00    +0.000 A 
BRANCH  16  18
ATOM     18  C   UNL     1       1.837   2.463  18.300  0.00  0.00    +0.000 C 
ATOM     19  O   UNL     1       0.624   2.392  18.406  0.00  0.00    +0.000 OA
BRANCH  18  20
ATOM     20  O   UNL     1       2.588   1.477  17.769  0.00  0.00    +0.000 OA
ATOM     21  H   UNL     1       2.332   0.569  18.013  0.00  0.00    +0.000 HD
ENDBRANCH  18  20
ENDBRANCH  16  18
ENDBRANCH  11  12
BRANCH   5  22
ATOM     22  N   UNL     1       0.416  12.239  18.867  0.00  0.00    +0.000 N 
ATOM     23  O   UNL     1      -0.627  12.431  18.233  0.00  0.00    +0.000 OA
ATOM     24  O   UNL     1       1.420  12.966  18.823  0.00  0.00    +0.000 OA
ENDBRANCH   5  22
TORSDOF 4
ENDMDL
MODEL 9
REMARK VINA RESULT:      -6.3      2.713      7.102
REMARK  Name = 
REMARK  5 active torsions:
REMARK  status: ('A' for Active; 'I' for Inactive)
REMARK    1  A    between atoms: C_1  and  C_2
REMARK    2  A    between atoms: C_5  and  N_6
REMARK    3  A    between atoms: N_14  and  C_15
REMARK    4  A    between atoms: C_19  and  C_20
REMARK    5  A    between atoms: C_20  and  O_22
REMARK                            x       y       z     vdW  Elec       q    Type
REMARK                         _______ _______ _______ _____ _____    ______ ____
ROOT
ATOM      1  C   UNL     1       0.720   7.572  21.391  0.00  0.00    +0.000 C 
ATOM      2  C   UNL     1       1.663   7.486  20.204  0.00  0.00    +0.000 A 
ATOM      3  N   UNL     1       2.357   6.387  20.104  0.00  0.00    +0.000 NA
ATOM      4  C   UNL     1       3.164   6.262  18.971  0.00  0.00    +0.000 A 
ATOM      5  C   UNL     1       3.975   5.135  18.639  0.00  0.00    +0.000 A 
ATOM      6  C   UNL     1       4.642   5.356  17.442  0.00  0.00    +0.000 A 
ATOM      7  S   UNL     1       4.269   6.880  16.750  0.00  0.00    +0.000 S 
ATOM      8  C   UNL     1       3.216   7.249  18.027  0.00  0.00    +0.000 A 
ATOM      9  C   UNL     1       2.456   8.467  18.114  0.00  0.00    +0.000 A 
ATOM     10  O   UNL     1       2.495   9.355  17.262  0.00  0.00    +0.000 OA
ATOM     11  N   UNL     1       1.679   8.539  19.282  0.00  0.00    +0.000 N 
ENDROOT
BRANCH  11  12
ATOM     12  C   UNL     1       0.917   9.730  19.485  0.00  0.00    +0.000 A 
ATOM     13  C   UNL     1       1.266  10.629  20.503  0.00  0.00    +0.000 A 
ATOM     14  C   UNL     1       0.515  11.784  20.710  0.00  0.00    +0.000 A 
ATOM     15  C   UNL     1      -0.584  12.055  19.895  0.00  0.00    +0.000 A 
ATOM     16  C   UNL     1      -0.925  11.182  18.855  0.00  0.00    +0.000 A 
ATOM     17  C   UNL     1      -0.174  10.016  18.650  0.00  0.00    +0.000 A 
BRANCH  16  18
ATOM     18  C   UNL     1      -2.133  11.503  18.051  0.00  0.00    +0.000 C 
ATOM     19  O   UNL     1      -3.261  11.412  18.505  0.00  0.00    +0.000 OA
BRANCH  18  20
ATOM     20  O   UNL     1      -1.877  11.917  16.794  0.00  0.00    +0.000 OA
ATOM     21  H   UNL     1      -1.041  11.602  16.404  0.00  0.00    +0.000 HD
ENDBRANCH  18  20
ENDBRANCH  16  18
ENDBRANCH  11  12
BRANCH   5  22
ATOM     22  N   UNL     1       4.127   3.902  19.377  0.00  0.00    +0.000 N 
ATOM     23  O   UNL     1       3.110   3.255  19.652  0.00  0.00    +0.000 OA
ATOM     24  O   UNL     1       5.283   3.574  19.679  0.00  0.00    +0.000 OA
ENDBRANCH   5  22
TORSDOF 4
ENDMDL
