MODEL 1
REMARK VINA RESULT:      -8.7      0.000      0.000
REMARK  Name = 
REMARK  8 active torsions:
REMARK  status: ('A' for Active; 'I' for Inactive)
REMARK    1  A    between atoms: C_1  and  C_2
REMARK    2  A    between atoms: C_2  and  C_3
REMARK    3  A    between atoms: C_3  and  C_4
REMARK    4  A    between atoms: N_13  and  C_14
REMARK    5  A    between atoms: C_14  and  C_15
REMARK    6  A    between atoms: C_18  and  C_19
REMARK    7  A    between atoms: C_24  and  C_25
REMARK    8  A    between atoms: C_25  and  O_27
REMARK                            x       y       z     vdW  Elec       q    Type
REMARK                         _______ _______ _______ _____ _____    ______ ____
ROOT
ATOM      1  C   UNL     1       1.275   9.366  19.154  0.00  0.00    +0.000 A 
ATOM      2  C   UNL     1       1.778   8.570  18.121  0.00  0.00    +0.000 A 
ATOM      3  C   UNL     1       2.263   7.295  18.401  0.00  0.00    +0.000 A 
ATOM      4  C   UNL     1       2.118   6.730  19.679  0.00  0.00    +0.000 A 
ATOM      5  C   UNL     1       1.588   7.539  20.696  0.00  0.00    +0.000 A 
ATOM      6  C   UNL     1       1.174   8.838  20.437  0.00  0.00    +0.000 A 
ENDROOT
BRANCH   4   7
ATOM      7  C   UNL     1       2.401   5.307  19.946  0.00  0.00    +0.000 A 
ATOM      8  C   UNL     1       1.379   4.515  20.531  0.00  0.00    +0.000 A 
ATOM      9  C   UNL     1       1.527   3.141  20.733  0.00  0.00    +0.000 A 
ATOM     10  C   UNL     1       2.724   2.531  20.405  0.00  0.00    +0.000 A 
ATOM     11  C   UNL     1       3.760   3.288  19.863  0.00  0.00    +0.000 A 
ATOM     12  C   UNL     1       3.609   4.664  19.596  0.00  0.00    +0.000 A 
BRANCH  12  13
ATOM     13  C   UNL     1       4.818   5.289  18.965  0.00  0.00    +0.000 C 
ATOM     14  O   UNL     1       5.784   5.590  19.640  0.00  0.00    +0.000 OA
BRANCH  13  15
ATOM     15  O   UNL     1       4.824   5.457  17.627  0.00  0.00    +0.000 OA
ATOM     16  H   UNL     1       5.489   6.062  17.252  0.00  0.00    +0.000 HD
ENDBRANCH  13  15
ENDBRANCH  12  13
ENDBRANCH   4   7
BRANCH   1  17
ATOM     17  C   UNL     1       0.984  10.821  18.927  0.00  0.00    +0.000 C 
BRANCH  17  27
ATOM     18  C   UNL     1      -0.930  11.936  20.109  0.00  0.00    +0.000 A 
ATOM     19  N   UNL     1      -2.219  12.151  19.932  0.00  0.00    +0.000 NA
ATOM     20  C   UNL     1      -2.564  11.498  18.772  0.00  0.00    +0.000 A 
ATOM     21  C   UNL     1      -3.809  11.424  18.119  0.00  0.00    +0.000 A 
ATOM     22 BR   UNL     1      -5.342  12.268  18.836  0.00  0.00    +0.000 Br
ATOM     23  C   UNL     1      -3.915  10.707  16.919  0.00  0.00    +0.000 A 
ATOM     24  C   UNL     1      -2.810  10.016  16.423  0.00  0.00    +0.000 A 
ATOM     25  C   UNL     1      -1.577  10.035  17.093  0.00  0.00    +0.000 A 
ATOM     26  C   UNL     1      -1.457  10.843  18.234  0.00  0.00    +0.000 A 
ATOM     27  N   UNL     1      -0.413  11.195  19.061  0.00  0.00    +0.000 N 
BRANCH  18  28
ATOM     28  C   UNL     1      -0.143  12.439  21.278  0.00  0.00    +0.000 C 
BRANCH  28  30
ATOM     29  C   UNL     1      -0.820  10.686  22.958  0.00  0.00    +0.000 C 
ATOM     30  C   UNL     1      -0.856  12.163  22.601  0.00  0.00    +0.000 C 
ENDBRANCH  28  30
ENDBRANCH  18  28
ENDBRANCH  17  27
ENDBRANCH   1  17
TORSDOF 7
ENDMDL
MODEL 2
REMARK VINA RESULT:      -8.6      4.360      8.579
REMARK  Name = 
REMARK  8 active torsions:
REMARK  status: ('A' for Active; 'I' for Inactive)
REMARK    1  A    between atoms: C_1  and  C_2
REMARK    2  A    between atoms: C_2  and  C_3
REMARK    3  A    between atoms: C_3  and  C_4
REMARK    4  A    between atoms: N_13  and  C_14
REMARK    5  A    between atoms: C_14  and  C_15
REMARK    6  A    between atoms: C_18  and  C_19
REMARK    7  A    between atoms: C_24  and  C_25
REMARK    8  A    between atoms: C_25  and  O_27
REMARK                            x       y       z     vdW  Elec       q    Type
REMARK                         _______ _______ _______ _____ _____    ______ ____
ROOT
ATOM      1  C   UNL     1       2.380   7.108  19.447  0.00  0.00    +0.000 A 
ATOM      2  C   UNL     1       1.710   7.663  20.540  0.00  0.00    +0.000 A 
ATOM      3  C   UNL     1       1.073   8.895  20.410  0.00  0.00    +0.000 A 
ATOM      4  C   UNL     1       0.960   9.523  19.160  0.00  0.00    +0.000 A 
ATOM      5  C   UNL     1       1.621   8.936  18.069  0.00  0.00    +0.000 A 
ATOM      6  C   UNL     1       2.322   7.747  18.212  0.00  0.00    +0.000 A 
ENDROOT
BRANCH   4   7
ATOM      7  C   UNL     1       0.093  10.698  18.945  0.00  0.00    +0.000 A 
ATOM      8  C   UNL     1      -1.313  10.517  18.995  0.00  0.00    +0.000 A 
ATOM      9  C   UNL     1      -2.205  11.587  18.896  0.00  0.00    +0.000 A 
ATOM     10  C   UNL     1      -1.714  12.863  18.687  0.00  0.00    +0.000 A 
ATOM     11  C   UNL     1      -0.339  13.069  18.596  0.00  0.00    +0.000 A 
ATOM     12  C   UNL     1       0.579  12.011  18.754  0.00  0.00    +0.000 A 
BRANCH  12  13
ATOM     13  C   UNL     1       2.013  12.444  18.674  0.00  0.00    +0.000 C 
ATOM     14  O   UNL     1       2.560  12.959  19.630  0.00  0.00    +0.000 OA
BRANCH  13  15
ATOM     15  O   UNL     1       2.690  12.195  17.534  0.00  0.00    +0.000 OA
ATOM     16  H   UNL     1       2.568  11.322  17.119  0.00  0.00    +0.000 HD
ENDBRANCH  13  15
ENDBRANCH  12  13
ENDBRANCH   4   7
BRANCH   1  17
ATOM     17  C   UNL     1       3.279   5.919  19.624  0.00  0.00    +0.000 C 
BRANCH  17  27
ATOM     18  C   UNL     1       3.071   4.498  17.564  0.00  0.00    +0.000 A 
ATOM     19  N   UNL     1       3.782   4.178  16.501  0.00  0.00    +0.000 NA
ATOM     20  C   UNL     1       5.004   4.788  16.654  0.00  0.00    +0.000 A 
ATOM     21  C   UNL     1       6.122   4.789  15.799  0.00  0.00    +0.000 A 
ATOM     22 BR   UNL     1       6.108   3.826  14.171  0.00  0.00    +0.000 Br
ATOM     23  C   UNL     1       7.267   5.511  16.162  0.00  0.00    +0.000 A 
ATOM     24  C   UNL     1       7.315   6.160  17.395  0.00  0.00    +0.000 A 
ATOM     25  C   UNL     1       6.230   6.120  18.284  0.00  0.00    +0.000 A 
ATOM     26  C   UNL     1       5.053   5.484  17.861  0.00  0.00    +0.000 A 
ATOM     27  N   UNL     1       3.788   5.347  18.390  0.00  0.00    +0.000 N 
BRANCH  18  28
ATOM     28  C   UNL     1       1.680   4.015  17.827  0.00  0.00    +0.000 C 
BRANCH  28  30
ATOM     29  C   UNL     1       1.011   3.034  20.051  0.00  0.00    +0.000 C 
ATOM     30  C   UNL     1       1.671   2.766  18.708  0.00  0.00    +0.000 C 
ENDBRANCH  28  30
ENDBRANCH  18  28
ENDBRANCH  17  27
ENDBRANCH   1  17
TORSDOF 7
ENDMDL
MODEL 3
REMARK VINA RESULT:      -8.6      1.039      1.058
REMARK  Name = 
REMARK  8 active torsions:
REMARK  status: ('A' for Active; 'I' for Inactive)
REMARK    1  A    between atoms: C_1  and  C_2
REMARK    2  A    between atoms: C_2  and  C_3
REMARK    3  A    between atoms: C_3  and  C_4
REMARK    4  A    between atoms: N_13  and  C_14
REMARK    5  A    between atoms: C_14  and  C_15
REMARK    6  A    between atoms: C_18  and  C_19
REMARK    7  A    between atoms: C_24  and  C_25
REMARK    8  A    between atoms: C_25  and  O_27
REMARK                            x       y       z     vdW  Elec       q    Type
REMARK                         _______ _______ _______ _____ _____    ______ ____
ROOT
ATOM      1  C   UNL     1       1.431   9.294  19.097  0.00  0.00    +0.000 A 
ATOM      2  C   UNL     1       1.885   8.871  17.845  0.00  0.00    +0.000 A 
ATOM      3  C   UNL     1       2.418   7.593  17.696  0.00  0.00    +0.000 A 
ATOM      4  C   UNL     1       2.369   6.661  18.745  0.00  0.00    +0.000 A 
ATOM      5  C   UNL     1       1.887   7.100  19.988  0.00  0.00    +0.000 A 
ATOM      6  C   UNL     1       1.426   8.397  20.162  0.00  0.00    +0.000 A 
ENDROOT
BRANCH   4   7
ATOM      7  C   UNL     1       2.702   5.238  18.549  0.00  0.00    +0.000 A 
ATOM      8  C   UNL     1       1.641   4.320  18.336  0.00  0.00    +0.000 A 
ATOM      9  C   UNL     1       1.869   2.972  18.049  0.00  0.00    +0.000 A 
ATOM     10  C   UNL     1       3.167   2.493  18.024  0.00  0.00    +0.000 A 
ATOM     11  C   UNL     1       4.229   3.362  18.266  0.00  0.00    +0.000 A 
ATOM     12  C   UNL     1       4.022   4.736  18.497  0.00  0.00    +0.000 A 
BRANCH  12  13
ATOM     13  C   UNL     1       5.293   5.511  18.684  0.00  0.00    +0.000 C 
ATOM     14  O   UNL     1       5.957   5.379  19.695  0.00  0.00    +0.000 OA
BRANCH  13  15
ATOM     15  O   UNL     1       5.703   6.315  17.681  0.00  0.00    +0.000 OA
ATOM     16  H   UNL     1       6.660   6.486  17.604  0.00  0.00    +0.000 HD
ENDBRANCH  13  15
ENDBRANCH  12  13
ENDBRANCH   4   7
BRANCH   1  17
ATOM     17  C   UNL     1       1.092  10.735  19.342  0.00  0.00    +0.000 C 
BRANCH  17  27
ATOM     18  C   UNL     1      -0.975  11.639  20.445  0.00  0.00    +0.000 A 
ATOM     19  N   UNL     1      -2.253  11.815  20.171  0.00  0.00    +0.000 NA
ATOM     20  C   UNL     1      -2.460  11.270  18.926  0.00  0.00    +0.000 A 
ATOM     21  C   UNL     1      -3.637  11.208  18.156  0.00  0.00    +0.000 A 
ATOM     22 BR   UNL     1      -5.270  11.906  18.808  0.00  0.00    +0.000 Br
ATOM     23  C   UNL     1      -3.600  10.613  16.888  0.00  0.00    +0.000 A 
ATOM     24  C   UNL     1      -2.420  10.026  16.431  0.00  0.00    +0.000 A 
ATOM     25  C   UNL     1      -1.254  10.029  17.211  0.00  0.00    +0.000 A 
ATOM     26  C   UNL     1      -1.277  10.721  18.432  0.00  0.00    +0.000 A 
ATOM     27  N   UNL     1      -0.329  11.033  19.382  0.00  0.00    +0.000 N 
BRANCH  18  28
ATOM     28  C   UNL     1      -0.321  12.054  21.726  0.00  0.00    +0.000 C 
BRANCH  28  30
ATOM     29  C   UNL     1      -0.485   9.925  23.066  0.00  0.00    +0.000 C 
ATOM     30  C   UNL     1      -0.954  11.365  22.933  0.00  0.00    +0.000 C 
ENDBRANCH  28  30
ENDBRANCH  18  28
ENDBRANCH  17  27
ENDBRANCH   1  17
TORSDOF 7
ENDMDL
MODEL 4
REMARK VINA RESULT:      -8.5      4.451      8.709
REMARK  Name = 
REMARK  8 active torsions:
REMARK  status: ('A' for Active; 'I' for Inactive)
REMARK    1  A    between atoms: C_1  and  C_2
REMARK    2  A    between atoms: C_2  and  C_3
REMARK    3  A    between atoms: C_3  and  C_4
REMARK    4  A    between atoms: N_13  and  C_14
REMARK    5  A    between atoms: C_14  and  C_15
REMARK    6  A    between atoms: C_18  and  C_19
REMARK    7  A    between atoms: C_24  and  C_25
REMARK    8  A    between atoms: C_25  and  O_27
REMARK                            x       y       z     vdW  Elec       q    Type
REMARK                         _______ _______ _______ _____ _____    ______ ____
ROOT
ATOM      1  C   UNL     1       2.396   7.255  19.540  0.00  0.00    +0.000 A 
ATOM      2  C   UNL     1       2.488   7.912  18.310  0.00  0.00    +0.000 A 
ATOM      3  C   UNL     1       1.764   9.083  18.095  0.00  0.00    +0.000 A 
ATOM      4  C   UNL     1       1.059   9.701  19.140  0.00  0.00    +0.000 A 
ATOM      5  C   UNL     1       1.000   9.035  20.374  0.00  0.00    +0.000 A 
ATOM      6  C   UNL     1       1.657   7.829  20.570  0.00  0.00    +0.000 A 
ENDROOT
BRANCH   4   7
ATOM      7  C   UNL     1       0.486  11.054  19.009  0.00  0.00    +0.000 A 
ATOM      8  C   UNL     1       1.247  12.157  19.475  0.00  0.00    +0.000 A 
ATOM      9  C   UNL     1       0.823  13.478  19.307  0.00  0.00    +0.000 A 
ATOM     10  C   UNL     1      -0.403  13.728  18.717  0.00  0.00    +0.000 A 
ATOM     11  C   UNL     1      -1.190  12.664  18.282  0.00  0.00    +0.000 A 
ATOM     12  C   UNL     1      -0.753  11.329  18.388  0.00  0.00    +0.000 A 
BRANCH  12  13
ATOM     13  C   UNL     1      -1.720  10.334  17.817  0.00  0.00    +0.000 C 
ATOM     14  O   UNL     1      -2.688   9.971  18.458  0.00  0.00    +0.000 OA
BRANCH  13  15
ATOM     15  O   UNL     1      -1.515   9.896  16.557  0.00  0.00    +0.000 OA
ATOM     16  H   UNL     1      -1.559   8.935  16.402  0.00  0.00    +0.000 HD
ENDBRANCH  13  15
ENDBRANCH  12  13
ENDBRANCH   4   7
BRANCH   1  17
ATOM     17  C   UNL     1       2.956   5.873  19.713  0.00  0.00    +0.000 C 
BRANCH  17  27
ATOM     18  C   UNL     1       2.894   4.492  17.616  0.00  0.00    +0.000 A 
ATOM     19  N   UNL     1       3.689   4.164  16.617  0.00  0.00    +0.000 NA
ATOM     20  C   UNL     1       4.912   4.727  16.896  0.00  0.00    +0.000 A 
ATOM     21  C   UNL     1       6.105   4.701  16.148  0.00  0.00    +0.000 A 
ATOM     22 BR   UNL     1       6.211   3.765  14.508  0.00  0.00    +0.000 Br
ATOM     23  C   UNL     1       7.235   5.375  16.631  0.00  0.00    +0.000 A 
ATOM     24  C   UNL     1       7.190   6.002  17.876  0.00  0.00    +0.000 A 
ATOM     25  C   UNL     1       6.025   5.988  18.658  0.00  0.00    +0.000 A 
ATOM     26  C   UNL     1       4.872   5.401  18.116  0.00  0.00    +0.000 A 
ATOM     27  N   UNL     1       3.559   5.302  18.521  0.00  0.00    +0.000 N 
BRANCH  18  28
ATOM     28  C   UNL     1       1.467   4.056  17.738  0.00  0.00    +0.000 C 
BRANCH  28  30
ATOM     29  C   UNL     1       0.877   2.960  19.929  0.00  0.00    +0.000 C 
ATOM     30  C   UNL     1       1.342   2.738  18.500  0.00  0.00    +0.000 C 
ENDBRANCH  28  30
ENDBRANCH  18  28
ENDBRANCH  17  27
ENDBRANCH   1  17
TORSDOF 7
ENDMDL
MODEL 5
REMARK VINA RESULT:      -8.4      4.382      8.623
REMARK  Name = 
REMARK  8 active torsions:
REMARK  status: ('A' for Active; 'I' for Inactive)
REMARK    1  A    between atoms: C_1  and  C_2
REMARK    2  A    between atoms: C_2  and  C_3
REMARK    3  A    between atoms: C_3  and  C_4
REMARK    4  A    between atoms: N_13  and  C_14
REMARK    5  A    between atoms: C_14  and  C_15
REMARK    6  A    between atoms: C_18  and  C_19
REMARK    7  A    between atoms: C_24  and  C_25
REMARK    8  A    between atoms: C_25  and  O_27
REMARK                            x       y       z     vdW  Elec       q    Type
REMARK                         _______ _______ _______ _____ _____    ______ ____
ROOT
ATOM      1  C   UNL     1       2.364   6.972  19.619  0.00  0.00    +0.000 A 
ATOM      2  C   UNL     1       1.505   7.271  20.680  0.00  0.00    +0.000 A 
ATOM      3  C   UNL     1       0.738   8.433  20.644  0.00  0.00    +0.000 A 
ATOM      4  C   UNL     1       0.696   9.237  19.494  0.00  0.00    +0.000 A 
ATOM      5  C   UNL     1       1.550   8.905  18.430  0.00  0.00    +0.000 A 
ATOM      6  C   UNL     1       2.373   7.790  18.493  0.00  0.00    +0.000 A 
ENDROOT
BRANCH   4   7
ATOM      7  C   UNL     1      -0.280  10.333  19.336  0.00  0.00    +0.000 A 
ATOM      8  C   UNL     1      -1.195  10.269  18.253  0.00  0.00    +0.000 A 
ATOM      9  C   UNL     1      -2.211  11.213  18.081  0.00  0.00    +0.000 A 
ATOM     10  C   UNL     1      -2.303  12.278  18.959  0.00  0.00    +0.000 A 
ATOM     11  C   UNL     1      -1.397  12.389  20.011  0.00  0.00    +0.000 A 
ATOM     12  C   UNL     1      -0.403  11.415  20.236  0.00  0.00    +0.000 A 
BRANCH  12  13
ATOM     13  C   UNL     1       0.440  11.686  21.446  0.00  0.00    +0.000 C 
ATOM     14  O   UNL     1       1.468  12.330  21.355  0.00  0.00    +0.000 OA
BRANCH  13  15
ATOM     15  O   UNL     1      -0.001  11.243  22.642  0.00  0.00    +0.000 OA
ATOM     16  H   UNL     1      -0.963  11.142  22.758  0.00  0.00    +0.000 HD
ENDBRANCH  13  15
ENDBRANCH  12  13
ENDBRANCH   4   7
BRANCH   1  17
ATOM     17  C   UNL     1       3.379   5.872  19.742  0.00  0.00    +0.000 C 
BRANCH  17  27
ATOM     18  C   UNL     1       3.084   4.534  17.637  0.00  0.00    +0.000 A 
ATOM     19  N   UNL     1       3.765   4.225  16.552  0.00  0.00    +0.000 NA
ATOM     20  C   UNL     1       5.013   4.781  16.707  0.00  0.00    +0.000 A 
ATOM     21  C   UNL     1       6.117   4.769  15.833  0.00  0.00    +0.000 A 
ATOM     22 BR   UNL     1       6.041   3.867  14.173  0.00  0.00    +0.000 Br
ATOM     23  C   UNL     1       7.295   5.433  16.203  0.00  0.00    +0.000 A 
ATOM     24  C   UNL     1       7.388   6.034  17.458  0.00  0.00    +0.000 A 
ATOM     25  C   UNL     1       6.315   6.005  18.362  0.00  0.00    +0.000 A 
ATOM     26  C   UNL     1       5.108   5.431  17.937  0.00  0.00    +0.000 A 
ATOM     27  N   UNL     1       3.846   5.324  18.480  0.00  0.00    +0.000 N 
BRANCH  18  28
ATOM     28  C   UNL     1       1.678   4.097  17.905  0.00  0.00    +0.000 C 
BRANCH  28  30
ATOM     29  C   UNL     1       1.038   3.066  20.114  0.00  0.00    +0.000 C 
ATOM     30  C   UNL     1       1.633   2.817  18.738  0.00  0.00    +0.000 C 
ENDBRANCH  28  30
ENDBRANCH  18  28
ENDBRANCH  17  27
ENDBRANCH   1  17
TORSDOF 7
ENDMDL
MODEL 6
REMARK VINA RESULT:      -8.2      0.749      1.212
REMARK  Name = 
REMARK  8 active torsions:
REMARK  status: ('A' for Active; 'I' for Inactive)
REMARK    1  A    between atoms: C_1  and  C_2
REMARK    2  A    between atoms: C_2  and  C_3
REMARK    3  A    between atoms: C_3  and  C_4
REMARK    4  A    between atoms: N_13  and  C_14
REMARK    5  A    between atoms: C_14  and  C_15
REMARK    6  A    between atoms: C_18  and  C_19
REMARK    7  A    between atoms: C_24  and  C_25
REMARK    8  A    between atoms: C_25  and  O_27
REMARK                            x       y       z     vdW  Elec       q    Type
REMARK                         _______ _______ _______ _____ _____    ______ ____
ROOT
ATOM      1  C   UNL     1       1.419   9.254  18.968  0.00  0.00    +0.000 A 
ATOM      2  C   UNL     1       1.863   8.388  17.966  0.00  0.00    +0.000 A 
ATOM      3  C   UNL     1       2.308   7.111  18.301  0.00  0.00    +0.000 A 
ATOM      4  C   UNL     1       2.179   6.619  19.610  0.00  0.00    +0.000 A 
ATOM      5  C   UNL     1       1.708   7.500  20.597  0.00  0.00    +0.000 A 
ATOM      6  C   UNL     1       1.335   8.798  20.281  0.00  0.00    +0.000 A 
ENDROOT
BRANCH   4   7
ATOM      7  C   UNL     1       2.417   5.202  19.945  0.00  0.00    +0.000 A 
ATOM      8  C   UNL     1       1.370   4.472  20.565  0.00  0.00    +0.000 A 
ATOM      9  C   UNL     1       1.474   3.104  20.832  0.00  0.00    +0.000 A 
ATOM     10  C   UNL     1       2.652   2.442  20.536  0.00  0.00    +0.000 A 
ATOM     11  C   UNL     1       3.712   3.140  19.961  0.00  0.00    +0.000 A 
ATOM     12  C   UNL     1       3.604   4.505  19.629  0.00  0.00    +0.000 A 
BRANCH  12  13
ATOM     13  C   UNL     1       4.832   5.062  18.972  0.00  0.00    +0.000 C 
ATOM     14  O   UNL     1       5.744   5.512  19.640  0.00  0.00    +0.000 OA
BRANCH  13  15
ATOM     15  O   UNL     1       4.921   4.999  17.627  0.00  0.00    +0.000 OA
ATOM     16  H   UNL     1       5.398   5.716  17.173  0.00  0.00    +0.000 HD
ENDBRANCH  13  15
ENDBRANCH  12  13
ENDBRANCH   4   7
BRANCH   1  17
ATOM     17  C   UNL     1       1.175  10.706  18.673  0.00  0.00    +0.000 C 
BRANCH  17  27
ATOM     18  C   UNL     1      -0.506  12.028  19.989  0.00  0.00    +0.000 A 
ATOM     19  N   UNL     1      -1.795  12.303  19.963  0.00  0.00    +0.000 NA
ATOM     20  C   UNL     1      -2.325  11.575  18.924  0.00  0.00    +0.000 A 
ATOM     21  C   UNL     1      -3.650  11.519  18.450  0.00  0.00    +0.000 A 
ATOM     22 BR   UNL     1      -5.029  12.509  19.282  0.00  0.00    +0.000 Br
ATOM     23  C   UNL     1      -3.952  10.710  17.346  0.00  0.00    +0.000 A 
ATOM     24  C   UNL     1      -2.958   9.916  16.774  0.00  0.00    +0.000 A 
ATOM     25  C   UNL     1      -1.646   9.919  17.272  0.00  0.00    +0.000 A 
ATOM     26  C   UNL     1      -1.334  10.812  18.308  0.00  0.00    +0.000 A 
ATOM     27  N   UNL     1      -0.171  11.172  18.954  0.00  0.00    +0.000 N 
BRANCH  18  28
ATOM     28  C   UNL     1       0.456  12.581  20.993  0.00  0.00    +0.000 C 
BRANCH  28  30
ATOM     29  C   UNL     1       1.612  14.326  19.589  0.00  0.00    +0.000 C 
ATOM     30  C   UNL     1       0.701  14.073  20.779  0.00  0.00    +0.000 C 
ENDBRANCH  28  30
ENDBRANCH  18  28
ENDBRANCH  17  27
ENDBRANCH   1  17
TORSDOF 7
ENDMDL
MODEL 7
REMARK VINA RESULT:      -8.1      4.323      8.545
REMARK  Name = 
REMARK  8 active torsions:
REMARK  status: ('A' for Active; 'I' for Inactive)
REMARK    1  A    between atoms: C_1  and  C_2
REMARK    2  A    between atoms: C_2  and  C_3
REMARK    3  A    between atoms: C_3  and  C_4
REMARK    4  A    between atoms: N_13  and  C_14
REMARK    5  A    between atoms: C_14  and  C_15
REMARK    6  A    between atoms: C_18  and  C_19
REMARK    7  A    between atoms: C_24  and  C_25
REMARK    8  A    between atoms: C_25  and  O_27
REMARK                            x       y       z     vdW  Elec       q    Type
REMARK                         _______ _______ _______ _____ _____    ______ ____
ROOT
ATOM      1  C   UNL     1       2.436   7.292  19.449  0.00  0.00    +0.000 A 
ATOM      2  C   UNL     1       2.333   7.878  18.185  0.00  0.00    +0.000 A 
ATOM      3  C   UNL     1       1.444   8.931  17.980  0.00  0.00    +0.000 A 
ATOM      4  C   UNL     1       0.756   9.518  19.054  0.00  0.00    +0.000 A 
ATOM      5  C   UNL     1       0.893   8.927  20.320  0.00  0.00    +0.000 A 
ATOM      6  C   UNL     1       1.719   7.830  20.514  0.00  0.00    +0.000 A 
ENDROOT
BRANCH   4   7
ATOM      7  C   UNL     1      -0.001  10.776  18.910  0.00  0.00    +0.000 A 
ATOM      8  C   UNL     1      -1.418  10.710  18.883  0.00  0.00    +0.000 A 
ATOM      9  C   UNL     1      -2.216  11.856  18.843  0.00  0.00    +0.000 A 
ATOM     10  C   UNL     1      -1.615  13.099  18.772  0.00  0.00    +0.000 A 
ATOM     11  C   UNL     1      -0.225  13.196  18.759  0.00  0.00    +0.000 A 
ATOM     12  C   UNL     1       0.596  12.055  18.859  0.00  0.00    +0.000 A 
BRANCH  12  13
ATOM     13  C   UNL     1       2.062  12.370  18.879  0.00  0.00    +0.000 C 
ATOM     14  O   UNL     1       2.774  12.072  17.939  0.00  0.00    +0.000 OA
BRANCH  13  15
ATOM     15  O   UNL     1       2.556  13.040  19.942  0.00  0.00    +0.000 OA
ATOM     16  H   UNL     1       2.399  12.661  20.825  0.00  0.00    +0.000 HD
ENDBRANCH  13  15
ENDBRANCH  12  13
ENDBRANCH   4   7
BRANCH   1  17
ATOM     17  C   UNL     1       3.189   6.007  19.638  0.00  0.00    +0.000 C 
BRANCH  17  27
ATOM     18  C   UNL     1       2.998   4.581  17.580  0.00  0.00    +0.000 A 
ATOM     19  N   UNL     1       3.725   4.241  16.534  0.00  0.00    +0.000 NA
ATOM     20  C   UNL     1       4.956   4.827  16.713  0.00  0.00    +0.000 A 
ATOM     21  C   UNL     1       6.093   4.801  15.883  0.00  0.00    +0.000 A 
ATOM     22 BR   UNL     1       6.096   3.832  14.258  0.00  0.00    +0.000 Br
ATOM     23  C   UNL     1       7.244   5.501  16.269  0.00  0.00    +0.000 A 
ATOM     24  C   UNL     1       7.278   6.153  17.501  0.00  0.00    +0.000 A 
ATOM     25  C   UNL     1       6.173   6.140  18.365  0.00  0.00    +0.000 A 
ATOM     26  C   UNL     1       4.992   5.527  17.918  0.00  0.00    +0.000 A 
ATOM     27  N   UNL     1       3.713   5.418  18.418  0.00  0.00    +0.000 N 
BRANCH  18  28
ATOM     28  C   UNL     1       1.590   4.128  17.813  0.00  0.00    +0.000 C 
BRANCH  28  30
ATOM     29  C   UNL     1       1.054   2.991  19.997  0.00  0.00    +0.000 C 
ATOM     30  C   UNL     1       1.540   2.802  18.570  0.00  0.00    +0.000 C 
ENDBRANCH  28  30
ENDBRANCH  18  28
ENDBRANCH  17  27
ENDBRANCH   1  17
TORSDOF 7
ENDMDL
MODEL 8
REMARK VINA RESULT:      -8.1      1.067      3.188
REMARK  Name = 
REMARK  8 active torsions:
REMARK  status: ('A' for Active; 'I' for Inactive)
REMARK    1  A    between atoms: C_1  and  C_2
REMARK    2  A    between atoms: C_2  and  C_3
REMARK    3  A    between atoms: C_3  and  C_4
REMARK    4  A    between atoms: N_13  and  C_14
REMARK    5  A    between atoms: C_14  and  C_15
REMARK    6  A    between atoms: C_18  and  C_19
REMARK    7  A    between atoms: C_24  and  C_25
REMARK    8  A    between atoms: C_25  and  O_27
REMARK                            x       y       z     vdW  Elec       q    Type
REMARK                         _______ _______ _______ _____ _____    ______ ____
ROOT
ATOM      1  C   UNL     1       1.466   9.198  18.937  0.00  0.00    +0.000 A 
ATOM      2  C   UNL     1       1.958   8.332  17.956  0.00  0.00    +0.000 A 
ATOM      3  C   UNL     1       2.383   7.054  18.311  0.00  0.00    +0.000 A 
ATOM      4  C   UNL     1       2.187   6.560  19.610  0.00  0.00    +0.000 A 
ATOM      5  C   UNL     1       1.670   7.440  20.574  0.00  0.00    +0.000 A 
ATOM      6  C   UNL     1       1.316   8.740  20.242  0.00  0.00    +0.000 A 
ENDROOT
BRANCH   4   7
ATOM      7  C   UNL     1       2.404   5.142  19.954  0.00  0.00    +0.000 A 
ATOM      8  C   UNL     1       1.362   4.441  20.613  0.00  0.00    +0.000 A 
ATOM      9  C   UNL     1       1.444   3.075  20.892  0.00  0.00    +0.000 A 
ATOM     10  C   UNL     1       2.598   2.384  20.568  0.00  0.00    +0.000 A 
ATOM     11  C   UNL     1       3.654   3.052  19.954  0.00  0.00    +0.000 A 
ATOM     12  C   UNL     1       3.566   4.416  19.610  0.00  0.00    +0.000 A 
BRANCH  12  13
ATOM     13  C   UNL     1       4.786   4.939  18.910  0.00  0.00    +0.000 C 
ATOM     14  O   UNL     1       4.871   4.898  17.697  0.00  0.00    +0.000 OA
BRANCH  13  15
ATOM     15  O   UNL     1       5.757   5.503  19.658  0.00  0.00    +0.000 OA
ATOM     16  H   UNL     1       6.166   4.955  20.353  0.00  0.00    +0.000 HD
ENDBRANCH  13  15
ENDBRANCH  12  13
ENDBRANCH   4   7
BRANCH   1  17
ATOM     17  C   UNL     1       1.242  10.651  18.633  0.00  0.00    +0.000 C 
BRANCH  17  27
ATOM     18  C   UNL     1      -1.252  10.878  18.448  0.00  0.00    +0.000 A 
ATOM     19  N   UNL     1      -2.247  11.467  19.081  0.00  0.00    +0.000 NA
ATOM     20  C   UNL     1      -1.678  12.204  20.093  0.00  0.00    +0.000 A 
ATOM     21  C   UNL     1      -2.291  13.005  21.076  0.00  0.00    +0.000 A 
ATOM     22 BR   UNL     1      -4.169  13.227  21.124  0.00  0.00    +0.000 Br
ATOM     23  C   UNL     1      -1.496  13.652  22.030  0.00  0.00    +0.000 A 
ATOM     24  C   UNL     1      -0.107  13.558  21.956  0.00  0.00    +0.000 A 
ATOM     25  C   UNL     1       0.521  12.810  20.948  0.00  0.00    +0.000 A 
ATOM     26  C   UNL     1      -0.290  12.081  20.064  0.00  0.00    +0.000 A 
ATOM     27  N   UNL     1      -0.045  11.175  19.056  0.00  0.00    +0.000 N 
BRANCH  18  28
ATOM     28  C   UNL     1      -1.417  10.000  17.247  0.00  0.00    +0.000 C 
BRANCH  28  30
ATOM     29  C   UNL     1      -3.000  10.370  15.321  0.00  0.00    +0.000 C 
ATOM     30  C   UNL     1      -2.870   9.952  16.776  0.00  0.00    +0.000 C 
ENDBRANCH  28  30
ENDBRANCH  18  28
ENDBRANCH  17  27
ENDBRANCH   1  17
TORSDOF 7
ENDMDL
MODEL 9
REMARK VINA RESULT:      -8.1      2.367      4.361
REMARK  Name = 
REMARK  8 active torsions:
REMARK  status: ('A' for Active; 'I' for Inactive)
REMARK    1  A    between atoms: C_1  and  C_2
REMARK    2  A    between atoms: C_2  and  C_3
REMARK    3  A    between atoms: C_3  and  C_4
REMARK    4  A    between atoms: N_13  and  C_14
REMARK    5  A    between atoms: C_14  and  C_15
REMARK    6  A    between atoms: C_18  and  C_19
REMARK    7  A    between atoms: C_24  and  C_25
REMARK    8  A    between atoms: C_25  and  O_27
REMARK                            x       y       z     vdW  Elec       q    Type
REMARK                         _______ _______ _______ _____ _____    ______ ____
ROOT
ATOM      1  C   UNL     1       1.041   9.179  19.866  0.00  0.00    +0.000 A 
ATOM      2  C   UNL     1       1.567   8.065  20.526  0.00  0.00    +0.000 A 
ATOM      3  C   UNL     1       2.273   7.104  19.808  0.00  0.00    +0.000 A 
ATOM      4  C   UNL     1       2.600   7.304  18.457  0.00  0.00    +0.000 A 
ATOM      5  C   UNL     1       2.081   8.443  17.820  0.00  0.00    +0.000 A 
ATOM      6  C   UNL     1       1.311   9.365  18.514  0.00  0.00    +0.000 A 
ENDROOT
BRANCH   4   7
ATOM      7  C   UNL     1       3.543   6.427  17.737  0.00  0.00    +0.000 A 
ATOM      8  C   UNL     1       4.731   7.000  17.215  0.00  0.00    +0.000 A 
ATOM      9  C   UNL     1       5.722   6.228  16.602  0.00  0.00    +0.000 A 
ATOM     10  C   UNL     1       5.524   4.868  16.446  0.00  0.00    +0.000 A 
ATOM     11  C   UNL     1       4.351   4.282  16.915  0.00  0.00    +0.000 A 
ATOM     12  C   UNL     1       3.367   5.033  17.590  0.00  0.00    +0.000 A 
BRANCH  12  13
ATOM     13  C   UNL     1       2.204   4.213  18.062  0.00  0.00    +0.000 C 
ATOM     14  O   UNL     1       2.247   3.630  19.129  0.00  0.00    +0.000 OA
BRANCH  13  15
ATOM     15  O   UNL     1       1.092   4.184  17.298  0.00  0.00    +0.000 OA
ATOM     16  H   UNL     1       0.494   4.952  17.344  0.00  0.00    +0.000 HD
ENDBRANCH  13  15
ENDBRANCH  12  13
ENDBRANCH   4   7
BRANCH   1  17
ATOM     17  C   UNL     1       0.070  10.091  20.558  0.00  0.00    +0.000 C 
BRANCH  17  27
ATOM     18  C   UNL     1      -1.086  11.750  19.069  0.00  0.00    +0.000 A 
ATOM     19  N   UNL     1      -0.982  13.018  18.723  0.00  0.00    +0.000 NA
ATOM     20  C   UNL     1       0.142  13.499  19.352  0.00  0.00    +0.000 A 
ATOM     21  C   UNL     1       0.695  14.794  19.338  0.00  0.00    +0.000 A 
ATOM     22 BR   UNL     1      -0.092  16.183  18.324  0.00  0.00    +0.000 Br
ATOM     23  C   UNL     1       1.851  15.056  20.085  0.00  0.00    +0.000 A 
ATOM     24  C   UNL     1       2.483  14.021  20.773  0.00  0.00    +0.000 A 
ATOM     25  C   UNL     1       1.976  12.713  20.750  0.00  0.00    +0.000 A 
ATOM     26  C   UNL     1       0.760  12.488  20.087  0.00  0.00    +0.000 A 
ATOM     27  N   UNL     1      -0.079  11.403  19.952  0.00  0.00    +0.000 N 
BRANCH  18  28
ATOM     28  C   UNL     1      -2.156  10.826  18.578  0.00  0.00    +0.000 C 
BRANCH  28  30
ATOM     29  C   UNL     1      -3.031   9.885  16.410  0.00  0.00    +0.000 C 
ATOM     30  C   UNL     1      -1.793  10.203  17.232  0.00  0.00    +0.000 C 
ENDBRANCH  28  30
ENDBRANCH  18  28
ENDBRANCH  17  27
ENDBRANCH   1  17
TORSDOF 7
ENDMDL
