MODEL 1
REMARK VINA RESULT:      -8.3      0.000      0.000
REMARK  Name = 
REMARK  11 active torsions:
REMARK  status: ('A' for Active; 'I' for Inactive)
REMARK    1  A    between atoms: C_1  and  O_2
REMARK    2  A    between atoms: O_2  and  C_3
REMARK    3  A    between atoms: C_11  and  C_12
REMARK    4  A    between atoms: C_12  and  C_13
REMARK    5  A    between atoms: C_12  and  C_15
REMARK    6  A    between atoms: C_13  and  S_14
REMARK    7  A    between atoms: N_17  and  CA_18
REMARK    8  A    between atoms: CA_18  and  CB_19
REMARK    9  A    between atoms: CA_18  and  C_29
REMARK   10  A    between atoms: CB_19  and  CG_20
REMARK   11  A    between atoms: C_29  and  OXT_31
REMARK                            x       y       z     vdW  Elec       q    Type
REMARK                         _______ _______ _______ _____ _____    ______ ____
ROOT
ATOM      1  C   UNK A   0       2.001   4.673  18.681  0.00  0.00    +0.000 C 
ATOM      2  O   UNK A   0       1.084   4.385  17.911  0.00  0.00    +0.000 OA
ATOM      3  N   TRP A   1       3.254   4.146  18.516  0.00  0.00    +0.000 N 
ATOM      4  H   TRP A   1       4.039   4.461  19.078  0.00  0.00    +0.000 HD
ENDROOT
BRANCH   1   5
ATOM      5  C   UNK A   0       1.830   5.615  19.864  0.00  0.00    +0.000 C 
BRANCH   5  14
ATOM      6  C   UNK A   0       0.203  10.592  20.735  0.00  0.00    +0.000 A 
ATOM      7  C   UNK A   0       0.114   9.475  21.577  0.00  0.00    +0.000 A 
ATOM      8  C   UNK A   0       0.766   8.279  21.258  0.00  0.00    +0.000 A 
ATOM      9  C   UNK A   0       1.459   8.188  20.064  0.00  0.00    +0.000 A 
ATOM     10  C   UNK A   0       1.512   9.288  19.198  0.00  0.00    +0.000 A 
ATOM     11  C   UNK A   0       0.910  10.497  19.531  0.00  0.00    +0.000 A 
ATOM     12  C   UNK A   0       2.314   8.968  17.975  0.00  0.00    +0.000 C 
ATOM     13  C   UNK A   0       2.353   7.428  18.033  0.00  0.00    +0.000 C 
ATOM     14  C   UNK A   0       2.296   7.049  19.531  0.00  0.00    +0.000 C 
BRANCH   6  16
ATOM     15  C   UNK A   0      -0.731  12.067  22.342  0.00  0.00    +0.000 C 
ATOM     16  O   UNK A   0      -0.351  11.820  20.991  0.00  0.00    +0.000 OA
ENDBRANCH   6  16
ENDBRANCH   5  14
BRANCH   5  17
ATOM     17  C   UNK A   0       2.551   4.934  21.039  0.00  0.00    +0.000 C 
BRANCH  17  18
ATOM     18  S   UNK A   0       1.902   3.307  21.517  0.00  0.00    +0.000 S 
ATOM     19  H   UNK A   0       2.426   3.298  22.752  0.00  0.00    +0.000 HD
ENDBRANCH  17  18
ENDBRANCH   5  17
ENDBRANCH   1   5
BRANCH   3  20
ATOM     20  CA  TRP A   1       3.564   3.187  17.452  0.00  0.00    +0.000 C 
BRANCH  20  21
ATOM     21  C   TRP A   1       3.286   1.776  17.996  0.00  0.00    +0.000 C 
ATOM     22  O   TRP A   1       4.157   0.962  18.272  0.00  0.00    +0.000 OA
BRANCH  21  23
ATOM     23  OXT TRP A   1       1.969   1.493  18.167  0.00  0.00    +0.000 OA
ATOM     24  HXT TRP A   1       1.765   1.018  18.992  0.00  0.00    +0.000 HD
ENDBRANCH  21  23
ENDBRANCH  20  21
BRANCH  20  25
ATOM     25  CB  TRP A   1       5.002   3.335  16.914  0.00  0.00    +0.000 C 
BRANCH  25  26
ATOM     26  CG  TRP A   1       5.406   4.767  16.760  0.00  0.00    +0.000 A 
ATOM     27  CD1 TRP A   1       5.043   5.612  15.729  0.00  0.00    +0.000 A 
ATOM     28  NE1 TRP A   1       5.770   6.765  15.850  0.00  0.00    +0.000 N 
ATOM     29  CE2 TRP A   1       6.580   6.703  16.958  0.00  0.00    +0.000 A 
ATOM     30  CZ2 TRP A   1       7.524   7.617  17.441  0.00  0.00    +0.000 A 
ATOM     31  CH2 TRP A   1       8.220   7.275  18.605  0.00  0.00    +0.000 A 
ATOM     32  CZ3 TRP A   1       7.960   6.083  19.275  0.00  0.00    +0.000 A 
ATOM     33  CE3 TRP A   1       7.007   5.186  18.781  0.00  0.00    +0.000 A 
ATOM     34  CD2 TRP A   1       6.324   5.487  17.585  0.00  0.00    +0.000 A 
ATOM     35  HE1 TRP A   1       5.753   7.535  15.194  0.00  0.00    +0.000 HD
ENDBRANCH  25  26
ENDBRANCH  20  25
ENDBRANCH   3  20
TORSDOF 10
ENDMDL
MODEL 2
REMARK VINA RESULT:      -7.1      2.772      3.848
REMARK  Name = 
REMARK  11 active torsions:
REMARK  status: ('A' for Active; 'I' for Inactive)
REMARK    1  A    between atoms: C_1  and  O_2
REMARK    2  A    between atoms: O_2  and  C_3
REMARK    3  A    between atoms: C_11  and  C_12
REMARK    4  A    between atoms: C_12  and  C_13
REMARK    5  A    between atoms: C_12  and  C_15
REMARK    6  A    between atoms: C_13  and  S_14
REMARK    7  A    between atoms: N_17  and  CA_18
REMARK    8  A    between atoms: CA_18  and  CB_19
REMARK    9  A    between atoms: CA_18  and  C_29
REMARK   10  A    between atoms: CB_19  and  CG_20
REMARK   11  A    between atoms: C_29  and  OXT_31
REMARK                            x       y       z     vdW  Elec       q    Type
REMARK                         _______ _______ _______ _____ _____    ______ ____
ROOT
ATOM      1  C   UNK A   0       4.488   4.905  18.949  0.00  0.00    +0.000 C 
ATOM      2  O   UNK A   0       4.809   3.758  19.259  0.00  0.00    +0.000 OA
ATOM      3  N   TRP A   1       5.384   5.753  18.353  0.00  0.00    +0.000 N 
ATOM      4  H   TRP A   1       5.098   6.660  17.996  0.00  0.00    +0.000 HD
ENDROOT
BRANCH   1   5
ATOM      5  C   UNK A   0       3.101   5.478  19.198  0.00  0.00    +0.000 C 
BRANCH   5  14
ATOM      6  C   UNK A   0       0.140   9.587  20.788  0.00  0.00    +0.000 A 
ATOM      7  C   UNK A   0       0.489   8.427  21.494  0.00  0.00    +0.000 A 
ATOM      8  C   UNK A   0       1.435   7.532  20.983  0.00  0.00    +0.000 A 
ATOM      9  C   UNK A   0       1.987   7.774  19.737  0.00  0.00    +0.000 A 
ATOM     10  C   UNK A   0       1.606   8.908  19.009  0.00  0.00    +0.000 A 
ATOM     11  C   UNK A   0       0.705   9.830  19.531  0.00  0.00    +0.000 A 
ATOM     12  C   UNK A   0       2.327   8.971  17.698  0.00  0.00    +0.000 C 
ATOM     13  C   UNK A   0       2.839   7.523  17.566  0.00  0.00    +0.000 C 
ATOM     14  C   UNK A   0       3.067   7.010  19.008  0.00  0.00    +0.000 C 
BRANCH   6  16
ATOM     15  C   UNK A   0      -0.699  11.794  20.542  0.00  0.00    +0.000 C 
ATOM     16  O   UNK A   0      -0.731  10.549  21.234  0.00  0.00    +0.000 OA
ENDBRANCH   6  16
ENDBRANCH   5  14
BRANCH   5  17
ATOM     17  C   UNK A   0       2.689   4.969  20.589  0.00  0.00    +0.000 C 
BRANCH  17  18
ATOM     18  S   UNK A   0       1.343   3.750  20.608  0.00  0.00    +0.000 S 
ATOM     19  H   UNK A   0       0.443   4.536  21.217  0.00  0.00    +0.000 HD
ENDBRANCH  17  18
ENDBRANCH   5  17
ENDBRANCH   1   5
BRANCH   3  20
ATOM     20  CA  TRP A   1       6.771   5.364  18.091  0.00  0.00    +0.000 C 
BRANCH  20  21
ATOM     21  C   TRP A   1       7.656   6.032  19.156  0.00  0.00    +0.000 C 
ATOM     22  O   TRP A   1       8.306   7.051  18.969  0.00  0.00    +0.000 OA
BRANCH  21  23
ATOM     23  OXT TRP A   1       7.655   5.401  20.359  0.00  0.00    +0.000 OA
ATOM     24  HXT TRP A   1       6.766   5.191  20.700  0.00  0.00    +0.000 HD
ENDBRANCH  21  23
ENDBRANCH  20  21
BRANCH  20  25
ATOM     25  CB  TRP A   1       7.227   5.702  16.656  0.00  0.00    +0.000 C 
BRANCH  25  26
ATOM     26  CG  TRP A   1       6.587   4.816  15.634  0.00  0.00    +0.000 A 
ATOM     27  CD1 TRP A   1       5.709   3.780  15.887  0.00  0.00    +0.000 A 
ATOM     28  NE1 TRP A   1       5.510   3.099  14.716  0.00  0.00    +0.000 N 
ATOM     29  CE2 TRP A   1       6.218   3.688  13.696  0.00  0.00    +0.000 A 
ATOM     30  CZ2 TRP A   1       6.359   3.309  12.356  0.00  0.00    +0.000 A 
ATOM     31  CH2 TRP A   1       7.167   4.106  11.539  0.00  0.00    +0.000 A 
ATOM     32  CZ3 TRP A   1       7.784   5.250  12.034  0.00  0.00    +0.000 A 
ATOM     33  CE3 TRP A   1       7.626   5.617  13.375  0.00  0.00    +0.000 A 
ATOM     34  CD2 TRP A   1       6.852   4.806  14.229  0.00  0.00    +0.000 A 
ATOM     35  HE1 TRP A   1       4.960   2.255  14.620  0.00  0.00    +0.000 HD
ENDBRANCH  25  26
ENDBRANCH  20  25
ENDBRANCH   3  20
TORSDOF 10
ENDMDL
MODEL 3
REMARK VINA RESULT:      -7.0      2.857      4.436
REMARK  Name = 
REMARK  11 active torsions:
REMARK  status: ('A' for Active; 'I' for Inactive)
REMARK    1  A    between atoms: C_1  and  O_2
REMARK    2  A    between atoms: O_2  and  C_3
REMARK    3  A    between atoms: C_11  and  C_12
REMARK    4  A    between atoms: C_12  and  C_13
REMARK    5  A    between atoms: C_12  and  C_15
REMARK    6  A    between atoms: C_13  and  S_14
REMARK    7  A    between atoms: N_17  and  CA_18
REMARK    8  A    between atoms: CA_18  and  CB_19
REMARK    9  A    between atoms: CA_18  and  C_29
REMARK   10  A    between atoms: CB_19  and  CG_20
REMARK   11  A    between atoms: C_29  and  OXT_31
REMARK                            x       y       z     vdW  Elec       q    Type
REMARK                         _______ _______ _______ _____ _____    ______ ____
ROOT
ATOM      1  C   UNK A   0       1.778   8.319  19.212  0.00  0.00    +0.000 C 
ATOM      2  O   UNK A   0       1.828   8.150  17.993  0.00  0.00    +0.000 OA
ATOM      3  N   TRP A   1       2.053   7.295  20.080  0.00  0.00    +0.000 N 
ATOM      4  H   TRP A   1       2.120   7.453  21.081  0.00  0.00    +0.000 HD
ENDROOT
BRANCH   1   5
ATOM      5  C   UNK A   0       1.407   9.648  19.854  0.00  0.00    +0.000 C 
BRANCH   5  14
ATOM      6  C   UNK A   0      -2.347  12.547  22.238  0.00  0.00    +0.000 A 
ATOM      7  C   UNK A   0      -1.955  12.547  20.892  0.00  0.00    +0.000 A 
ATOM      8  C   UNK A   0      -1.073  11.579  20.399  0.00  0.00    +0.000 A 
ATOM      9  C   UNK A   0      -0.539  10.648  21.273  0.00  0.00    +0.000 A 
ATOM     10  C   UNK A   0      -0.893  10.674  22.628  0.00  0.00    +0.000 A 
ATOM     11  C   UNK A   0      -1.809  11.599  23.116  0.00  0.00    +0.000 A 
ATOM     12  C   UNK A   0      -0.204   9.579  23.383  0.00  0.00    +0.000 C 
ATOM     13  C   UNK A   0       0.917   9.193  22.397  0.00  0.00    +0.000 C 
ATOM     14  C   UNK A   0       0.364   9.474  20.980  0.00  0.00    +0.000 C 
BRANCH   6  16
ATOM     15  C   UNK A   0      -4.593  12.954  22.886  0.00  0.00    +0.000 C 
ATOM     16  O   UNK A   0      -3.248  13.416  22.796  0.00  0.00    +0.000 OA
ENDBRANCH   6  16
ENDBRANCH   5  14
BRANCH   5  17
ATOM     17  C   UNK A   0       0.989  10.564  18.692  0.00  0.00    +0.000 C 
BRANCH  17  18
ATOM     18  S   UNK A   0       2.106  11.955  18.353  0.00  0.00    +0.000 S 
ATOM     19  H   UNK A   0       3.196  11.406  18.909  0.00  0.00    +0.000 HD
ENDBRANCH  17  18
ENDBRANCH   5  17
ENDBRANCH   1   5
BRANCH   3  20
ATOM     20  CA  TRP A   1       2.378   5.945  19.615  0.00  0.00    +0.000 C 
BRANCH  20  21
ATOM     21  C   TRP A   1       1.730   4.945  20.587  0.00  0.00    +0.000 C 
ATOM     22  O   TRP A   1       0.665   4.379  20.382  0.00  0.00    +0.000 OA
BRANCH  21  23
ATOM     23  OXT TRP A   1       2.450   4.717  21.716  0.00  0.00    +0.000 OA
ATOM     24  HXT TRP A   1       3.104   3.999  21.636  0.00  0.00    +0.000 HD
ENDBRANCH  21  23
ENDBRANCH  20  21
BRANCH  20  25
ATOM     25  CB  TRP A   1       3.896   5.713  19.464  0.00  0.00    +0.000 C 
BRANCH  25  26
ATOM     26  CG  TRP A   1       4.214   4.727  18.384  0.00  0.00    +0.000 A 
ATOM     27  CD1 TRP A   1       4.162   3.351  18.494  0.00  0.00    +0.000 A 
ATOM     28  NE1 TRP A   1       4.711   2.815  17.359  0.00  0.00    +0.000 N 
ATOM     29  CE2 TRP A   1       5.093   3.815  16.497  0.00  0.00    +0.000 A 
ATOM     30  CZ2 TRP A   1       5.739   3.742  15.258  0.00  0.00    +0.000 A 
ATOM     31  CH2 TRP A   1       6.018   4.945  14.601  0.00  0.00    +0.000 A 
ATOM     32  CZ3 TRP A   1       5.638   6.167  15.147  0.00  0.00    +0.000 A 
ATOM     33  CE3 TRP A   1       4.987   6.219  16.383  0.00  0.00    +0.000 A 
ATOM     34  CD2 TRP A   1       4.734   5.023  17.086  0.00  0.00    +0.000 A 
ATOM     35  HE1 TRP A   1       4.859   1.828  17.196  0.00  0.00    +0.000 HD
ENDBRANCH  25  26
ENDBRANCH  20  25
ENDBRANCH   3  20
TORSDOF 10
ENDMDL
MODEL 4
REMARK VINA RESULT:      -7.0      2.568      7.660
REMARK  Name = 
REMARK  11 active torsions:
REMARK  status: ('A' for Active; 'I' for Inactive)
REMARK    1  A    between atoms: C_1  and  O_2
REMARK    2  A    between atoms: O_2  and  C_3
REMARK    3  A    between atoms: C_11  and  C_12
REMARK    4  A    between atoms: C_12  and  C_13
REMARK    5  A    between atoms: C_12  and  C_15
REMARK    6  A    between atoms: C_13  and  S_14
REMARK    7  A    between atoms: N_17  and  CA_18
REMARK    8  A    between atoms: CA_18  and  CB_19
REMARK    9  A    between atoms: CA_18  and  C_29
REMARK   10  A    between atoms: CB_19  and  CG_20
REMARK   11  A    between atoms: C_29  and  OXT_31
REMARK                            x       y       z     vdW  Elec       q    Type
REMARK                         _______ _______ _______ _____ _____    ______ ____
ROOT
ATOM      1  C   UNK A   0       2.575   6.445  19.918  0.00  0.00    +0.000 C 
ATOM      2  O   UNK A   0       2.940   6.988  18.875  0.00  0.00    +0.000 OA
ATOM      3  N   TRP A   1       1.848   7.131  20.855  0.00  0.00    +0.000 N 
ATOM      4  H   TRP A   1       1.451   6.662  21.664  0.00  0.00    +0.000 HD
ENDROOT
BRANCH   1   5
ATOM      5  C   UNK A   0       2.893   4.996  20.259  0.00  0.00    +0.000 C 
BRANCH   5  14
ATOM      6  C   UNK A   0       6.522   5.071  16.386  0.00  0.00    +0.000 A 
ATOM      7  C   UNK A   0       6.671   5.404  17.739  0.00  0.00    +0.000 A 
ATOM      8  C   UNK A   0       5.649   5.146  18.660  0.00  0.00    +0.000 A 
ATOM      9  C   UNK A   0       4.457   4.605  18.209  0.00  0.00    +0.000 A 
ATOM     10  C   UNK A   0       4.289   4.314  16.850  0.00  0.00    +0.000 A 
ATOM     11  C   UNK A   0       5.317   4.519  15.936  0.00  0.00    +0.000 A 
ATOM     12  C   UNK A   0       2.932   3.737  16.590  0.00  0.00    +0.000 C 
ATOM     13  C   UNK A   0       2.184   4.132  17.879  0.00  0.00    +0.000 C 
ATOM     14  C   UNK A   0       3.247   4.172  19.002  0.00  0.00    +0.000 C 
BRANCH   6  16
ATOM     15  C   UNK A   0       7.119   4.860  14.098  0.00  0.00    +0.000 C 
ATOM     16  O   UNK A   0       7.486   5.232  15.424  0.00  0.00    +0.000 OA
ENDBRANCH   6  16
ENDBRANCH   5  14
BRANCH   5  17
ATOM     17  C   UNK A   0       1.690   4.491  21.072  0.00  0.00    +0.000 C 
BRANCH  17  18
ATOM     18  S   UNK A   0       1.689   2.714  21.443  0.00  0.00    +0.000 S 
ATOM     19  H   UNK A   0       1.649   2.298  20.168  0.00  0.00    +0.000 HD
ENDBRANCH  17  18
ENDBRANCH   5  17
ENDBRANCH   1   5
BRANCH   3  20
ATOM     20  CA  TRP A   1       1.504   8.545  20.694  0.00  0.00    +0.000 C 
BRANCH  20  21
ATOM     21  C   TRP A   1       0.753   8.993  21.958  0.00  0.00    +0.000 C 
ATOM     22  O   TRP A   1       1.265   9.622  22.875  0.00  0.00    +0.000 OA
BRANCH  21  23
ATOM     23  OXT TRP A   1      -0.559   8.644  21.981  0.00  0.00    +0.000 OA
ATOM     24  HXT TRP A   1      -1.173   9.382  21.813  0.00  0.00    +0.000 HD
ENDBRANCH  21  23
ENDBRANCH  20  21
BRANCH  20  25
ATOM     25  CB  TRP A   1       0.700   8.822  19.407  0.00  0.00    +0.000 C 
BRANCH  25  26
ATOM     26  CG  TRP A   1       0.976  10.183  18.848  0.00  0.00    +0.000 A 
ATOM     27  CD1 TRP A   1       2.063  10.544  18.076  0.00  0.00    +0.000 A 
ATOM     28  NE1 TRP A   1       2.048  11.906  17.935  0.00  0.00    +0.000 N 
ATOM     29  CE2 TRP A   1       0.956  12.440  18.576  0.00  0.00    +0.000 A 
ATOM     30  CZ2 TRP A   1       0.567  13.774  18.742  0.00  0.00    +0.000 A 
ATOM     31  CH2 TRP A   1      -0.606  14.022  19.464  0.00  0.00    +0.000 A 
ATOM     32  CZ3 TRP A   1      -1.373  12.978  19.970  0.00  0.00    +0.000 A 
ATOM     33  CE3 TRP A   1      -0.971  11.650  19.788  0.00  0.00    +0.000 A 
ATOM     34  CD2 TRP A   1       0.229  11.376  19.103  0.00  0.00    +0.000 A 
ATOM     35  HE1 TRP A   1       2.762  12.450  17.469  0.00  0.00    +0.000 HD
ENDBRANCH  25  26
ENDBRANCH  20  25
ENDBRANCH   3  20
TORSDOF 10
ENDMDL
MODEL 5
REMARK VINA RESULT:      -6.9      2.923      4.017
REMARK  Name = 
REMARK  11 active torsions:
REMARK  status: ('A' for Active; 'I' for Inactive)
REMARK    1  A    between atoms: C_1  and  O_2
REMARK    2  A    between atoms: O_2  and  C_3
REMARK    3  A    between atoms: C_11  and  C_12
REMARK    4  A    between atoms: C_12  and  C_13
REMARK    5  A    between atoms: C_12  and  C_15
REMARK    6  A    between atoms: C_13  and  S_14
REMARK    7  A    between atoms: N_17  and  CA_18
REMARK    8  A    between atoms: CA_18  and  CB_19
REMARK    9  A    between atoms: CA_18  and  C_29
REMARK   10  A    between atoms: CB_19  and  CG_20
REMARK   11  A    between atoms: C_29  and  OXT_31
REMARK                            x       y       z     vdW  Elec       q    Type
REMARK                         _______ _______ _______ _____ _____    ______ ____
ROOT
ATOM      1  C   UNK A   0       4.462   5.886  18.648  0.00  0.00    +0.000 C 
ATOM      2  O   UNK A   0       4.667   5.270  19.694  0.00  0.00    +0.000 OA
ATOM      3  N   TRP A   1       5.498   6.259  17.832  0.00  0.00    +0.000 N 
ATOM      4  H   TRP A   1       5.331   6.669  16.918  0.00  0.00    +0.000 HD
ENDROOT
BRANCH   1   5
ATOM      5  C   UNK A   0       3.072   6.288  18.176  0.00  0.00    +0.000 C 
BRANCH   5  14
ATOM      6  C   UNK A   0       0.188   9.170  21.576  0.00  0.00    +0.000 A 
ATOM      7  C   UNK A   0       0.884   7.974  21.803  0.00  0.00    +0.000 A 
ATOM      8  C   UNK A   0       1.748   7.449  20.836  0.00  0.00    +0.000 A 
ATOM      9  C   UNK A   0       1.869   8.097  19.619  0.00  0.00    +0.000 A 
ATOM     10  C   UNK A   0       1.140   9.267  19.371  0.00  0.00    +0.000 A 
ATOM     11  C   UNK A   0       0.318   9.824  20.345  0.00  0.00    +0.000 A 
ATOM     12  C   UNK A   0       1.426   9.797  18.000  0.00  0.00    +0.000 C 
ATOM     13  C   UNK A   0       2.067   8.565  17.329  0.00  0.00    +0.000 C 
ATOM     14  C   UNK A   0       2.777   7.778  18.455  0.00  0.00    +0.000 C 
BRANCH   6  16
ATOM     15  C   UNK A   0      -0.894  11.171  22.253  0.00  0.00    +0.000 C 
ATOM     16  O   UNK A   0      -0.633   9.789  22.483  0.00  0.00    +0.000 OA
ENDBRANCH   6  16
ENDBRANCH   5  14
BRANCH   5  17
ATOM     17  C   UNK A   0       2.109   5.283  18.828  0.00  0.00    +0.000 C 
BRANCH  17  18
ATOM     18  S   UNK A   0       1.832   3.749  17.897  0.00  0.00    +0.000 S 
ATOM     19  H   UNK A   0       2.896   3.874  17.090  0.00  0.00    +0.000 HD
ENDBRANCH  17  18
ENDBRANCH   5  17
ENDBRANCH   1   5
BRANCH   3  20
ATOM     20  CA  TRP A   1       6.896   5.986  18.173  0.00  0.00    +0.000 C 
BRANCH  20  21
ATOM     21  C   TRP A   1       7.700   7.272  17.920  0.00  0.00    +0.000 C 
ATOM     22  O   TRP A   1       7.559   7.989  16.939  0.00  0.00    +0.000 OA
BRANCH  21  23
ATOM     23  OXT TRP A   1       8.596   7.571  18.896  0.00  0.00    +0.000 OA
ATOM     24  HXT TRP A   1       9.503   7.723  18.575  0.00  0.00    +0.000 HD
ENDBRANCH  21  23
ENDBRANCH  20  21
BRANCH  20  25
ATOM     25  CB  TRP A   1       7.473   4.776  17.410  0.00  0.00    +0.000 C 
BRANCH  25  26
ATOM     26  CG  TRP A   1       6.629   4.391  16.236  0.00  0.00    +0.000 A 
ATOM     27  CD1 TRP A   1       5.469   3.642  16.274  0.00  0.00    +0.000 A 
ATOM     28  NE1 TRP A   1       5.113   3.348  14.985  0.00  0.00    +0.000 N 
ATOM     29  CE2 TRP A   1       6.001   3.916  14.104  0.00  0.00    +0.000 A 
ATOM     30  CZ2 TRP A   1       6.065   3.838  12.708  0.00  0.00    +0.000 A 
ATOM     31  CH2 TRP A   1       7.105   4.521  12.068  0.00  0.00    +0.000 A 
ATOM     32  CZ3 TRP A   1       8.024   5.275  12.792  0.00  0.00    +0.000 A 
ATOM     33  CE3 TRP A   1       7.939   5.346  14.187  0.00  0.00    +0.000 A 
ATOM     34  CD2 TRP A   1       6.927   4.631  14.858  0.00  0.00    +0.000 A 
ATOM     35  HE1 TRP A   1       4.336   2.759  14.716  0.00  0.00    +0.000 HD
ENDBRANCH  25  26
ENDBRANCH  20  25
ENDBRANCH   3  20
TORSDOF 10
ENDMDL
MODEL 6
REMARK VINA RESULT:      -6.8      2.783      7.721
REMARK  Name = 
REMARK  11 active torsions:
REMARK  status: ('A' for Active; 'I' for Inactive)
REMARK    1  A    between atoms: C_1  and  O_2
REMARK    2  A    between atoms: O_2  and  C_3
REMARK    3  A    between atoms: C_11  and  C_12
REMARK    4  A    between atoms: C_12  and  C_13
REMARK    5  A    between atoms: C_12  and  C_15
REMARK    6  A    between atoms: C_13  and  S_14
REMARK    7  A    between atoms: N_17  and  CA_18
REMARK    8  A    between atoms: CA_18  and  CB_19
REMARK    9  A    between atoms: CA_18  and  C_29
REMARK   10  A    between atoms: CB_19  and  CG_20
REMARK   11  A    between atoms: C_29  and  OXT_31
REMARK                            x       y       z     vdW  Elec       q    Type
REMARK                         _______ _______ _______ _____ _____    ______ ____
ROOT
ATOM      1  C   UNK A   0       2.607   6.561  19.764  0.00  0.00    +0.000 C 
ATOM      2  O   UNK A   0       3.030   7.061  18.722  0.00  0.00    +0.000 OA
ATOM      3  N   TRP A   1       1.815   7.278  20.622  0.00  0.00    +0.000 N 
ATOM      4  H   TRP A   1       1.373   6.841  21.425  0.00  0.00    +0.000 HD
ENDROOT
BRANCH   1   5
ATOM      5  C   UNK A   0       2.920   5.134  20.191  0.00  0.00    +0.000 C 
BRANCH   5  14
ATOM      6  C   UNK A   0       6.608   4.677  16.399  0.00  0.00    +0.000 A 
ATOM      7  C   UNK A   0       6.764   5.058  17.739  0.00  0.00    +0.000 A 
ATOM      8  C   UNK A   0       5.706   4.943  18.648  0.00  0.00    +0.000 A 
ATOM      9  C   UNK A   0       4.476   4.499  18.196  0.00  0.00    +0.000 A 
ATOM     10  C   UNK A   0       4.304   4.161  16.848  0.00  0.00    +0.000 A 
ATOM     11  C   UNK A   0       5.362   4.223  15.949  0.00  0.00    +0.000 A 
ATOM     12  C   UNK A   0       2.902   3.705  16.584  0.00  0.00    +0.000 C 
ATOM     13  C   UNK A   0       2.173   4.230  17.837  0.00  0.00    +0.000 C 
ATOM     14  C   UNK A   0       3.215   4.221  18.980  0.00  0.00    +0.000 C 
BRANCH   6  16
ATOM     15  C   UNK A   0       7.174   4.846  14.101  0.00  0.00    +0.000 C 
ATOM     16  O   UNK A   0       7.599   4.700  15.452  0.00  0.00    +0.000 OA
ENDBRANCH   6  16
ENDBRANCH   5  14
BRANCH   5  17
ATOM     17  C   UNK A   0       1.744   4.703  21.082  0.00  0.00    +0.000 C 
BRANCH  17  18
ATOM     18  S   UNK A   0       1.694   2.940  21.511  0.00  0.00    +0.000 S 
ATOM     19  H   UNK A   0       1.188   2.519  20.343  0.00  0.00    +0.000 HD
ENDBRANCH  17  18
ENDBRANCH   5  17
ENDBRANCH   1   5
BRANCH   3  20
ATOM     20  CA  TRP A   1       1.464   8.678  20.374  0.00  0.00    +0.000 C 
BRANCH  20  21
ATOM     21  C   TRP A   1       0.595   9.160  21.547  0.00  0.00    +0.000 C 
ATOM     22  O   TRP A   1       0.852  10.138  22.236  0.00  0.00    +0.000 OA
BRANCH  21  23
ATOM     23  OXT TRP A   1      -0.516   8.410  21.763  0.00  0.00    +0.000 OA
ATOM     24  HXT TRP A   1      -0.514   7.550  21.305  0.00  0.00    +0.000 HD
ENDBRANCH  21  23
ENDBRANCH  20  21
BRANCH  20  25
ATOM     25  CB  TRP A   1       0.775   8.890  19.010  0.00  0.00    +0.000 C 
BRANCH  25  26
ATOM     26  CG  TRP A   1       0.022  10.182  18.950  0.00  0.00    +0.000 A 
ATOM     27  CD1 TRP A   1      -1.341  10.326  18.779  0.00  0.00    +0.000 A 
ATOM     28  NE1 TRP A   1      -1.606  11.655  18.582  0.00  0.00    +0.000 N 
ATOM     29  CE2 TRP A   1      -0.444  12.386  18.651  0.00  0.00    +0.000 A 
ATOM     30  CZ2 TRP A   1      -0.226  13.755  18.461  0.00  0.00    +0.000 A 
ATOM     31  CH2 TRP A   1       1.086  14.225  18.584  0.00  0.00    +0.000 A 
ATOM     32  CZ3 TRP A   1       2.130  13.366  18.914  0.00  0.00    +0.000 A 
ATOM     33  CE3 TRP A   1       1.890  12.002  19.107  0.00  0.00    +0.000 A 
ATOM     34  CD2 TRP A   1       0.584  11.497  18.946  0.00  0.00    +0.000 A 
ATOM     35  HE1 TRP A   1      -2.515  12.041  18.369  0.00  0.00    +0.000 HD
ENDBRANCH  25  26
ENDBRANCH  20  25
ENDBRANCH   3  20
TORSDOF 10
ENDMDL
MODEL 7
REMARK VINA RESULT:      -6.8      5.534     10.580
REMARK  Name = 
REMARK  11 active torsions:
REMARK  status: ('A' for Active; 'I' for Inactive)
REMARK    1  A    between atoms: C_1  and  O_2
REMARK    2  A    between atoms: O_2  and  C_3
REMARK    3  A    between atoms: C_11  and  C_12
REMARK    4  A    between atoms: C_12  and  C_13
REMARK    5  A    between atoms: C_12  and  C_15
REMARK    6  A    between atoms: C_13  and  S_14
REMARK    7  A    between atoms: N_17  and  CA_18
REMARK    8  A    between atoms: CA_18  and  CB_19
REMARK    9  A    between atoms: CA_18  and  C_29
REMARK   10  A    between atoms: CB_19  and  CG_20
REMARK   11  A    between atoms: C_29  and  OXT_31
REMARK                            x       y       z     vdW  Elec       q    Type
REMARK                         _______ _______ _______ _____ _____    ______ ____
ROOT
ATOM      1  C   UNK A   0      -1.605  11.009  18.637  0.00  0.00    +0.000 C 
ATOM      2  O   UNK A   0      -1.705   9.783  18.661  0.00  0.00    +0.000 OA
ATOM      3  N   TRP A   1      -2.625  11.793  18.166  0.00  0.00    +0.000 N 
ATOM      4  H   TRP A   1      -2.595  12.805  18.244  0.00  0.00    +0.000 HD
ENDROOT
BRANCH   1   5
ATOM      5  C   UNK A   0      -0.365  11.754  19.112  0.00  0.00    +0.000 C 
BRANCH   5  14
ATOM      6  C   UNK A   0       2.562   7.353  18.614  0.00  0.00    +0.000 A 
ATOM      7  C   UNK A   0       2.354   8.384  17.686  0.00  0.00    +0.000 A 
ATOM      8  C   UNK A   0       1.700   9.564  18.056  0.00  0.00    +0.000 A 
ATOM      9  C   UNK A   0       1.205   9.684  19.342  0.00  0.00    +0.000 A 
ATOM     10  C   UNK A   0       1.370   8.637  20.258  0.00  0.00    +0.000 A 
ATOM     11  C   UNK A   0       2.063   7.482  19.915  0.00  0.00    +0.000 A 
ATOM     12  C   UNK A   0       0.762   8.983  21.582  0.00  0.00    +0.000 C 
ATOM     13  C   UNK A   0      -0.149  10.166  21.196  0.00  0.00    +0.000 C 
ATOM     14  C   UNK A   0       0.535  10.867  20.000  0.00  0.00    +0.000 C 
BRANCH   6  16
ATOM     15  C   UNK A   0       3.739   5.492  19.498  0.00  0.00    +0.000 C 
ATOM     16  O   UNK A   0       3.241   6.189  18.360  0.00  0.00    +0.000 OA
ENDBRANCH   6  16
ENDBRANCH   5  14
BRANCH   5  17
ATOM     17  C   UNK A   0      -0.885  13.044  19.765  0.00  0.00    +0.000 C 
BRANCH  17  18
ATOM     18  S   UNK A   0      -0.160  14.586  19.136  0.00  0.00    +0.000 S 
ATOM     19  H   UNK A   0      -1.090  14.813  18.197  0.00  0.00    +0.000 HD
ENDBRANCH  17  18
ENDBRANCH   5  17
ENDBRANCH   1   5
BRANCH   3  20
ATOM     20  CA  TRP A   1      -3.863  11.223  17.630  0.00  0.00    +0.000 C 
BRANCH  20  21
ATOM     21  C   TRP A   1      -3.661  10.993  16.124  0.00  0.00    +0.000 C 
ATOM     22  O   TRP A   1      -2.591  11.123  15.546  0.00  0.00    +0.000 OA
BRANCH  21  23
ATOM     23  OXT TRP A   1      -4.784  10.612  15.462  0.00  0.00    +0.000 OA
ATOM     24  HXT TRP A   1      -4.665  10.500  14.501  0.00  0.00    +0.000 HD
ENDBRANCH  21  23
ENDBRANCH  20  21
BRANCH  20  25
ATOM     25  CB  TRP A   1      -5.101  12.094  17.928  0.00  0.00    +0.000 C 
BRANCH  25  26
ATOM     26  CG  TRP A   1      -6.012  11.461  18.934  0.00  0.00    +0.000 A 
ATOM     27  CD1 TRP A   1      -6.847  10.383  18.715  0.00  0.00    +0.000 A 
ATOM     28  NE1 TRP A   1      -7.648  10.237  19.815  0.00  0.00    +0.000 N 
ATOM     29  CE2 TRP A   1      -7.332  11.182  20.762  0.00  0.00    +0.000 A 
ATOM     30  CZ2 TRP A   1      -7.916  11.445  22.006  0.00  0.00    +0.000 A 
ATOM     31  CH2 TRP A   1      -7.384  12.495  22.763  0.00  0.00    +0.000 A 
ATOM     32  CZ3 TRP A   1      -6.294  13.229  22.307  0.00  0.00    +0.000 A 
ATOM     33  CE3 TRP A   1      -5.719  12.946  21.063  0.00  0.00    +0.000 A 
ATOM     34  CD2 TRP A   1      -6.265  11.922  20.263  0.00  0.00    +0.000 A 
ATOM     35  HE1 TRP A   1      -8.398   9.564  19.904  0.00  0.00    +0.000 HD
ENDBRANCH  25  26
ENDBRANCH  20  25
ENDBRANCH   3  20
TORSDOF 10
ENDMDL
MODEL 8
REMARK VINA RESULT:      -6.8      2.977      7.999
REMARK  Name = 
REMARK  11 active torsions:
REMARK  status: ('A' for Active; 'I' for Inactive)
REMARK    1  A    between atoms: C_1  and  O_2
REMARK    2  A    between atoms: O_2  and  C_3
REMARK    3  A    between atoms: C_11  and  C_12
REMARK    4  A    between atoms: C_12  and  C_13
REMARK    5  A    between atoms: C_12  and  C_15
REMARK    6  A    between atoms: C_13  and  S_14
REMARK    7  A    between atoms: N_17  and  CA_18
REMARK    8  A    between atoms: CA_18  and  CB_19
REMARK    9  A    between atoms: CA_18  and  C_29
REMARK   10  A    between atoms: CB_19  and  CG_20
REMARK   11  A    between atoms: C_29  and  OXT_31
REMARK                            x       y       z     vdW  Elec       q    Type
REMARK                         _______ _______ _______ _____ _____    ______ ____
ROOT
ATOM      1  C   UNK A   0       2.355   6.522  20.121  0.00  0.00    +0.000 C 
ATOM      2  O   UNK A   0       2.560   7.058  19.031  0.00  0.00    +0.000 OA
ATOM      3  N   TRP A   1       1.722   7.194  21.132  0.00  0.00    +0.000 N 
ATOM      4  H   TRP A   1       1.453   6.726  21.992  0.00  0.00    +0.000 HD
ENDROOT
BRANCH   1   5
ATOM      5  C   UNK A   0       2.783   5.097  20.441  0.00  0.00    +0.000 C 
BRANCH   5  14
ATOM      6  C   UNK A   0       6.507   4.815  16.669  0.00  0.00    +0.000 A 
ATOM      7  C   UNK A   0       6.657   5.078  18.038  0.00  0.00    +0.000 A 
ATOM      8  C   UNK A   0       5.583   4.928  18.921  0.00  0.00    +0.000 A 
ATOM      9  C   UNK A   0       4.343   4.570  18.419  0.00  0.00    +0.000 A 
ATOM     10  C   UNK A   0       4.180   4.351  17.045  0.00  0.00    +0.000 A 
ATOM     11  C   UNK A   0       5.253   4.448  16.167  0.00  0.00    +0.000 A 
ATOM     12  C   UNK A   0       2.766   3.972  16.728  0.00  0.00    +0.000 C 
ATOM     13  C   UNK A   0       2.039   4.420  18.012  0.00  0.00    +0.000 C 
ATOM     14  C   UNK A   0       3.062   4.277  19.163  0.00  0.00    +0.000 C 
BRANCH   6  16
ATOM     15  C   UNK A   0       7.107   4.878  14.373  0.00  0.00    +0.000 C 
ATOM     16  O   UNK A   0       7.513   4.878  15.739  0.00  0.00    +0.000 OA
ENDBRANCH   6  16
ENDBRANCH   5  14
BRANCH   5  17
ATOM     17  C   UNK A   0       1.691   4.538  21.368  0.00  0.00    +0.000 C 
BRANCH  17  18
ATOM     18  S   UNK A   0       1.675   2.733  21.557  0.00  0.00    +0.000 S 
ATOM     19  H   UNK A   0       2.161   2.454  20.338  0.00  0.00    +0.000 HD
ENDBRANCH  17  18
ENDBRANCH   5  17
ENDBRANCH   1   5
BRANCH   3  20
ATOM     20  CA  TRP A   1       1.293   8.588  20.993  0.00  0.00    +0.000 C 
BRANCH  20  21
ATOM     21  C   TRP A   1       1.398   9.252  22.376  0.00  0.00    +0.000 C 
ATOM     22  O   TRP A   1       0.448   9.720  22.988  0.00  0.00    +0.000 OA
BRANCH  21  23
ATOM     23  OXT TRP A   1       2.655   9.271  22.892  0.00  0.00    +0.000 OA
ATOM     24  HXT TRP A   1       3.329   9.638  22.292  0.00  0.00    +0.000 HD
ENDBRANCH  21  23
ENDBRANCH  20  21
BRANCH  20  25
ATOM     25  CB  TRP A   1      -0.119   8.722  20.386  0.00  0.00    +0.000 C 
BRANCH  25  26
ATOM     26  CG  TRP A   1      -0.208   9.846  19.402  0.00  0.00    +0.000 A 
ATOM     27  CD1 TRP A   1       0.709  10.867  19.243  0.00  0.00    +0.000 A 
ATOM     28  NE1 TRP A   1       0.170  11.791  18.388  0.00  0.00    +0.000 N 
ATOM     29  CE2 TRP A   1      -1.070  11.379  17.962  0.00  0.00    +0.000 A 
ATOM     30  CZ2 TRP A   1      -2.001  12.019  17.136  0.00  0.00    +0.000 A 
ATOM     31  CH2 TRP A   1      -3.205  11.354  16.881  0.00  0.00    +0.000 A 
ATOM     32  CZ3 TRP A   1      -3.454  10.090  17.406  0.00  0.00    +0.000 A 
ATOM     33  CE3 TRP A   1      -2.508   9.464  18.224  0.00  0.00    +0.000 A 
ATOM     34  CD2 TRP A   1      -1.306  10.131  18.532  0.00  0.00    +0.000 A 
ATOM     35  HE1 TRP A   1       0.598  12.673  18.140  0.00  0.00    +0.000 HD
ENDBRANCH  25  26
ENDBRANCH  20  25
ENDBRANCH   3  20
TORSDOF 10
ENDMDL
MODEL 9
REMARK VINA RESULT:      -6.7      5.478     10.371
REMARK  Name = 
REMARK  11 active torsions:
REMARK  status: ('A' for Active; 'I' for Inactive)
REMARK    1  A    between atoms: C_1  and  O_2
REMARK    2  A    between atoms: O_2  and  C_3
REMARK    3  A    between atoms: C_11  and  C_12
REMARK    4  A    between atoms: C_12  and  C_13
REMARK    5  A    between atoms: C_12  and  C_15
REMARK    6  A    between atoms: C_13  and  S_14
REMARK    7  A    between atoms: N_17  and  CA_18
REMARK    8  A    between atoms: CA_18  and  CB_19
REMARK    9  A    between atoms: CA_18  and  C_29
REMARK   10  A    between atoms: CB_19  and  CG_20
REMARK   11  A    between atoms: C_29  and  OXT_31
REMARK                            x       y       z     vdW  Elec       q    Type
REMARK                         _______ _______ _______ _____ _____    ______ ____
ROOT
ATOM      1  C   UNK A   0      -1.624  13.622  20.743  0.00  0.00    +0.000 C 
ATOM      2  O   UNK A   0      -1.585  13.769  19.521  0.00  0.00    +0.000 OA
ATOM      3  N   TRP A   1      -2.819  13.550  21.409  0.00  0.00    +0.000 N 
ATOM      4  H   TRP A   1      -2.861  13.320  22.398  0.00  0.00    +0.000 HD
ENDROOT
BRANCH   1   5
ATOM      5  C   UNK A   0      -0.377  13.517  21.610  0.00  0.00    +0.000 C 
BRANCH   5  14
ATOM      6  C   UNK A   0       1.741   9.956  18.292  0.00  0.00    +0.000 A 
ATOM      7  C   UNK A   0       1.903  11.348  18.311  0.00  0.00    +0.000 A 
ATOM      8  C   UNK A   0       1.417  12.114  19.376  0.00  0.00    +0.000 A 
ATOM      9  C   UNK A   0       0.718  11.487  20.392  0.00  0.00    +0.000 A 
ATOM     10  C   UNK A   0       0.514  10.102  20.353  0.00  0.00    +0.000 A 
ATOM     11  C   UNK A   0       1.038   9.326  19.325  0.00  0.00    +0.000 A 
ATOM     12  C   UNK A   0      -0.260   9.640  21.548  0.00  0.00    +0.000 C 
ATOM     13  C   UNK A   0      -0.851  10.970  22.058  0.00  0.00    +0.000 C 
ATOM     14  C   UNK A   0       0.163  12.071  21.670  0.00  0.00    +0.000 C 
BRANCH   6  16
ATOM     15  C   UNK A   0       2.895   7.945  17.785  0.00  0.00    +0.000 C 
ATOM     16  O   UNK A   0       2.232   9.118  17.323  0.00  0.00    +0.000 OA
ENDBRANCH   6  16
ENDBRANCH   5  14
BRANCH   5  17
ATOM     17  C   UNK A   0      -0.760  14.144  22.960  0.00  0.00    +0.000 C 
BRANCH  17  18
ATOM     18  S   UNK A   0      -0.281  15.881  23.179  0.00  0.00    +0.000 S 
ATOM     19  H   UNK A   0       0.914  15.634  23.736  0.00  0.00    +0.000 HD
ENDBRANCH  17  18
ENDBRANCH   5  17
ENDBRANCH   1   5
BRANCH   3  20
ATOM     20  CA  TRP A   1      -4.105  13.683  20.721  0.00  0.00    +0.000 C 
BRANCH  20  21
ATOM     21  C   TRP A   1      -5.037  14.507  21.623  0.00  0.00    +0.000 C 
ATOM     22  O   TRP A   1      -6.085  15.016  21.247  0.00  0.00    +0.000 OA
BRANCH  21  23
ATOM     23  OXT TRP A   1      -4.612  14.624  22.907  0.00  0.00    +0.000 OA
ATOM     24  HXT TRP A   1      -3.973  15.346  23.054  0.00  0.00    +0.000 HD
ENDBRANCH  21  23
ENDBRANCH  20  21
BRANCH  20  25
ATOM     25  CB  TRP A   1      -4.719  12.322  20.332  0.00  0.00    +0.000 C 
BRANCH  25  26
ATOM     26  CG  TRP A   1      -4.773  12.127  18.849  0.00  0.00    +0.000 A 
ATOM     27  CD1 TRP A   1      -5.811  12.494  18.014  0.00  0.00    +0.000 A 
ATOM     28  NE1 TRP A   1      -5.562  11.970  16.774  0.00  0.00    +0.000 N 
ATOM     29  CE2 TRP A   1      -4.366  11.294  16.775  0.00  0.00    +0.000 A 
ATOM     30  CZ2 TRP A   1      -3.740  10.562  15.759  0.00  0.00    +0.000 A 
ATOM     31  CH2 TRP A   1      -2.512   9.961  16.055  0.00  0.00    +0.000 A 
ATOM     32  CZ3 TRP A   1      -1.921  10.111  17.305  0.00  0.00    +0.000 A 
ATOM     33  CE3 TRP A   1      -2.559  10.852  18.306  0.00  0.00    +0.000 A 
ATOM     34  CD2 TRP A   1      -3.817  11.431  18.046  0.00  0.00    +0.000 A 
ATOM     35  HE1 TRP A   1      -6.187  12.029  15.981  0.00  0.00    +0.000 HD
ENDBRANCH  25  26
ENDBRANCH  20  25
ENDBRANCH   3  20
TORSDOF 10
ENDMDL
