MODEL 1
REMARK VINA RESULT:      -4.3      0.000      0.000
REMARK  Name = 
REMARK  5 active torsions:
REMARK  status: ('A' for Active; 'I' for Inactive)
REMARK    1  A    between atoms: C_1  and  C_2
REMARK    2  A    between atoms: C_2  and  O_4
REMARK    3  A    between atoms: O_4  and  C_5
REMARK    4  A    between atoms: C_5  and  C_6
REMARK    5  A    between atoms: C_6  and  O_8
REMARK                            x       y       z     vdW  Elec       q    Type
REMARK                         _______ _______ _______ _____ _____    ______ ____
ROOT
ATOM      1  C   UNL     1       7.041   4.736  17.880  0.00  0.00    +0.000 C 
ENDROOT
BRANCH   1   2
ATOM      2  C   UNL     1       7.601   5.678  18.943  0.00  0.00    +0.000 C 
ATOM      3  O   UNL     1       7.648   5.397  20.133  0.00  0.00    +0.000 OA
BRANCH   2   4
ATOM      4  O   UNL     1       8.021   6.875  18.473  0.00  0.00    +0.000 OA
ATOM      5  H   UNL     1       8.989   6.909  18.278  0.00  0.00    +0.000 HD
ENDBRANCH   2   4
ENDBRANCH   1   2
BRANCH   1   6
ATOM      6  O   UNL     1       7.859   4.556  16.722  0.00  0.00    +0.000 OA
BRANCH   6   8
ATOM      7  C   UNL     1       5.972   3.902  15.479  0.00  0.00    +0.000 C 
ATOM      8  C   UNL     1       7.223   4.719  15.535  0.00  0.00    +0.000 C 
ATOM      9  O   UNL     1       7.659   5.399  14.615  0.00  0.00    +0.000 OA
ENDBRANCH   6   8
ENDBRANCH   1   6
TORSDOF 4
ENDMDL
MODEL 2
REMARK VINA RESULT:      -4.1      1.179      1.536
REMARK  Name = 
REMARK  5 active torsions:
REMARK  status: ('A' for Active; 'I' for Inactive)
REMARK    1  A    between atoms: C_1  and  C_2
REMARK    2  A    between atoms: C_2  and  O_4
REMARK    3  A    between atoms: O_4  and  C_5
REMARK    4  A    between atoms: C_5  and  C_6
REMARK    5  A    between atoms: C_6  and  O_8
REMARK                            x       y       z     vdW  Elec       q    Type
REMARK                         _______ _______ _______ _____ _____    ______ ____
ROOT
ATOM      1  C   UNL     1       6.551   5.569  17.476  0.00  0.00    +0.000 C 
ENDROOT
BRANCH   1   2
ATOM      2  C   UNL     1       6.471   4.927  18.859  0.00  0.00    +0.000 C 
ATOM      3  O   UNL     1       6.994   5.408  19.855  0.00  0.00    +0.000 OA
BRANCH   2   4
ATOM      4  O   UNL     1       5.796   3.756  18.900  0.00  0.00    +0.000 OA
ATOM      5  H   UNL     1       5.141   3.700  19.638  0.00  0.00    +0.000 HD
ENDBRANCH   2   4
ENDBRANCH   1   2
BRANCH   1   6
ATOM      6  O   UNL     1       7.532   5.018  16.595  0.00  0.00    +0.000 OA
BRANCH   6   8
ATOM      7  C   UNL     1       5.989   3.912  15.205  0.00  0.00    +0.000 C 
ATOM      8  C   UNL     1       7.132   4.871  15.307  0.00  0.00    +0.000 C 
ATOM      9  O   UNL     1       7.685   5.407  14.355  0.00  0.00    +0.000 OA
ENDBRANCH   6   8
ENDBRANCH   1   6
TORSDOF 4
ENDMDL
MODEL 3
REMARK VINA RESULT:      -4.1      1.176      3.987
REMARK  Name = 
REMARK  5 active torsions:
REMARK  status: ('A' for Active; 'I' for Inactive)
REMARK    1  A    between atoms: C_1  and  C_2
REMARK    2  A    between atoms: C_2  and  O_4
REMARK    3  A    between atoms: O_4  and  C_5
REMARK    4  A    between atoms: C_5  and  C_6
REMARK    5  A    between atoms: C_6  and  O_8
REMARK                            x       y       z     vdW  Elec       q    Type
REMARK                         _______ _______ _______ _____ _____    ______ ____
ROOT
ATOM      1  C   UNL     1       6.614   4.392  16.500  0.00  0.00    +0.000 C 
ENDROOT
BRANCH   1   2
ATOM      2  C   UNL     1       6.742   4.589  14.991  0.00  0.00    +0.000 C 
ATOM      3  O   UNL     1       6.017   4.032  14.177  0.00  0.00    +0.000 OA
BRANCH   2   4
ATOM      4  O   UNL     1       7.746   5.410  14.611  0.00  0.00    +0.000 OA
ATOM      5  H   UNL     1       8.080   5.235  13.698  0.00  0.00    +0.000 HD
ENDBRANCH   2   4
ENDBRANCH   1   2
BRANCH   1   6
ATOM      6  O   UNL     1       7.771   4.731  17.266  0.00  0.00    +0.000 OA
BRANCH   6   8
ATOM      7  C   UNL     1       7.633   7.011  17.832  0.00  0.00    +0.000 C 
ATOM      8  C   UNL     1       7.551   5.591  18.293  0.00  0.00    +0.000 C 
ATOM      9  O   UNL     1       7.375   5.238  19.452  0.00  0.00    +0.000 OA
ENDBRANCH   6   8
ENDBRANCH   1   6
TORSDOF 4
ENDMDL
MODEL 4
REMARK VINA RESULT:      -4.0      1.389      1.583
REMARK  Name = 
REMARK  5 active torsions:
REMARK  status: ('A' for Active; 'I' for Inactive)
REMARK    1  A    between atoms: C_1  and  C_2
REMARK    2  A    between atoms: C_2  and  O_4
REMARK    3  A    between atoms: O_4  and  C_5
REMARK    4  A    between atoms: C_5  and  C_6
REMARK    5  A    between atoms: C_6  and  O_8
REMARK                            x       y       z     vdW  Elec       q    Type
REMARK                         _______ _______ _______ _____ _____    ______ ____
ROOT
ATOM      1  C   UNL     1       7.457   6.237  18.108  0.00  0.00    +0.000 C 
ENDROOT
BRANCH   1   2
ATOM      2  C   UNL     1       7.075   5.435  19.350  0.00  0.00    +0.000 C 
ATOM      3  O   UNL     1       6.054   4.765  19.430  0.00  0.00    +0.000 OA
BRANCH   2   4
ATOM      4  O   UNL     1       7.943   5.541  20.381  0.00  0.00    +0.000 OA
ATOM      5  H   UNL     1       8.879   5.339  20.137  0.00  0.00    +0.000 HD
ENDBRANCH   2   4
ENDBRANCH   1   2
BRANCH   1   6
ATOM      6  O   UNL     1       7.594   5.482  16.903  0.00  0.00    +0.000 OA
BRANCH   6   8
ATOM      7  C   UNL     1       6.222   4.116  15.567  0.00  0.00    +0.000 C 
ATOM      8  C   UNL     1       6.507   5.487  16.092  0.00  0.00    +0.000 C 
ATOM      9  O   UNL     1       5.889   6.498  15.785  0.00  0.00    +0.000 OA
ENDBRANCH   6   8
ENDBRANCH   1   6
TORSDOF 4
ENDMDL
MODEL 5
REMARK VINA RESULT:      -4.0      5.473      6.077
REMARK  Name = 
REMARK  5 active torsions:
REMARK  status: ('A' for Active; 'I' for Inactive)
REMARK    1  A    between atoms: C_1  and  C_2
REMARK    2  A    between atoms: C_2  and  O_4
REMARK    3  A    between atoms: O_4  and  C_5
REMARK    4  A    between atoms: C_5  and  C_6
REMARK    5  A    between atoms: C_6  and  O_8
REMARK                            x       y       z     vdW  Elec       q    Type
REMARK                         _______ _______ _______ _____ _____    ______ ____
ROOT
ATOM      1  C   UNL     1       3.305   1.833  18.641  0.00  0.00    +0.000 C 
ENDROOT
BRANCH   1   2
ATOM      2  C   UNL     1       4.407   2.491  19.468  0.00  0.00    +0.000 C 
ATOM      3  O   UNL     1       4.623   3.696  19.463  0.00  0.00    +0.000 OA
BRANCH   2   4
ATOM      4  O   UNL     1       5.157   1.633  20.195  0.00  0.00    +0.000 OA
ATOM      5  H   UNL     1       4.849   0.695  20.148  0.00  0.00    +0.000 HD
ENDBRANCH   2   4
ENDBRANCH   1   2
BRANCH   1   6
ATOM      6  O   UNL     1       1.986   1.931  19.180  0.00  0.00    +0.000 OA
BRANCH   6   8
ATOM      7  C   UNL     1       0.895   3.764  20.172  0.00  0.00    +0.000 C 
ATOM      8  C   UNL     1       1.337   3.091  18.911  0.00  0.00    +0.000 C 
ATOM      9  O   UNL     1       1.095   3.492  17.780  0.00  0.00    +0.000 OA
ENDBRANCH   6   8
ENDBRANCH   1   6
TORSDOF 4
ENDMDL
MODEL 6
REMARK VINA RESULT:      -3.9      2.434      3.542
REMARK  Name = 
REMARK  5 active torsions:
REMARK  status: ('A' for Active; 'I' for Inactive)
REMARK    1  A    between atoms: C_1  and  C_2
REMARK    2  A    between atoms: C_2  and  O_4
REMARK    3  A    between atoms: O_4  and  C_5
REMARK    4  A    between atoms: C_5  and  C_6
REMARK    5  A    between atoms: C_6  and  O_8
REMARK                            x       y       z     vdW  Elec       q    Type
REMARK                         _______ _______ _______ _____ _____    ______ ____
ROOT
ATOM      1  C   UNL     1       5.503   4.968  19.104  0.00  0.00    +0.000 C 
ENDROOT
BRANCH   1   2
ATOM      2  C   UNL     1       4.602   4.176  18.160  0.00  0.00    +0.000 C 
ATOM      3  O   UNL     1       3.892   4.699  17.311  0.00  0.00    +0.000 OA
BRANCH   2   4
ATOM      4  O   UNL     1       4.623   2.837  18.349  0.00  0.00    +0.000 OA
ATOM      5  H   UNL     1       3.937   2.513  18.982  0.00  0.00    +0.000 HD
ENDBRANCH   2   4
ENDBRANCH   1   2
BRANCH   1   6
ATOM      6  O   UNL     1       6.898   4.668  19.024  0.00  0.00    +0.000 OA
BRANCH   6   8
ATOM      7  C   UNL     1       7.480   6.602  17.817  0.00  0.00    +0.000 C 
ATOM      8  C   UNL     1       7.519   5.109  17.902  0.00  0.00    +0.000 C 
ATOM      9  O   UNL     1       7.990   4.370  17.046  0.00  0.00    +0.000 OA
ENDBRANCH   6   8
ENDBRANCH   1   6
TORSDOF 4
ENDMDL
MODEL 7
REMARK VINA RESULT:      -3.9      1.487      1.694
REMARK  Name = 
REMARK  5 active torsions:
REMARK  status: ('A' for Active; 'I' for Inactive)
REMARK    1  A    between atoms: C_1  and  C_2
REMARK    2  A    between atoms: C_2  and  O_4
REMARK    3  A    between atoms: O_4  and  C_5
REMARK    4  A    between atoms: C_5  and  C_6
REMARK    5  A    between atoms: C_6  and  O_8
REMARK                            x       y       z     vdW  Elec       q    Type
REMARK                         _______ _______ _______ _____ _____    ______ ____
ROOT
ATOM      1  C   UNL     1       6.990   6.080  17.588  0.00  0.00    +0.000 C 
ENDROOT
BRANCH   1   2
ATOM      2  C   UNL     1       6.864   5.170  18.807  0.00  0.00    +0.000 C 
ATOM      3  O   UNL     1       7.270   5.477  19.920  0.00  0.00    +0.000 OA
BRANCH   2   4
ATOM      4  O   UNL     1       6.290   3.971  18.560  0.00  0.00    +0.000 OA
ATOM      5  H   UNL     1       5.367   4.035  18.215  0.00  0.00    +0.000 HD
ENDBRANCH   2   4
ENDBRANCH   1   2
BRANCH   1   6
ATOM      6  O   UNL     1       7.312   5.426  16.359  0.00  0.00    +0.000 OA
BRANCH   6   8
ATOM      7  C   UNL     1       6.268   4.025  14.784  0.00  0.00    +0.000 C 
ATOM      8  C   UNL     1       6.299   5.359  15.458  0.00  0.00    +0.000 C 
ATOM      9  O   UNL     1       5.557   6.297  15.195  0.00  0.00    +0.000 OA
ENDBRANCH   6   8
ENDBRANCH   1   6
TORSDOF 4
ENDMDL
MODEL 8
REMARK VINA RESULT:      -3.9      5.848      6.298
REMARK  Name = 
REMARK  5 active torsions:
REMARK  status: ('A' for Active; 'I' for Inactive)
REMARK    1  A    between atoms: C_1  and  C_2
REMARK    2  A    between atoms: C_2  and  O_4
REMARK    3  A    between atoms: O_4  and  C_5
REMARK    4  A    between atoms: C_5  and  C_6
REMARK    5  A    between atoms: C_6  and  O_8
REMARK                            x       y       z     vdW  Elec       q    Type
REMARK                         _______ _______ _______ _____ _____    ______ ____
ROOT
ATOM      1  C   UNL     1       2.723   3.431  20.162  0.00  0.00    +0.000 C 
ENDROOT
BRANCH   1   2
ATOM      2  C   UNL     1       1.510   2.990  20.977  0.00  0.00    +0.000 C 
ATOM      3  O   UNL     1       1.592   2.508  22.099  0.00  0.00    +0.000 OA
BRANCH   2   4
ATOM      4  O   UNL     1       0.321   3.146  20.351  0.00  0.00    +0.000 OA
ATOM      5  H   UNL     1       0.310   2.800  19.425  0.00  0.00    +0.000 HD
ENDBRANCH   2   4
ENDBRANCH   1   2
BRANCH   1   6
ATOM      6  O   UNL     1       2.958   2.698  18.959  0.00  0.00    +0.000 OA
BRANCH   6   8
ATOM      7  C   UNL     1       3.837   3.777  17.062  0.00  0.00    +0.000 C 
ATOM      8  C   UNL     1       2.620   3.343  17.814  0.00  0.00    +0.000 C 
ATOM      9  O   UNL     1       1.466   3.587  17.484  0.00  0.00    +0.000 OA
ENDBRANCH   6   8
ENDBRANCH   1   6
TORSDOF 4
ENDMDL
MODEL 9
REMARK VINA RESULT:      -3.9     10.549     11.283
REMARK  Name = 
REMARK  5 active torsions:
REMARK  status: ('A' for Active; 'I' for Inactive)
REMARK    1  A    between atoms: C_1  and  C_2
REMARK    2  A    between atoms: C_2  and  O_4
REMARK    3  A    between atoms: O_4  and  C_5
REMARK    4  A    between atoms: C_5  and  C_6
REMARK    5  A    between atoms: C_6  and  O_8
REMARK                            x       y       z     vdW  Elec       q    Type
REMARK                         _______ _______ _______ _____ _____    ______ ____
ROOT
ATOM      1  C   UNL     1       8.590   4.373  27.135  0.00  0.00    +0.000 C 
ENDROOT
BRANCH   1   2
ATOM      2  C   UNL     1       7.250   4.602  27.830  0.00  0.00    +0.000 C 
ATOM      3  O   UNL     1       7.014   5.576  28.532  0.00  0.00    +0.000 OA
BRANCH   2   4
ATOM      4  O   UNL     1       6.338   3.623  27.635  0.00  0.00    +0.000 OA
ATOM      5  H   UNL     1       6.571   2.768  28.072  0.00  0.00    +0.000 HD
ENDBRANCH   2   4
ENDBRANCH   1   2
BRANCH   1   6
ATOM      6  O   UNL     1       9.533   3.580  27.857  0.00  0.00    +0.000 OA
BRANCH   6   8
ATOM      7  C   UNL     1      11.709   3.168  28.650  0.00  0.00    +0.000 C 
ATOM      8  C   UNL     1      10.778   4.110  27.955  0.00  0.00    +0.000 C 
ATOM      9  O   UNL     1      11.072   5.237  27.579  0.00  0.00    +0.000 OA
ENDBRANCH   6   8
ENDBRANCH   1   6
TORSDOF 4
ENDMDL
