MODEL 1
REMARK VINA RESULT:      -6.8      0.000      0.000
REMARK  Name = 
REMARK  2 active torsions:
REMARK  status: ('A' for Active; 'I' for Inactive)
REMARK    1  A    between atoms: C_2  and  O_3
REMARK    2  A    between atoms: C_2  and  C_4
REMARK                            x       y       z     vdW  Elec       q    Type
REMARK                         _______ _______ _______ _____ _____    ______ ____
ROOT
ATOM      1  C   UNL     1       2.588   3.549  20.063  0.00  0.00    +0.000 C 
ATOM      2  C   UNL     1       1.425   3.680  19.042  0.00  0.00    +0.000 C 
ATOM      3  C   UNL     1       1.380   2.271  18.432  0.00  0.00    +0.000 C 
ATOM      4  C   UNL     1       2.838   2.302  18.007  0.00  0.00    +0.000 C 
ATOM      5  C   UNL     1       2.979   3.584  17.187  0.00  0.00    +0.000 C 
ATOM      6  O   UNL     1       4.310   4.022  17.452  0.00  0.00    +0.000 OA
ATOM      7  C   UNL     1       4.663   3.625  18.708  0.00  0.00    +0.000 C 
ATOM      8  O   UNL     1       5.643   4.009  19.322  0.00  0.00    +0.000 OA
ATOM      9  C   UNL     1       3.605   2.718  19.263  0.00  0.00    +0.000 C 
ATOM     10  C   UNL     1       1.867   4.488  17.793  0.00  0.00    +0.000 C 
ATOM     11 CL   UNL     1       2.358   6.149  18.151  0.00  0.00    +0.000 Cl
ENDROOT
BRANCH   1  13
ATOM     12  O   UNL     1       2.952   2.271  22.093  0.00  0.00    +0.000 OA
ATOM     13  C   UNL     1       2.175   2.830  21.333  0.00  0.00    +0.000 C 
BRANCH  13  14
ATOM     14  O   UNL     1       0.843   2.856  21.557  0.00  0.00    +0.000 OA
ATOM     15  H   UNL     1       0.403   3.702  21.357  0.00  0.00    +0.000 HD
ENDBRANCH  13  14
ENDBRANCH   1  13
TORSDOF 2
ENDMDL
MODEL 2
REMARK VINA RESULT:      -6.7      3.686      5.754
REMARK  Name = 
REMARK  2 active torsions:
REMARK  status: ('A' for Active; 'I' for Inactive)
REMARK    1  A    between atoms: C_2  and  O_3
REMARK    2  A    between atoms: C_2  and  C_4
REMARK                            x       y       z     vdW  Elec       q    Type
REMARK                         _______ _______ _______ _____ _____    ______ ____
ROOT
ATOM      1  C   UNL     1       6.353   4.583  15.948  0.00  0.00    +0.000 C 
ATOM      2  C   UNL     1       4.867   5.032  15.988  0.00  0.00    +0.000 C 
ATOM      3  C   UNL     1       4.996   6.558  15.864  0.00  0.00    +0.000 C 
ATOM      4  C   UNL     1       5.911   6.678  17.070  0.00  0.00    +0.000 C 
ATOM      5  C   UNL     1       5.162   5.973  18.200  0.00  0.00    +0.000 C 
ATOM      6  O   UNL     1       6.196   5.401  18.999  0.00  0.00    +0.000 OA
ATOM      7  C   UNL     1       7.258   5.101  18.198  0.00  0.00    +0.000 C 
ATOM      8  O   UNL     1       8.213   4.417  18.518  0.00  0.00    +0.000 OA
ATOM      9  C   UNL     1       7.021   5.655  16.824  0.00  0.00    +0.000 C 
ATOM     10  C   UNL     1       4.294   4.938  17.427  0.00  0.00    +0.000 C 
ATOM     11 CL   UNL     1       4.300   3.301  18.095  0.00  0.00    +0.000 Cl
ENDROOT
BRANCH   1  13
ATOM     12  O   UNL     1       7.752   5.396  14.140  0.00  0.00    +0.000 OA
ATOM     13  C   UNL     1       6.930   4.588  14.545  0.00  0.00    +0.000 C 
BRANCH  13  14
ATOM     14  O   UNL     1       6.444   3.602  13.760  0.00  0.00    +0.000 OA
ATOM     15  H   UNL     1       6.605   3.710  12.805  0.00  0.00    +0.000 HD
ENDBRANCH  13  14
ENDBRANCH   1  13
TORSDOF 2
ENDMDL
MODEL 3
REMARK VINA RESULT:      -6.4      2.013      3.573
REMARK  Name = 
REMARK  2 active torsions:
REMARK  status: ('A' for Active; 'I' for Inactive)
REMARK    1  A    between atoms: C_2  and  O_3
REMARK    2  A    between atoms: C_2  and  C_4
REMARK                            x       y       z     vdW  Elec       q    Type
REMARK                         _______ _______ _______ _____ _____    ______ ____
ROOT
ATOM      1  C   UNL     1       3.437   4.182  19.291  0.00  0.00    +0.000 C 
ATOM      2  C   UNL     1       3.001   3.673  17.890  0.00  0.00    +0.000 C 
ATOM      3  C   UNL     1       1.638   4.359  17.716  0.00  0.00    +0.000 C 
ATOM      4  C   UNL     1       1.071   3.780  19.000  0.00  0.00    +0.000 C 
ATOM      5  C   UNL     1       1.290   2.272  18.879  0.00  0.00    +0.000 C 
ATOM      6  O   UNL     1       1.519   1.845  20.221  0.00  0.00    +0.000 OA
ATOM      7  C   UNL     1       2.105   2.863  20.914  0.00  0.00    +0.000 C 
ATOM      8  O   UNL     1       2.619   2.764  22.013  0.00  0.00    +0.000 OA
ATOM      9  C   UNL     1       2.114   4.103  20.071  0.00  0.00    +0.000 C 
ATOM     10  C   UNL     1       2.538   2.193  17.953  0.00  0.00    +0.000 C 
ATOM     11 CL   UNL     1       3.798   1.070  18.481  0.00  0.00    +0.000 Cl
ENDROOT
BRANCH   1  13
ATOM     12  O   UNL     1       4.957   5.956  18.635  0.00  0.00    +0.000 OA
ATOM     13  C   UNL     1       3.968   5.602  19.260  0.00  0.00    +0.000 C 
BRANCH  13  14
ATOM     14  O   UNL     1       3.240   6.464  20.003  0.00  0.00    +0.000 OA
ATOM     15  H   UNL     1       3.753   7.028  20.610  0.00  0.00    +0.000 HD
ENDBRANCH  13  14
ENDBRANCH   1  13
TORSDOF 2
ENDMDL
MODEL 4
REMARK VINA RESULT:      -6.4      2.920      4.816
REMARK  Name = 
REMARK  2 active torsions:
REMARK  status: ('A' for Active; 'I' for Inactive)
REMARK    1  A    between atoms: C_2  and  O_3
REMARK    2  A    between atoms: C_2  and  C_4
REMARK                            x       y       z     vdW  Elec       q    Type
REMARK                         _______ _______ _______ _____ _____    ______ ____
ROOT
ATOM      1  C   UNL     1       6.629   5.183  18.343  0.00  0.00    +0.000 C 
ATOM      2  C   UNL     1       6.190   5.879  17.026  0.00  0.00    +0.000 C 
ATOM      3  C   UNL     1       5.222   6.952  17.545  0.00  0.00    +0.000 C 
ATOM      4  C   UNL     1       4.338   5.948  18.263  0.00  0.00    +0.000 C 
ATOM      5  C   UNL     1       3.976   4.914  17.197  0.00  0.00    +0.000 C 
ATOM      6  O   UNL     1       3.873   3.689  17.922  0.00  0.00    +0.000 OA
ATOM      7  C   UNL     1       4.722   3.734  18.988  0.00  0.00    +0.000 C 
ATOM      8  O   UNL     1       5.034   2.784  19.683  0.00  0.00    +0.000 OA
ATOM      9  C   UNL     1       5.298   5.113  19.111  0.00  0.00    +0.000 C 
ATOM     10  C   UNL     1       5.194   4.994  16.232  0.00  0.00    +0.000 C 
ATOM     11 CL   UNL     1       5.862   3.436  15.730  0.00  0.00    +0.000 Cl
ENDROOT
BRANCH   1  13
ATOM     12  O   UNL     1       8.251   6.957  18.672  0.00  0.00    +0.000 OA
ATOM     13  C   UNL     1       7.662   5.982  19.113  0.00  0.00    +0.000 C 
BRANCH  13  14
ATOM     14  O   UNL     1       7.886   5.511  20.360  0.00  0.00    +0.000 OA
ATOM     15  H   UNL     1       7.288   5.853  21.049  0.00  0.00    +0.000 HD
ENDBRANCH  13  14
ENDBRANCH   1  13
TORSDOF 2
ENDMDL
MODEL 5
REMARK VINA RESULT:      -6.4      2.279      3.587
REMARK  Name = 
REMARK  2 active torsions:
REMARK  status: ('A' for Active; 'I' for Inactive)
REMARK    1  A    between atoms: C_2  and  O_3
REMARK    2  A    between atoms: C_2  and  C_4
REMARK                            x       y       z     vdW  Elec       q    Type
REMARK                         _______ _______ _______ _____ _____    ______ ____
ROOT
ATOM      1  C   UNL     1       2.588   4.945  19.814  0.00  0.00    +0.000 C 
ATOM      2  C   UNL     1       2.922   4.407  18.396  0.00  0.00    +0.000 C 
ATOM      3  C   UNL     1       1.533   4.359  17.742  0.00  0.00    +0.000 C 
ATOM      4  C   UNL     1       0.944   3.474  18.826  0.00  0.00    +0.000 C 
ATOM      5  C   UNL     1       1.890   2.277  18.910  0.00  0.00    +0.000 C 
ATOM      6  O   UNL     1       1.859   1.904  20.287  0.00  0.00    +0.000 OA
ATOM      7  C   UNL     1       1.626   3.017  21.040  0.00  0.00    +0.000 C 
ATOM      8  O   UNL     1       1.745   3.088  22.250  0.00  0.00    +0.000 OA
ATOM      9  C   UNL     1       1.300   4.171  20.140  0.00  0.00    +0.000 C 
ATOM     10  C   UNL     1       3.240   2.889  18.436  0.00  0.00    +0.000 C 
ATOM     11 CL   UNL     1       4.645   2.477  19.429  0.00  0.00    +0.000 Cl
ENDROOT
BRANCH   1  13
ATOM     12  O   UNL     1       2.673   7.206  18.936  0.00  0.00    +0.000 OA
ATOM     13  C   UNL     1       2.344   6.442  19.831  0.00  0.00    +0.000 C 
BRANCH  13  14
ATOM     14  O   UNL     1       1.720   6.872  20.950  0.00  0.00    +0.000 OA
ATOM     15  H   UNL     1       1.501   7.821  20.967  0.00  0.00    +0.000 HD
ENDBRANCH  13  14
ENDBRANCH   1  13
TORSDOF 2
ENDMDL
MODEL 6
REMARK VINA RESULT:      -6.4      1.871      3.029
REMARK  Name = 
REMARK  2 active torsions:
REMARK  status: ('A' for Active; 'I' for Inactive)
REMARK    1  A    between atoms: C_2  and  O_3
REMARK    2  A    between atoms: C_2  and  C_4
REMARK                            x       y       z     vdW  Elec       q    Type
REMARK                         _______ _______ _______ _____ _____    ______ ____
ROOT
ATOM      1  C   UNL     1       3.606   2.845  19.786  0.00  0.00    +0.000 C 
ATOM      2  C   UNL     1       3.055   3.564  21.047  0.00  0.00    +0.000 C 
ATOM      3  C   UNL     1       2.000   2.565  21.544  0.00  0.00    +0.000 C 
ATOM      4  C   UNL     1       1.247   2.553  20.226  0.00  0.00    +0.000 C 
ATOM      5  C   UNL     1       0.957   4.024  19.927  0.00  0.00    +0.000 C 
ATOM      6  O   UNL     1       1.004   4.106  18.503  0.00  0.00    +0.000 OA
ATOM      7  C   UNL     1       1.879   3.170  18.036  0.00  0.00    +0.000 C 
ATOM      8  O   UNL     1       2.309   3.111  16.898  0.00  0.00    +0.000 OA
ATOM      9  C   UNL     1       2.316   2.284  19.165  0.00  0.00    +0.000 C 
ATOM     10  C   UNL     1       2.128   4.745  20.656  0.00  0.00    +0.000 C 
ATOM     11 CL   UNL     1       2.934   6.009  19.717  0.00  0.00    +0.000 Cl
ENDROOT
BRANCH   1  13
ATOM     12  O   UNL     1       5.243   1.680  21.147  0.00  0.00    +0.000 OA
ATOM     13  C   UNL     1       4.578   1.730  20.123  0.00  0.00    +0.000 C 
BRANCH  13  14
ATOM     14  O   UNL     1       4.650   0.774  19.172  0.00  0.00    +0.000 OA
ATOM     15  H   UNL     1       4.898   1.086  18.283  0.00  0.00    +0.000 HD
ENDBRANCH  13  14
ENDBRANCH   1  13
TORSDOF 2
ENDMDL
MODEL 7
REMARK VINA RESULT:      -6.4      1.513      3.729
REMARK  Name = 
REMARK  2 active torsions:
REMARK  status: ('A' for Active; 'I' for Inactive)
REMARK    1  A    between atoms: C_2  and  O_3
REMARK    2  A    between atoms: C_2  and  C_4
REMARK                            x       y       z     vdW  Elec       q    Type
REMARK                         _______ _______ _______ _____ _____    ______ ____
ROOT
ATOM      1  C   UNL     1       3.554   3.517  19.123  0.00  0.00    +0.000 C 
ATOM      2  C   UNL     1       2.470   4.153  18.212  0.00  0.00    +0.000 C 
ATOM      3  C   UNL     1       2.467   5.610  18.696  0.00  0.00    +0.000 C 
ATOM      4  C   UNL     1       2.191   5.234  20.141  0.00  0.00    +0.000 C 
ATOM      5  C   UNL     1       0.945   4.350  20.084  0.00  0.00    +0.000 C 
ATOM      6  O   UNL     1       1.128   3.421  21.151  0.00  0.00    +0.000 OA
ATOM      7  C   UNL     1       2.464   3.212  21.330  0.00  0.00    +0.000 C 
ATOM      8  O   UNL     1       2.957   2.329  22.009  0.00  0.00    +0.000 OA
ATOM      9  C   UNL     1       3.240   4.173  20.478  0.00  0.00    +0.000 C 
ATOM     10  C   UNL     1       1.046   3.729  18.660  0.00  0.00    +0.000 C 
ATOM     11 CL   UNL     1       0.756   1.987  18.576  0.00  0.00    +0.000 Cl
ENDROOT
BRANCH   1  13
ATOM     12  O   UNL     1       5.810   4.373  19.380  0.00  0.00    +0.000 OA
ATOM     13  C   UNL     1       4.965   3.845  18.673  0.00  0.00    +0.000 C 
BRANCH  13  14
ATOM     14  O   UNL     1       5.214   3.499  17.391  0.00  0.00    +0.000 OA
ATOM     15  H   UNL     1       5.298   4.242  16.766  0.00  0.00    +0.000 HD
ENDBRANCH  13  14
ENDBRANCH   1  13
TORSDOF 2
ENDMDL
MODEL 8
REMARK VINA RESULT:      -6.3      2.080      2.541
REMARK  Name = 
REMARK  2 active torsions:
REMARK  status: ('A' for Active; 'I' for Inactive)
REMARK    1  A    between atoms: C_2  and  O_3
REMARK    2  A    between atoms: C_2  and  C_4
REMARK                            x       y       z     vdW  Elec       q    Type
REMARK                         _______ _______ _______ _____ _____    ______ ____
ROOT
ATOM      1  C   UNL     1       3.183   4.517  19.241  0.00  0.00    +0.000 C 
ATOM      2  C   UNL     1       2.483   4.477  17.856  0.00  0.00    +0.000 C 
ATOM      3  C   UNL     1       1.150   3.796  18.196  0.00  0.00    +0.000 C 
ATOM      4  C   UNL     1       1.816   2.573  18.802  0.00  0.00    +0.000 C 
ATOM      5  C   UNL     1       2.777   2.077  17.723  0.00  0.00    +0.000 C 
ATOM      6  O   UNL     1       3.872   1.531  18.458  0.00  0.00    +0.000 OA
ATOM      7  C   UNL     1       3.994   2.207  19.636  0.00  0.00    +0.000 C 
ATOM      8  O   UNL     1       4.943   2.137  20.395  0.00  0.00    +0.000 OA
ATOM      9  C   UNL     1       2.826   3.132  19.806  0.00  0.00    +0.000 C 
ATOM     10  C   UNL     1       3.106   3.385  16.947  0.00  0.00    +0.000 C 
ATOM     11 CL   UNL     1       4.820   3.639  16.592  0.00  0.00    +0.000 Cl
ENDROOT
BRANCH   1  13
ATOM     12  O   UNL     1       2.491   6.780  19.778  0.00  0.00    +0.000 OA
ATOM     13  C   UNL     1       2.655   5.623  20.134  0.00  0.00    +0.000 C 
BRANCH  13  14
ATOM     14  O   UNL     1       2.375   5.212  21.391  0.00  0.00    +0.000 OA
ATOM     15  H   UNL     1       2.899   5.636  22.095  0.00  0.00    +0.000 HD
ENDBRANCH  13  14
ENDBRANCH   1  13
TORSDOF 2
ENDMDL
MODEL 9
REMARK VINA RESULT:      -6.3      1.668      2.272
REMARK  Name = 
REMARK  2 active torsions:
REMARK  status: ('A' for Active; 'I' for Inactive)
REMARK    1  A    between atoms: C_2  and  O_3
REMARK    2  A    between atoms: C_2  and  C_4
REMARK                            x       y       z     vdW  Elec       q    Type
REMARK                         _______ _______ _______ _____ _____    ______ ____
ROOT
ATOM      1  C   UNL     1       2.863   3.643  20.078  0.00  0.00    +0.000 C 
ATOM      2  C   UNL     1       3.150   5.167  20.003  0.00  0.00    +0.000 C 
ATOM      3  C   UNL     1       1.893   5.689  19.291  0.00  0.00    +0.000 C 
ATOM      4  C   UNL     1       2.069   4.772  18.094  0.00  0.00    +0.000 C 
ATOM      5  C   UNL     1       3.494   5.032  17.609  0.00  0.00    +0.000 C 
ATOM      6  O   UNL     1       3.925   3.770  17.101  0.00  0.00    +0.000 OA
ATOM      7  C   UNL     1       3.296   2.778  17.794  0.00  0.00    +0.000 C 
ATOM      8  O   UNL     1       3.589   1.596  17.758  0.00  0.00    +0.000 OA
ATOM      9  C   UNL     1       2.254   3.376  18.691  0.00  0.00    +0.000 C 
ATOM     10  C   UNL     1       4.211   5.482  18.915  0.00  0.00    +0.000 C 
ATOM     11 CL   UNL     1       5.784   4.730  19.209  0.00  0.00    +0.000 Cl
ENDROOT
BRANCH   1  13
ATOM     12  O   UNL     1       2.168   3.250  22.369  0.00  0.00    +0.000 OA
ATOM     13  C   UNL     1       1.886   3.283  21.181  0.00  0.00    +0.000 C 
BRANCH  13  14
ATOM     14  O   UNL     1       0.647   2.992  20.727  0.00  0.00    +0.000 OA
ATOM     15  H   UNL     1       0.558   2.132  20.278  0.00  0.00    +0.000 HD
ENDBRANCH  13  14
ENDBRANCH   1  13
TORSDOF 2
ENDMDL
