MODEL 1
REMARK VINA RESULT:      -7.8      0.000      0.000
REMARK  Name = 
REMARK  6 active torsions:
REMARK  status: ('A' for Active; 'I' for Inactive)
REMARK    1  A    between atoms: O_1  and  C_2
REMARK    2  A    between atoms: C_6  and  C_7
REMARK    3  A    between atoms: N_8  and  N_9
REMARK    4  A    between atoms: C_10  and  S_11
REMARK    5  A    between atoms: C_14  and  C_15
REMARK    6  A    between atoms: C_23  and  O_24
REMARK                            x       y       z     vdW  Elec       q    Type
REMARK                         _______ _______ _______ _____ _____    ______ ____
ROOT
ATOM      1  C   UNL     1       2.944   6.179  20.082  0.00  0.00    +0.000 C 
ATOM      2  N   UNL     1       2.627   5.085  19.462  0.00  0.00    +0.000 NA
ENDROOT
BRANCH   1   7
ATOM      3  C   UNL     1       0.649   9.783  19.702  0.00  0.00    +0.000 A 
ATOM      4  C   UNL     1       0.609   9.033  20.877  0.00  0.00    +0.000 A 
ATOM      5 BR   UNL     1      -0.444   9.589  22.351  0.00  0.00    +0.000 Br
ATOM      6  C   UNL     1       1.357   7.858  20.985  0.00  0.00    +0.000 A 
ATOM      7  C   UNL     1       2.147   7.420  19.909  0.00  0.00    +0.000 A 
ATOM      8  C   UNL     1       2.195   8.178  18.727  0.00  0.00    +0.000 A 
ATOM      9 BR   UNL     1       3.293   7.696  17.247  0.00  0.00    +0.000 Br
ATOM     10  C   UNL     1       1.441   9.358  18.633  0.00  0.00    +0.000 A 
BRANCH   3  11
ATOM     11  O   UNL     1      -0.071  10.941  19.570  0.00  0.00    +0.000 OA
ATOM     12  H   UNL     1      -0.807  10.921  20.207  0.00  0.00    +0.000 HD
ENDBRANCH   3  11
BRANCH  10  13
ATOM     13  O   UNL     1       1.464  10.136  17.503  0.00  0.00    +0.000 OA
ATOM     14  H   UNL     1       0.743  10.787  17.555  0.00  0.00    +0.000 HD
ENDBRANCH  10  13
ENDBRANCH   1   7
BRANCH   2  15
ATOM     15  N   UNL     1       3.364   3.969  19.821  0.00  0.00    +0.000 N 
ATOM     16  C   UNL     1       3.009   2.903  20.636  0.00  0.00    +0.000 A 
ATOM     17  N   UNL     1       3.976   2.022  20.689  0.00  0.00    +0.000 NA
ATOM     18  N   UNL     1       4.984   2.466  19.879  0.00  0.00    +0.000 NA
ATOM     19  C   UNL     1       4.620   3.614  19.329  0.00  0.00    +0.000 A 
BRANCH  19  20
ATOM     20  C   UNL     1       5.479   4.420  18.454  0.00  0.00    +0.000 A 
ATOM     21  C   UNL     1       5.391   4.394  17.055  0.00  0.00    +0.000 A 
ATOM     22  C   UNL     1       6.201   5.221  16.271  0.00  0.00    +0.000 A 
ATOM     23  C   UNL     1       7.121   6.075  16.870  0.00  0.00    +0.000 A 
ATOM     24  C   UNL     1       7.251   6.086  18.255  0.00  0.00    +0.000 A 
ATOM     25  C   UNL     1       6.441   5.261  19.038  0.00  0.00    +0.000 A 
ENDBRANCH  19  20
BRANCH  16  26
ATOM     26  S   UNL     1       1.481   2.708  21.433  0.00  0.00    +0.000 S 
ATOM     27  H   UNL     1       1.815   1.757  22.312  0.00  0.00    +0.000 HD
ENDBRANCH  16  26
ENDBRANCH   2  15
TORSDOF 6
ENDMDL
MODEL 2
REMARK VINA RESULT:      -7.7      0.251      1.012
REMARK  Name = 
REMARK  6 active torsions:
REMARK  status: ('A' for Active; 'I' for Inactive)
REMARK    1  A    between atoms: O_1  and  C_2
REMARK    2  A    between atoms: C_6  and  C_7
REMARK    3  A    between atoms: N_8  and  N_9
REMARK    4  A    between atoms: C_10  and  S_11
REMARK    5  A    between atoms: C_14  and  C_15
REMARK    6  A    between atoms: C_23  and  O_24
REMARK                            x       y       z     vdW  Elec       q    Type
REMARK                         _______ _______ _______ _____ _____    ______ ____
ROOT
ATOM      1  C   UNL     1       2.834   6.243  20.191  0.00  0.00    +0.000 C 
ATOM      2  N   UNL     1       2.552   5.186  19.493  0.00  0.00    +0.000 NA
ENDROOT
BRANCH   1   7
ATOM      3  C   UNL     1       0.508   9.840  19.968  0.00  0.00    +0.000 A 
ATOM      4  C   UNL     1       0.514   9.065  21.128  0.00  0.00    +0.000 A 
ATOM      5 BR   UNL     1      -0.489   9.584  22.649  0.00  0.00    +0.000 Br
ATOM      6  C   UNL     1       1.271   7.893  21.184  0.00  0.00    +0.000 A 
ATOM      7  C   UNL     1       2.026   7.482  20.072  0.00  0.00    +0.000 A 
ATOM      8  C   UNL     1       2.027   8.265  18.905  0.00  0.00    +0.000 A 
ATOM      9 BR   UNL     1       3.076   7.821  17.377  0.00  0.00    +0.000 Br
ATOM     10  C   UNL     1       1.265   9.442  18.863  0.00  0.00    +0.000 A 
BRANCH   3  11
ATOM     11  O   UNL     1      -0.222  10.996  19.885  0.00  0.00    +0.000 OA
ATOM     12  H   UNL     1      -1.081  10.849  20.318  0.00  0.00    +0.000 HD
ENDBRANCH   3  11
BRANCH  10  13
ATOM     13  O   UNL     1       1.243  10.244  17.749  0.00  0.00    +0.000 OA
ATOM     14  H   UNL     1       0.808   9.763  17.024  0.00  0.00    +0.000 HD
ENDBRANCH  10  13
ENDBRANCH   1   7
BRANCH   2  15
ATOM     15  N   UNL     1       3.294   4.059  19.804  0.00  0.00    +0.000 N 
ATOM     16  C   UNL     1       2.964   2.982  20.614  0.00  0.00    +0.000 A 
ATOM     17  N   UNL     1       3.924   2.093  20.613  0.00  0.00    +0.000 NA
ATOM     18  N   UNL     1       4.904   2.544  19.771  0.00  0.00    +0.000 NA
ATOM     19  C   UNL     1       4.527   3.704  19.256  0.00  0.00    +0.000 A 
BRANCH  19  20
ATOM     20  C   UNL     1       5.357   4.519  18.361  0.00  0.00    +0.000 A 
ATOM     21  C   UNL     1       6.329   5.418  18.823  0.00  0.00    +0.000 A 
ATOM     22  C   UNL     1       7.127   6.133  17.924  0.00  0.00    +0.000 A 
ATOM     23  C   UNL     1       6.957   5.972  16.552  0.00  0.00    +0.000 A 
ATOM     24  C   UNL     1       5.971   5.115  16.076  0.00  0.00    +0.000 A 
ATOM     25  C   UNL     1       5.174   4.400  16.973  0.00  0.00    +0.000 A 
ENDBRANCH  19  20
BRANCH  16  26
ATOM     26  S   UNL     1       1.467   2.784  21.467  0.00  0.00    +0.000 S 
ATOM     27  H   UNL     1       0.793   2.069  20.558  0.00  0.00    +0.000 HD
ENDBRANCH  16  26
ENDBRANCH   2  15
TORSDOF 6
ENDMDL
MODEL 3
REMARK VINA RESULT:      -6.1      4.115      5.419
REMARK  Name = 
REMARK  6 active torsions:
REMARK  status: ('A' for Active; 'I' for Inactive)
REMARK    1  A    between atoms: O_1  and  C_2
REMARK    2  A    between atoms: C_6  and  C_7
REMARK    3  A    between atoms: N_8  and  N_9
REMARK    4  A    between atoms: C_10  and  S_11
REMARK    5  A    between atoms: C_14  and  C_15
REMARK    6  A    between atoms: C_23  and  O_24
REMARK                            x       y       z     vdW  Elec       q    Type
REMARK                         _______ _______ _______ _____ _____    ______ ____
ROOT
ATOM      1  C   UNL     1       4.362   4.964  16.408  0.00  0.00    +0.000 C 
ATOM      2  N   UNL     1       4.852   3.971  15.731  0.00  0.00    +0.000 NA
ENDROOT
BRANCH   1   7
ATOM      3  C   UNL     1       1.478   4.218  19.493  0.00  0.00    +0.000 A 
ATOM      4  C   UNL     1       1.925   3.185  18.670  0.00  0.00    +0.000 A 
ATOM      5 BR   UNL     1       1.289   1.415  18.899  0.00  0.00    +0.000 Br
ATOM      6  C   UNL     1       2.860   3.443  17.665  0.00  0.00    +0.000 A 
ATOM      7  C   UNL     1       3.350   4.746  17.472  0.00  0.00    +0.000 A 
ATOM      8  C   UNL     1       2.907   5.787  18.304  0.00  0.00    +0.000 A 
ATOM      9 BR   UNL     1       3.571   7.567  18.158  0.00  0.00    +0.000 Br
ATOM     10  C   UNL     1       1.969   5.513  19.312  0.00  0.00    +0.000 A 
BRANCH   3  11
ATOM     11  O   UNL     1       0.564   3.993  20.489  0.00  0.00    +0.000 OA
ATOM     12  H   UNL     1       0.865   3.232  21.016  0.00  0.00    +0.000 HD
ENDBRANCH   3  11
BRANCH  10  13
ATOM     13  O   UNL     1       1.515   6.495  20.156  0.00  0.00    +0.000 OA
ATOM     14  H   UNL     1       2.238   6.761  20.748  0.00  0.00    +0.000 HD
ENDBRANCH  10  13
ENDBRANCH   1   7
BRANCH   2  15
ATOM     15  N   UNL     1       5.887   4.296  14.872  0.00  0.00    +0.000 N 
ATOM     16  C   UNL     1       6.022   4.038  13.515  0.00  0.00    +0.000 A 
ATOM     17  N   UNL     1       7.134   4.554  13.055  0.00  0.00    +0.000 NA
ATOM     18  N   UNL     1       7.748   5.202  14.092  0.00  0.00    +0.000 NA
ATOM     19  C   UNL     1       6.999   5.082  15.178  0.00  0.00    +0.000 A 
BRANCH  19  20
ATOM     20  C   UNL     1       7.376   5.592  16.501  0.00  0.00    +0.000 A 
ATOM     21  C   UNL     1       7.458   6.959  16.803  0.00  0.00    +0.000 A 
ATOM     22  C   UNL     1       7.773   7.389  18.095  0.00  0.00    +0.000 A 
ATOM     23  C   UNL     1       8.025   6.462  19.102  0.00  0.00    +0.000 A 
ATOM     24  C   UNL     1       7.988   5.102  18.812  0.00  0.00    +0.000 A 
ATOM     25  C   UNL     1       7.673   4.672  17.522  0.00  0.00    +0.000 A 
ENDBRANCH  19  20
BRANCH  16  26
ATOM     26  S   UNL     1       4.864   3.206  12.528  0.00  0.00    +0.000 S 
ATOM     27  H   UNL     1       3.737   3.653  13.094  0.00  0.00    +0.000 HD
ENDBRANCH  16  26
ENDBRANCH   2  15
TORSDOF 6
ENDMDL
MODEL 4
REMARK VINA RESULT:      -6.1      2.827      4.428
REMARK  Name = 
REMARK  6 active torsions:
REMARK  status: ('A' for Active; 'I' for Inactive)
REMARK    1  A    between atoms: O_1  and  C_2
REMARK    2  A    between atoms: C_6  and  C_7
REMARK    3  A    between atoms: N_8  and  N_9
REMARK    4  A    between atoms: C_10  and  S_11
REMARK    5  A    between atoms: C_14  and  C_15
REMARK    6  A    between atoms: C_23  and  O_24
REMARK                            x       y       z     vdW  Elec       q    Type
REMARK                         _______ _______ _______ _____ _____    ______ ____
ROOT
ATOM      1  C   UNL     1       2.439   7.090  18.186  0.00  0.00    +0.000 C 
ATOM      2  N   UNL     1       3.570   6.538  18.501  0.00  0.00    +0.000 NA
ENDROOT
BRANCH   1   7
ATOM      3  C   UNL     1       1.146  10.800  19.908  0.00  0.00    +0.000 A 
ATOM      4  C   UNL     1       1.742  10.768  18.648  0.00  0.00    +0.000 A 
ATOM      5 BR   UNL     1       1.984  12.358  17.647  0.00  0.00    +0.000 Br
ATOM      6  C   UNL     1       2.164   9.553  18.102  0.00  0.00    +0.000 A 
ATOM      7  C   UNL     1       1.998   8.358  18.821  0.00  0.00    +0.000 A 
ATOM      8  C   UNL     1       1.391   8.386  20.088  0.00  0.00    +0.000 A 
ATOM      9 BR   UNL     1       1.062   6.805  21.100  0.00  0.00    +0.000 Br
ATOM     10  C   UNL     1       0.968   9.612  20.623  0.00  0.00    +0.000 A 
BRANCH   3  11
ATOM     11  O   UNL     1       0.719  11.975  20.467  0.00  0.00    +0.000 OA
ATOM     12  H   UNL     1       1.337  12.681  20.209  0.00  0.00    +0.000 HD
ENDBRANCH   3  11
BRANCH  10  13
ATOM     13  O   UNL     1       0.362   9.688  21.852  0.00  0.00    +0.000 OA
ATOM     14  H   UNL     1      -0.093   8.848  22.031  0.00  0.00    +0.000 HD
ENDBRANCH  10  13
ENDBRANCH   1   7
BRANCH   2  15
ATOM     15  N   UNL     1       3.924   5.441  17.735  0.00  0.00    +0.000 N 
ATOM     16  C   UNL     1       4.677   5.384  16.571  0.00  0.00    +0.000 A 
ATOM     17  N   UNL     1       4.826   4.145  16.177  0.00  0.00    +0.000 NA
ATOM     18  N   UNL     1       4.204   3.343  17.095  0.00  0.00    +0.000 NA
ATOM     19  C   UNL     1       3.687   4.103  18.048  0.00  0.00    +0.000 A 
BRANCH  19  20
ATOM     20  C   UNL     1       2.884   3.592  19.166  0.00  0.00    +0.000 A 
ATOM     21  C   UNL     1       3.444   3.129  20.365  0.00  0.00    +0.000 A 
ATOM     22  C   UNL     1       2.630   2.701  21.417  0.00  0.00    +0.000 A 
ATOM     23  C   UNL     1       1.244   2.714  21.283  0.00  0.00    +0.000 A 
ATOM     24  C   UNL     1       0.672   3.132  20.087  0.00  0.00    +0.000 A 
ATOM     25  C   UNL     1       1.485   3.561  19.036  0.00  0.00    +0.000 A 
ENDBRANCH  19  20
BRANCH  16  26
ATOM     26  S   UNL     1       5.390   6.745  15.764  0.00  0.00    +0.000 S 
ATOM     27  H   UNL     1       4.387   7.055  14.935  0.00  0.00    +0.000 HD
ENDBRANCH  16  26
ENDBRANCH   2  15
TORSDOF 6
ENDMDL
MODEL 5
REMARK VINA RESULT:      -5.9      3.032      4.222
REMARK  Name = 
REMARK  6 active torsions:
REMARK  status: ('A' for Active; 'I' for Inactive)
REMARK    1  A    between atoms: O_1  and  C_2
REMARK    2  A    between atoms: C_6  and  C_7
REMARK    3  A    between atoms: N_8  and  N_9
REMARK    4  A    between atoms: C_10  and  S_11
REMARK    5  A    between atoms: C_14  and  C_15
REMARK    6  A    between atoms: C_23  and  O_24
REMARK                            x       y       z     vdW  Elec       q    Type
REMARK                         _______ _______ _______ _____ _____    ______ ____
ROOT
ATOM      1  C   UNL     1       3.568   6.885  18.113  0.00  0.00    +0.000 C 
ATOM      2  N   UNL     1       4.725   6.616  18.637  0.00  0.00    +0.000 NA
ENDROOT
BRANCH   1   7
ATOM      3  C   UNL     1       0.800   9.602  19.944  0.00  0.00    +0.000 A 
ATOM      4  C   UNL     1       1.571   9.998  18.852  0.00  0.00    +0.000 A 
ATOM      5 BR   UNL     1       1.409  11.741  18.128  0.00  0.00    +0.000 Br
ATOM      6  C   UNL     1       2.473   9.105  18.269  0.00  0.00    +0.000 A 
ATOM      7  C   UNL     1       2.616   7.805  18.783  0.00  0.00    +0.000 A 
ATOM      8  C   UNL     1       1.834   7.401  19.879  0.00  0.00    +0.000 A 
ATOM      9 BR   UNL     1       1.911   5.637  20.595  0.00  0.00    +0.000 Br
ATOM     10  C   UNL     1       0.929   8.307  20.453  0.00  0.00    +0.000 A 
BRANCH   3  11
ATOM     11  O   UNL     1      -0.096  10.455  20.533  0.00  0.00    +0.000 OA
ATOM     12  H   UNL     1      -0.660  10.837  19.837  0.00  0.00    +0.000 HD
ENDBRANCH   3  11
BRANCH  10  13
ATOM     13  O   UNL     1       0.137   7.955  21.517  0.00  0.00    +0.000 OA
ATOM     14  H   UNL     1       0.153   6.987  21.614  0.00  0.00    +0.000 HD
ENDBRANCH  10  13
ENDBRANCH   1   7
BRANCH   2  15
ATOM     15  N   UNL     1       5.570   5.860  17.843  0.00  0.00    +0.000 N 
ATOM     16  C   UNL     1       6.749   6.228  17.210  0.00  0.00    +0.000 A 
ATOM     17  N   UNL     1       7.278   5.204  16.588  0.00  0.00    +0.000 NA
ATOM     18  N   UNL     1       6.478   4.120  16.824  0.00  0.00    +0.000 NA
ATOM     19  C   UNL     1       5.469   4.490  17.599  0.00  0.00    +0.000 A 
BRANCH  19  20
ATOM     20  C   UNL     1       4.371   3.605  18.003  0.00  0.00    +0.000 A 
ATOM     21  C   UNL     1       4.334   2.942  19.237  0.00  0.00    +0.000 A 
ATOM     22  C   UNL     1       3.237   2.150  19.592  0.00  0.00    +0.000 A 
ATOM     23  C   UNL     1       2.169   1.997  18.713  0.00  0.00    +0.000 A 
ATOM     24  C   UNL     1       2.206   2.614  17.468  0.00  0.00    +0.000 A 
ATOM     25  C   UNL     1       3.300   3.406  17.114  0.00  0.00    +0.000 A 
ENDBRANCH  19  20
BRANCH  16  26
ATOM     26  S   UNL     1       7.478   7.800  17.272  0.00  0.00    +0.000 S 
ATOM     27  H   UNL     1       8.588   7.497  17.955  0.00  0.00    +0.000 HD
ENDBRANCH  16  26
ENDBRANCH   2  15
TORSDOF 6
ENDMDL
MODEL 6
REMARK VINA RESULT:      -5.9      3.975      6.718
REMARK  Name = 
REMARK  6 active torsions:
REMARK  status: ('A' for Active; 'I' for Inactive)
REMARK    1  A    between atoms: O_1  and  C_2
REMARK    2  A    between atoms: C_6  and  C_7
REMARK    3  A    between atoms: N_8  and  N_9
REMARK    4  A    between atoms: C_10  and  S_11
REMARK    5  A    between atoms: C_14  and  C_15
REMARK    6  A    between atoms: C_23  and  O_24
REMARK                            x       y       z     vdW  Elec       q    Type
REMARK                         _______ _______ _______ _____ _____    ______ ____
ROOT
ATOM      1  C   UNL     1       4.743   3.866  17.130  0.00  0.00    +0.000 C 
ATOM      2  N   UNL     1       3.582   4.404  17.345  0.00  0.00    +0.000 NA
ENDROOT
BRANCH   1   7
ATOM      3  C   UNL     1       6.787   4.586  13.428  0.00  0.00    +0.000 A 
ATOM      4  C   UNL     1       5.637   3.797  13.466  0.00  0.00    +0.000 A 
ATOM      5 BR   UNL     1       4.930   3.033  11.884  0.00  0.00    +0.000 Br
ATOM      6  C   UNL     1       4.986   3.566  14.680  0.00  0.00    +0.000 A 
ATOM      7  C   UNL     1       5.487   4.119  15.870  0.00  0.00    +0.000 A 
ATOM      8  C   UNL     1       6.640   4.921  15.833  0.00  0.00    +0.000 A 
ATOM      9 BR   UNL     1       7.348   5.767  17.386  0.00  0.00    +0.000 Br
ATOM     10  C   UNL     1       7.284   5.148  14.607  0.00  0.00    +0.000 A 
BRANCH   3  11
ATOM     11  O   UNL     1       7.445   4.833  12.252  0.00  0.00    +0.000 OA
ATOM     12  H   UNL     1       8.387   4.623  12.376  0.00  0.00    +0.000 HD
ENDBRANCH   3  11
BRANCH  10  13
ATOM     13  O   UNL     1       8.407   5.931  14.519  0.00  0.00    +0.000 OA
ATOM     14  H   UNL     1       8.153   6.861  14.647  0.00  0.00    +0.000 HD
ENDBRANCH  10  13
ENDBRANCH   1   7
BRANCH   2  15
ATOM     15  N   UNL     1       3.066   4.202  18.613  0.00  0.00    +0.000 N 
ATOM     16  C   UNL     1       3.010   3.038  19.368  0.00  0.00    +0.000 A 
ATOM     17  N   UNL     1       2.482   3.274  20.542  0.00  0.00    +0.000 NA
ATOM     18  N   UNL     1       2.207   4.613  20.609  0.00  0.00    +0.000 NA
ATOM     19  C   UNL     1       2.579   5.186  19.475  0.00  0.00    +0.000 A 
BRANCH  19  20
ATOM     20  C   UNL     1       2.374   6.604  19.160  0.00  0.00    +0.000 A 
ATOM     21  C   UNL     1       2.752   7.182  17.940  0.00  0.00    +0.000 A 
ATOM     22  C   UNL     1       2.486   8.529  17.673  0.00  0.00    +0.000 A 
ATOM     23  C   UNL     1       1.852   9.321  18.625  0.00  0.00    +0.000 A 
ATOM     24  C   UNL     1       1.505   8.775  19.856  0.00  0.00    +0.000 A 
ATOM     25  C   UNL     1       1.770   7.431  20.123  0.00  0.00    +0.000 A 
ENDBRANCH  19  20
BRANCH  16  26
ATOM     26  S   UNL     1       3.609   1.487  18.873  0.00  0.00    +0.000 S 
ATOM     27  H   UNL     1       3.417   0.809  20.010  0.00  0.00    +0.000 HD
ENDBRANCH  16  26
ENDBRANCH   2  15
TORSDOF 6
ENDMDL
MODEL 7
REMARK VINA RESULT:      -5.8      4.821      6.771
REMARK  Name = 
REMARK  6 active torsions:
REMARK  status: ('A' for Active; 'I' for Inactive)
REMARK    1  A    between atoms: O_1  and  C_2
REMARK    2  A    between atoms: C_6  and  C_7
REMARK    3  A    between atoms: N_8  and  N_9
REMARK    4  A    between atoms: C_10  and  S_11
REMARK    5  A    between atoms: C_14  and  C_15
REMARK    6  A    between atoms: C_23  and  O_24
REMARK                            x       y       z     vdW  Elec       q    Type
REMARK                         _______ _______ _______ _____ _____    ______ ____
ROOT
ATOM      1  C   UNL     1      -1.292  10.951  19.831  0.00  0.00    +0.000 C 
ATOM      2  N   UNL     1      -1.009   9.746  20.222  0.00  0.00    +0.000 NA
ENDROOT
BRANCH   1   7
ATOM      3  C   UNL     1      -4.348  11.574  16.887  0.00  0.00    +0.000 A 
ATOM      4  C   UNL     1      -3.245  10.768  16.610  0.00  0.00    +0.000 A 
ATOM      5 BR   UNL     1      -3.068   9.906  14.932  0.00  0.00    +0.000 Br
ATOM      6  C   UNL     1      -2.254  10.579  17.576  0.00  0.00    +0.000 A 
ATOM      7  C   UNL     1      -2.358  11.204  18.830  0.00  0.00    +0.000 A 
ATOM      8  C   UNL     1      -3.472  12.011  19.114  0.00  0.00    +0.000 A 
ATOM      9 BR   UNL     1      -3.728  12.840  20.811  0.00  0.00    +0.000 Br
ATOM     10  C   UNL     1      -4.463  12.191  18.136  0.00  0.00    +0.000 A 
BRANCH   3  11
ATOM     11  O   UNL     1      -5.338  11.775  15.961  0.00  0.00    +0.000 OA
ATOM     12  H   UNL     1      -6.018  11.089  16.084  0.00  0.00    +0.000 HD
ENDBRANCH   3  11
BRANCH  10  13
ATOM     13  O   UNL     1      -5.573  12.961  18.372  0.00  0.00    +0.000 OA
ATOM     14  H   UNL     1      -5.784  13.464  17.566  0.00  0.00    +0.000 HD
ENDBRANCH  10  13
ENDBRANCH   1   7
BRANCH   2  15
ATOM     15  N   UNL     1      -0.098   9.662  21.261  0.00  0.00    +0.000 N 
ATOM     16  C   UNL     1      -0.168  10.193  22.541  0.00  0.00    +0.000 A 
ATOM     17  N   UNL     1       0.882   9.848  23.242  0.00  0.00    +0.000 NA
ATOM     18  N   UNL     1       1.661   9.048  22.452  0.00  0.00    +0.000 NA
ATOM     19  C   UNL     1       1.072   8.902  21.275  0.00  0.00    +0.000 A 
BRANCH  19  20
ATOM     20  C   UNL     1       1.652   8.164  20.147  0.00  0.00    +0.000 A 
ATOM     21  C   UNL     1       2.024   6.814  20.223  0.00  0.00    +0.000 A 
ATOM     22  C   UNL     1       2.526   6.146  19.102  0.00  0.00    +0.000 A 
ATOM     23  C   UNL     1       2.677   6.818  17.893  0.00  0.00    +0.000 A 
ATOM     24  C   UNL     1       2.350   8.168  17.809  0.00  0.00    +0.000 A 
ATOM     25  C   UNL     1       1.849   8.835  18.928  0.00  0.00    +0.000 A 
ENDBRANCH  19  20
BRANCH  16  26
ATOM     26  S   UNL     1      -1.483  11.131  23.172  0.00  0.00    +0.000 S 
ATOM     27  H   UNL     1      -1.879  11.735  22.046  0.00  0.00    +0.000 HD
ENDBRANCH  16  26
ENDBRANCH   2  15
TORSDOF 6
ENDMDL
MODEL 8
REMARK VINA RESULT:      -5.7      3.011      4.246
REMARK  Name = 
REMARK  6 active torsions:
REMARK  status: ('A' for Active; 'I' for Inactive)
REMARK    1  A    between atoms: O_1  and  C_2
REMARK    2  A    between atoms: C_6  and  C_7
REMARK    3  A    between atoms: N_8  and  N_9
REMARK    4  A    between atoms: C_10  and  S_11
REMARK    5  A    between atoms: C_14  and  C_15
REMARK    6  A    between atoms: C_23  and  O_24
REMARK                            x       y       z     vdW  Elec       q    Type
REMARK                         _______ _______ _______ _____ _____    ______ ____
ROOT
ATOM      1  C   UNL     1       3.067   7.215  18.062  0.00  0.00    +0.000 C 
ATOM      2  N   UNL     1       4.113   6.657  18.589  0.00  0.00    +0.000 NA
ENDROOT
BRANCH   1   7
ATOM      3  C   UNL     1       0.827  10.274  20.069  0.00  0.00    +0.000 A 
ATOM      4  C   UNL     1       1.526  10.555  18.895  0.00  0.00    +0.000 A 
ATOM      5 BR   UNL     1       1.495  12.292  18.139  0.00  0.00    +0.000 Br
ATOM      6  C   UNL     1       2.256   9.551  18.256  0.00  0.00    +0.000 A 
ATOM      7  C   UNL     1       2.298   8.254  18.793  0.00  0.00    +0.000 A 
ATOM      8  C   UNL     1       1.588   7.965  19.971  0.00  0.00    +0.000 A 
ATOM      9 BR   UNL     1       1.532   6.218  20.729  0.00  0.00    +0.000 Br
ATOM     10  C   UNL     1       0.855   8.982  20.602  0.00  0.00    +0.000 A 
BRANCH   3  11
ATOM     11  O   UNL     1       0.098  11.237  20.715  0.00  0.00    +0.000 OA
ATOM     12  H   UNL     1       0.397  11.279  21.641  0.00  0.00    +0.000 HD
ENDBRANCH   3  11
BRANCH  10  13
ATOM     13  O   UNL     1       0.139   8.746  21.748  0.00  0.00    +0.000 OA
ATOM     14  H   UNL     1       0.705   8.272  22.381  0.00  0.00    +0.000 HD
ENDBRANCH  10  13
ENDBRANCH   1   7
BRANCH   2  15
ATOM     15  N   UNL     1       4.817   5.813  17.748  0.00  0.00    +0.000 N 
ATOM     16  C   UNL     1       6.001   6.040  17.059  0.00  0.00    +0.000 A 
ATOM     17  N   UNL     1       6.367   4.967  16.405  0.00  0.00    +0.000 NA
ATOM     18  N   UNL     1       5.450   3.988  16.672  0.00  0.00    +0.000 NA
ATOM     19  C   UNL     1       4.535   4.470  17.499  0.00  0.00    +0.000 A 
BRANCH  19  20
ATOM     20  C   UNL     1       3.355   3.723  17.951  0.00  0.00    +0.000 A 
ATOM     21  C   UNL     1       2.043   4.082  17.612  0.00  0.00    +0.000 A 
ATOM     22  C   UNL     1       0.958   3.305  18.029  0.00  0.00    +0.000 A 
ATOM     23  C   UNL     1       1.166   2.167  18.803  0.00  0.00    +0.000 A 
ATOM     24  C   UNL     1       2.457   1.818  19.183  0.00  0.00    +0.000 A 
ATOM     25  C   UNL     1       3.541   2.593  18.766  0.00  0.00    +0.000 A 
ENDBRANCH  19  20
BRANCH  16  26
ATOM     26  S   UNL     1       6.923   7.509  17.097  0.00  0.00    +0.000 S 
ATOM     27  H   UNL     1       6.858   7.772  18.407  0.00  0.00    +0.000 HD
ENDBRANCH  16  26
ENDBRANCH   2  15
TORSDOF 6
ENDMDL
MODEL 9
REMARK VINA RESULT:      -5.7      3.537      6.434
REMARK  Name = 
REMARK  6 active torsions:
REMARK  status: ('A' for Active; 'I' for Inactive)
REMARK    1  A    between atoms: O_1  and  C_2
REMARK    2  A    between atoms: C_6  and  C_7
REMARK    3  A    between atoms: N_8  and  N_9
REMARK    4  A    between atoms: C_10  and  S_11
REMARK    5  A    between atoms: C_14  and  C_15
REMARK    6  A    between atoms: C_23  and  O_24
REMARK                            x       y       z     vdW  Elec       q    Type
REMARK                         _______ _______ _______ _____ _____    ______ ____
ROOT
ATOM      1  C   UNL     1       4.411   3.927  17.798  0.00  0.00    +0.000 C 
ATOM      2  N   UNL     1       3.182   4.342  17.825  0.00  0.00    +0.000 NA
ENDROOT
BRANCH   1   7
ATOM      3  C   UNL     1       7.010   5.111  14.597  0.00  0.00    +0.000 A 
ATOM      4  C   UNL     1       6.008   4.164  14.389  0.00  0.00    +0.000 A 
ATOM      5 BR   UNL     1       5.749   3.382  12.683  0.00  0.00    +0.000 Br
ATOM      6  C   UNL     1       5.173   3.783  15.442  0.00  0.00    +0.000 A 
ATOM      7  C   UNL     1       5.341   4.345  16.719  0.00  0.00    +0.000 A 
ATOM      8  C   UNL     1       6.345   5.305  16.929  0.00  0.00    +0.000 A 
ATOM      9 BR   UNL     1       6.597   6.170  18.609  0.00  0.00    +0.000 Br
ATOM     10  C   UNL     1       7.175   5.682  15.862  0.00  0.00    +0.000 A 
BRANCH   3  11
ATOM     11  O   UNL     1       7.841   5.507  13.583  0.00  0.00    +0.000 OA
ATOM     12  H   UNL     1       7.325   5.543  12.758  0.00  0.00    +0.000 HD
ENDBRANCH   3  11
BRANCH  10  13
ATOM     13  O   UNL     1       8.162   6.623  16.018  0.00  0.00    +0.000 OA
ATOM     14  H   UNL     1       7.813   7.361  16.546  0.00  0.00    +0.000 HD
ENDBRANCH  10  13
ENDBRANCH   1   7
BRANCH   2  15
ATOM     15  N   UNL     1       2.468   3.994  18.958  0.00  0.00    +0.000 N 
ATOM     16  C   UNL     1       2.234   2.738  19.502  0.00  0.00    +0.000 A 
ATOM     17  N   UNL     1       1.547   2.837  20.612  0.00  0.00    +0.000 NA
ATOM     18  N   UNL     1       1.338   4.168  20.851  0.00  0.00    +0.000 NA
ATOM     19  C   UNL     1       1.909   4.873  19.886  0.00  0.00    +0.000 A 
BRANCH  19  20
ATOM     20  C   UNL     1       1.831   6.334  19.774  0.00  0.00    +0.000 A 
ATOM     21  C   UNL     1       2.216   7.037  18.624  0.00  0.00    +0.000 A 
ATOM     22  C   UNL     1       2.072   8.426  18.553  0.00  0.00    +0.000 A 
ATOM     23  C   UNL     1       1.557   9.135  19.634  0.00  0.00    +0.000 A 
ATOM     24  C   UNL     1       1.208   8.459  20.798  0.00  0.00    +0.000 A 
ATOM     25  C   UNL     1       1.350   7.072  20.869  0.00  0.00    +0.000 A 
ENDBRANCH  19  20
BRANCH  16  26
ATOM     26  S   UNL     1       2.817   1.237  18.859  0.00  0.00    +0.000 S 
ATOM     27  H   UNL     1       3.123   1.637  17.619  0.00  0.00    +0.000 HD
ENDBRANCH  16  26
ENDBRANCH   2  15
TORSDOF 6
ENDMDL
