MODEL 1
REMARK VINA RESULT:      -7.4      0.000      0.000
REMARK  Name = 
REMARK  6 active torsions:
REMARK  status: ('A' for Active; 'I' for Inactive)
REMARK    1  A    between atoms: C_1  and  O_2
REMARK    2  A    between atoms: O_2  and  C_3
REMARK    3  A    between atoms: C_3  and  C_5
REMARK    4  A    between atoms: C_9  and  C_11
REMARK    5  A    between atoms: C_19  and  C_20
REMARK    6  A    between atoms: C_22  and  C_23
REMARK                            x       y       z     vdW  Elec       q    Type
REMARK                         _______ _______ _______ _____ _____    ______ ____
ROOT
ATOM      1  C   UNL     1      -0.425  11.252  21.510  0.00  0.00    +0.000 A 
ATOM      2  S   UNL     1       0.429   9.769  21.656  0.00  0.00    +0.000 S 
ATOM      3  C   UNL     1       0.799   9.800  19.998  0.00  0.00    +0.000 A 
ATOM      4  N   UNL     1       1.534   8.823  19.378  0.00  0.00    +0.000 N 
ATOM      5  C   UNL     1       1.885   7.590  19.887  0.00  0.00    +0.000 C 
ATOM      6  O   UNL     1       1.582   7.163  20.996  0.00  0.00    +0.000 OA
ATOM      7  N   UNL     1       0.363  10.851  19.342  0.00  0.00    +0.000 NA
ATOM      8  C   UNL     1      -0.371  11.679  20.189  0.00  0.00    +0.000 A 
ATOM      9  C   UNL     1      -0.991  12.896  19.600  0.00  0.00    +0.000 C 
ATOM     10  H   UNL     1       1.761   9.014  18.412  0.00  0.00    +0.000 HD
ENDROOT
BRANCH   5  11
ATOM     11  C   UNL     1       2.645   6.781  18.941  0.00  0.00    +0.000 A 
ATOM     12  O   UNL     1       3.549   7.402  18.118  0.00  0.00    +0.000 OA
ATOM     13  C   UNL     1       4.106   6.444  17.330  0.00  0.00    +0.000 A 
ATOM     14  C   UNL     1       5.065   6.667  16.344  0.00  0.00    +0.000 A 
ATOM     15  C   UNL     1       5.498   5.547  15.626  0.00  0.00    +0.000 A 
ATOM     16  C   UNL     1       4.994   4.274  15.902  0.00  0.00    +0.000 A 
ATOM     17  C   UNL     1       4.034   4.082  16.905  0.00  0.00    +0.000 A 
ATOM     18  C   UNL     1       3.576   5.198  17.633  0.00  0.00    +0.000 A 
ATOM     19  C   UNL     1       2.624   5.416  18.676  0.00  0.00    +0.000 A 
ATOM     20  C   UNL     1       1.765   4.393  19.330  0.00  0.00    +0.000 C 
ENDBRANCH   5  11
BRANCH   1  21
ATOM     21  C   UNL     1      -1.046  11.825  22.686  0.00  0.00    +0.000 C 
ATOM     22  O   UNL     1      -2.031  11.387  23.269  0.00  0.00    +0.000 OA
BRANCH  21  24
ATOM     23  C   UNL     1      -1.212  14.086  23.299  0.00  0.00    +0.000 C 
ATOM     24  O   UNL     1      -0.377  12.947  23.083  0.00  0.00    +0.000 OA
ENDBRANCH  21  24
ENDBRANCH   1  21
TORSDOF 3
ENDMDL
MODEL 2
REMARK VINA RESULT:      -7.3      1.159      1.301
REMARK  Name = 
REMARK  6 active torsions:
REMARK  status: ('A' for Active; 'I' for Inactive)
REMARK    1  A    between atoms: C_1  and  O_2
REMARK    2  A    between atoms: O_2  and  C_3
REMARK    3  A    between atoms: C_3  and  C_5
REMARK    4  A    between atoms: C_9  and  C_11
REMARK    5  A    between atoms: C_19  and  C_20
REMARK    6  A    between atoms: C_22  and  C_23
REMARK                            x       y       z     vdW  Elec       q    Type
REMARK                         _______ _______ _______ _____ _____    ______ ____
ROOT
ATOM      1  C   UNL     1       0.161  10.226  21.192  0.00  0.00    +0.000 A 
ATOM      2  S   UNL     1       1.067   8.768  21.256  0.00  0.00    +0.000 S 
ATOM      3  C   UNL     1       1.467   8.926  19.613  0.00  0.00    +0.000 A 
ATOM      4  N   UNL     1       2.251   8.019  18.945  0.00  0.00    +0.000 N 
ATOM      5  C   UNL     1       2.638   6.769  19.378  0.00  0.00    +0.000 C 
ATOM      6  O   UNL     1       2.330   6.257  20.449  0.00  0.00    +0.000 OA
ATOM      7  N   UNL     1       1.005  10.001  19.020  0.00  0.00    +0.000 NA
ATOM      8  C   UNL     1       0.225  10.743  19.905  0.00  0.00    +0.000 A 
ATOM      9  C   UNL     1      -0.430  11.974  19.385  0.00  0.00    +0.000 C 
ATOM     10  H   UNL     1       2.489   8.284  17.999  0.00  0.00    +0.000 HD
ENDROOT
BRANCH   5  11
ATOM     11  C   UNL     1       3.446   6.054  18.396  0.00  0.00    +0.000 A 
ATOM     12  O   UNL     1       4.682   6.550  18.072  0.00  0.00    +0.000 OA
ATOM     13  C   UNL     1       5.218   5.722  17.135  0.00  0.00    +0.000 A 
ATOM     14  C   UNL     1       6.464   5.885  16.532  0.00  0.00    +0.000 A 
ATOM     15  C   UNL     1       6.826   4.933  15.574  0.00  0.00    +0.000 A 
ATOM     16  C   UNL     1       5.977   3.871  15.256  0.00  0.00    +0.000 A 
ATOM     17  C   UNL     1       4.732   3.730  15.886  0.00  0.00    +0.000 A 
ATOM     18  C   UNL     1       4.343   4.684  16.846  0.00  0.00    +0.000 A 
ATOM     19  C   UNL     1       3.190   4.901  17.661  0.00  0.00    +0.000 A 
ATOM     20  C   UNL     1       1.954   4.075  17.698  0.00  0.00    +0.000 C 
ENDBRANCH   5  11
BRANCH   1  21
ATOM     21  C   UNL     1      -0.503  10.695  22.390  0.00  0.00    +0.000 C 
ATOM     22  O   UNL     1      -1.214  10.025  23.132  0.00  0.00    +0.000 OA
BRANCH  21  24
ATOM     23  C   UNL     1      -1.341  12.775  23.090  0.00  0.00    +0.000 C 
ATOM     24  O   UNL     1      -0.232  12.015  22.603  0.00  0.00    +0.000 OA
ENDBRANCH  21  24
ENDBRANCH   1  21
TORSDOF 3
ENDMDL
MODEL 3
REMARK VINA RESULT:      -7.2      1.773      2.329
REMARK  Name = 
REMARK  6 active torsions:
REMARK  status: ('A' for Active; 'I' for Inactive)
REMARK    1  A    between atoms: C_1  and  O_2
REMARK    2  A    between atoms: O_2  and  C_3
REMARK    3  A    between atoms: C_3  and  C_5
REMARK    4  A    between atoms: C_9  and  C_11
REMARK    5  A    between atoms: C_19  and  C_20
REMARK    6  A    between atoms: C_22  and  C_23
REMARK                            x       y       z     vdW  Elec       q    Type
REMARK                         _______ _______ _______ _____ _____    ______ ____
ROOT
ATOM      1  C   UNL     1      -0.246  10.386  21.122  0.00  0.00    +0.000 A 
ATOM      2  S   UNL     1       0.378   9.982  19.573  0.00  0.00    +0.000 S 
ATOM      3  C   UNL     1       1.265   8.700  20.248  0.00  0.00    +0.000 A 
ATOM      4  N   UNL     1       2.064   7.871  19.502  0.00  0.00    +0.000 N 
ATOM      5  C   UNL     1       2.468   8.051  18.196  0.00  0.00    +0.000 C 
ATOM      6  O   UNL     1       2.174   9.004  17.482  0.00  0.00    +0.000 OA
ATOM      7  N   UNL     1       1.110   8.523  21.539  0.00  0.00    +0.000 NA
ATOM      8  C   UNL     1       0.270   9.505  22.063  0.00  0.00    +0.000 A 
ATOM      9  C   UNL     1       0.024   9.494  23.531  0.00  0.00    +0.000 C 
ATOM     10  H   UNL     1       2.457   7.093  20.012  0.00  0.00    +0.000 HD
ENDROOT
BRANCH   5  11
ATOM     11  C   UNL     1       3.346   6.988  17.722  0.00  0.00    +0.000 A 
ATOM     12  O   UNL     1       4.611   7.313  17.305  0.00  0.00    +0.000 OA
ATOM     13  C   UNL     1       5.214   6.163  16.902  0.00  0.00    +0.000 A 
ATOM     14  C   UNL     1       6.507   6.064  16.392  0.00  0.00    +0.000 A 
ATOM     15  C   UNL     1       6.938   4.788  16.014  0.00  0.00    +0.000 A 
ATOM     16  C   UNL     1       6.106   3.675  16.156  0.00  0.00    +0.000 A 
ATOM     17  C   UNL     1       4.812   3.806  16.679  0.00  0.00    +0.000 A 
ATOM     18  C   UNL     1       4.355   5.084  17.056  0.00  0.00    +0.000 A 
ATOM     19  C   UNL     1       3.140   5.619  17.585  0.00  0.00    +0.000 A 
ATOM     20  C   UNL     1       1.896   4.868  17.902  0.00  0.00    +0.000 C 
ENDBRANCH   5  11
BRANCH   1  21
ATOM     21  C   UNL     1      -1.157  11.506  21.243  0.00  0.00    +0.000 C 
ATOM     22  O   UNL     1      -1.636  11.938  22.285  0.00  0.00    +0.000 OA
BRANCH  21  24
ATOM     23  C   UNL     1      -2.779  12.458  19.836  0.00  0.00    +0.000 C 
ATOM     24  O   UNL     1      -1.424  12.041  20.016  0.00  0.00    +0.000 OA
ENDBRANCH  21  24
ENDBRANCH   1  21
TORSDOF 3
ENDMDL
MODEL 4
REMARK VINA RESULT:      -7.2      2.531      8.516
REMARK  Name = 
REMARK  6 active torsions:
REMARK  status: ('A' for Active; 'I' for Inactive)
REMARK    1  A    between atoms: C_1  and  O_2
REMARK    2  A    between atoms: O_2  and  C_3
REMARK    3  A    between atoms: C_3  and  C_5
REMARK    4  A    between atoms: C_9  and  C_11
REMARK    5  A    between atoms: C_19  and  C_20
REMARK    6  A    between atoms: C_22  and  C_23
REMARK                            x       y       z     vdW  Elec       q    Type
REMARK                         _______ _______ _______ _____ _____    ______ ____
ROOT
ATOM      1  C   UNL     1       4.198   5.141  18.326  0.00  0.00    +0.000 A 
ATOM      2  S   UNL     1       3.768   6.740  17.866  0.00  0.00    +0.000 S 
ATOM      3  C   UNL     1       2.597   6.796  19.094  0.00  0.00    +0.000 A 
ATOM      4  N   UNL     1       1.804   7.893  19.321  0.00  0.00    +0.000 N 
ATOM      5  C   UNL     1       1.644   8.992  18.504  0.00  0.00    +0.000 C 
ATOM      6  O   UNL     1       2.191   9.163  17.421  0.00  0.00    +0.000 OA
ATOM      7  N   UNL     1       2.518   5.726  19.849  0.00  0.00    +0.000 NA
ATOM      8  C   UNL     1       3.409   4.752  19.400  0.00  0.00    +0.000 A 
ATOM      9  C   UNL     1       3.417   3.442  20.107  0.00  0.00    +0.000 C 
ATOM     10  H   UNL     1       1.219   7.827  20.142  0.00  0.00    +0.000 HD
ENDROOT
BRANCH   5  11
ATOM     11  C   UNL     1       0.694   9.962  19.039  0.00  0.00    +0.000 A 
ATOM     12  O   UNL     1       1.017  10.638  20.187  0.00  0.00    +0.000 OA
ATOM     13  C   UNL     1      -0.027  11.458  20.482  0.00  0.00    +0.000 A 
ATOM     14  C   UNL     1      -0.100  12.307  21.585  0.00  0.00    +0.000 A 
ATOM     15  C   UNL     1      -1.272  13.058  21.722  0.00  0.00    +0.000 A 
ATOM     16  C   UNL     1      -2.305  12.960  20.786  0.00  0.00    +0.000 A 
ATOM     17  C   UNL     1      -2.198  12.101  19.683  0.00  0.00    +0.000 A 
ATOM     18  C   UNL     1      -1.031  11.328  19.532  0.00  0.00    +0.000 A 
ATOM     19  C   UNL     1      -0.565  10.353  18.597  0.00  0.00    +0.000 A 
ATOM     20  C   UNL     1      -1.291   9.841  17.404  0.00  0.00    +0.000 C 
ENDBRANCH   5  11
BRANCH   1  21
ATOM     21  C   UNL     1       5.242   4.456  17.594  0.00  0.00    +0.000 C 
ATOM     22  O   UNL     1       5.171   4.054  16.438  0.00  0.00    +0.000 OA
BRANCH  21  24
ATOM     23  C   UNL     1       7.575   4.693  17.736  0.00  0.00    +0.000 C 
ATOM     24  O   UNL     1       6.354   4.308  18.372  0.00  0.00    +0.000 OA
ENDBRANCH  21  24
ENDBRANCH   1  21
TORSDOF 3
ENDMDL
MODEL 5
REMARK VINA RESULT:      -7.2      1.748      2.166
REMARK  Name = 
REMARK  6 active torsions:
REMARK  status: ('A' for Active; 'I' for Inactive)
REMARK    1  A    between atoms: C_1  and  O_2
REMARK    2  A    between atoms: O_2  and  C_3
REMARK    3  A    between atoms: C_3  and  C_5
REMARK    4  A    between atoms: C_9  and  C_11
REMARK    5  A    between atoms: C_19  and  C_20
REMARK    6  A    between atoms: C_22  and  C_23
REMARK                            x       y       z     vdW  Elec       q    Type
REMARK                         _______ _______ _______ _____ _____    ______ ____
ROOT
ATOM      1  C   UNL     1      -0.170  10.588  20.976  0.00  0.00    +0.000 A 
ATOM      2  S   UNL     1       0.527  10.191  19.457  0.00  0.00    +0.000 S 
ATOM      3  C   UNL     1       1.258   8.815  20.134  0.00  0.00    +0.000 A 
ATOM      4  N   UNL     1       2.039   7.952  19.408  0.00  0.00    +0.000 N 
ATOM      5  C   UNL     1       2.546   8.146  18.141  0.00  0.00    +0.000 C 
ATOM      6  O   UNL     1       2.381   9.146  17.451  0.00  0.00    +0.000 OA
ATOM      7  N   UNL     1       0.999   8.604  21.402  0.00  0.00    +0.000 NA
ATOM      8  C   UNL     1       0.206   9.632  21.911  0.00  0.00    +0.000 A 
ATOM      9  C   UNL     1      -0.143   9.587  23.357  0.00  0.00    +0.000 C 
ATOM     10  H   UNL     1       2.331   7.125  19.910  0.00  0.00    +0.000 HD
ENDROOT
BRANCH   5  11
ATOM     11  C   UNL     1       3.368   7.031  17.683  0.00  0.00    +0.000 A 
ATOM     12  O   UNL     1       4.619   7.293  17.187  0.00  0.00    +0.000 OA
ATOM     13  C   UNL     1       5.166   6.104  16.817  0.00  0.00    +0.000 A 
ATOM     14  C   UNL     1       6.429   5.938  16.250  0.00  0.00    +0.000 A 
ATOM     15  C   UNL     1       6.801   4.631  15.920  0.00  0.00    +0.000 A 
ATOM     16  C   UNL     1       5.944   3.554  16.162  0.00  0.00    +0.000 A 
ATOM     17  C   UNL     1       4.682   3.754  16.740  0.00  0.00    +0.000 A 
ATOM     18  C   UNL     1       4.284   5.063  17.070  0.00  0.00    +0.000 A 
ATOM     19  C   UNL     1       3.114   5.665  17.629  0.00  0.00    +0.000 A 
ATOM     20  C   UNL     1       1.865   4.972  18.045  0.00  0.00    +0.000 C 
ENDBRANCH   5  11
BRANCH   1  21
ATOM     21  C   UNL     1      -0.994  11.774  21.084  0.00  0.00    +0.000 C 
ATOM     22  O   UNL     1      -2.030  11.993  20.466  0.00  0.00    +0.000 OA
BRANCH  21  24
ATOM     23  C   UNL     1       0.561  13.494  21.459  0.00  0.00    +0.000 C 
ATOM     24  O   UNL     1      -0.461  12.647  21.988  0.00  0.00    +0.000 OA
ENDBRANCH  21  24
ENDBRANCH   1  21
TORSDOF 3
ENDMDL
MODEL 6
REMARK VINA RESULT:      -7.1      3.255      8.159
REMARK  Name = 
REMARK  6 active torsions:
REMARK  status: ('A' for Active; 'I' for Inactive)
REMARK    1  A    between atoms: C_1  and  O_2
REMARK    2  A    between atoms: O_2  and  C_3
REMARK    3  A    between atoms: C_3  and  C_5
REMARK    4  A    between atoms: C_9  and  C_11
REMARK    5  A    between atoms: C_19  and  C_20
REMARK    6  A    between atoms: C_22  and  C_23
REMARK                            x       y       z     vdW  Elec       q    Type
REMARK                         _______ _______ _______ _____ _____    ______ ____
ROOT
ATOM      1  C   UNL     1       3.280   4.866  19.237  0.00  0.00    +0.000 A 
ATOM      2  S   UNL     1       3.331   6.319  18.321  0.00  0.00    +0.000 S 
ATOM      3  C   UNL     1       2.296   7.076  19.435  0.00  0.00    +0.000 A 
ATOM      4  N   UNL     1       1.886   8.379  19.306  0.00  0.00    +0.000 N 
ATOM      5  C   UNL     1       2.024   9.194  18.203  0.00  0.00    +0.000 C 
ATOM      6  O   UNL     1       2.541   8.875  17.139  0.00  0.00    +0.000 OA
ATOM      7  N   UNL     1       1.936   6.342  20.461  0.00  0.00    +0.000 NA
ATOM      8  C   UNL     1       2.466   5.058  20.345  0.00  0.00    +0.000 A 
ATOM      9  C   UNL     1       2.113   4.066  21.398  0.00  0.00    +0.000 C 
ATOM     10  H   UNL     1       1.351   8.731  20.088  0.00  0.00    +0.000 HD
ENDROOT
BRANCH   5  11
ATOM     11  C   UNL     1       1.441  10.517  18.400  0.00  0.00    +0.000 A 
ATOM     12  O   UNL     1       2.266  11.612  18.379  0.00  0.00    +0.000 OA
ATOM     13  C   UNL     1       1.492  12.708  18.600  0.00  0.00    +0.000 A 
ATOM     14  C   UNL     1       1.952  14.021  18.669  0.00  0.00    +0.000 A 
ATOM     15  C   UNL     1       0.995  15.009  18.926  0.00  0.00    +0.000 A 
ATOM     16  C   UNL     1      -0.352  14.681  19.092  0.00  0.00    +0.000 A 
ATOM     17  C   UNL     1      -0.785  13.351  19.009  0.00  0.00    +0.000 A 
ATOM     18  C   UNL     1       0.163  12.339  18.762  0.00  0.00    +0.000 A 
ATOM     19  C   UNL     1       0.130  10.916  18.637  0.00  0.00    +0.000 A 
ATOM     20  C   UNL     1      -1.063  10.037  18.760  0.00  0.00    +0.000 C 
ENDBRANCH   5  11
BRANCH   1  21
ATOM     21  C   UNL     1       4.028   3.716  18.774  0.00  0.00    +0.000 C 
ATOM     22  O   UNL     1       5.013   3.228  19.317  0.00  0.00    +0.000 OA
BRANCH  21  24
ATOM     23  C   UNL     1       2.570   2.144  17.817  0.00  0.00    +0.000 C 
ATOM     24  O   UNL     1       3.486   3.223  17.622  0.00  0.00    +0.000 OA
ENDBRANCH  21  24
ENDBRANCH   1  21
TORSDOF 3
ENDMDL
MODEL 7
REMARK VINA RESULT:      -7.1      2.658      8.423
REMARK  Name = 
REMARK  6 active torsions:
REMARK  status: ('A' for Active; 'I' for Inactive)
REMARK    1  A    between atoms: C_1  and  O_2
REMARK    2  A    between atoms: O_2  and  C_3
REMARK    3  A    between atoms: C_3  and  C_5
REMARK    4  A    between atoms: C_9  and  C_11
REMARK    5  A    between atoms: C_19  and  C_20
REMARK    6  A    between atoms: C_22  and  C_23
REMARK                            x       y       z     vdW  Elec       q    Type
REMARK                         _______ _______ _______ _____ _____    ______ ____
ROOT
ATOM      1  C   UNL     1       3.418   4.719  19.535  0.00  0.00    +0.000 A 
ATOM      2  S   UNL     1       3.287   6.293  18.858  0.00  0.00    +0.000 S 
ATOM      3  C   UNL     1       2.062   6.686  19.967  0.00  0.00    +0.000 A 
ATOM      4  N   UNL     1       1.446   7.911  19.997  0.00  0.00    +0.000 N 
ATOM      5  C   UNL     1       1.522   8.908  19.048  0.00  0.00    +0.000 C 
ATOM      6  O   UNL     1       2.161   8.853  18.002  0.00  0.00    +0.000 OA
ATOM      7  N   UNL     1       1.760   5.745  20.831  0.00  0.00    +0.000 NA
ATOM      8  C   UNL     1       2.506   4.597  20.576  0.00  0.00    +0.000 A 
ATOM      9  C   UNL     1       2.253   3.403  21.428  0.00  0.00    +0.000 C 
ATOM     10  H   UNL     1       0.805   8.042  20.766  0.00  0.00    +0.000 HD
ENDROOT
BRANCH   5  11
ATOM     11  C   UNL     1       0.711  10.073  19.383  0.00  0.00    +0.000 A 
ATOM     12  O   UNL     1       1.095  10.864  20.435  0.00  0.00    +0.000 OA
ATOM     13  C   UNL     1       0.176  11.860  20.551  0.00  0.00    +0.000 A 
ATOM     14  C   UNL     1       0.195  12.870  21.511  0.00  0.00    +0.000 A 
ATOM     15  C   UNL     1      -0.856  13.791  21.474  0.00  0.00    +0.000 A 
ATOM     16  C   UNL     1      -1.863  13.698  20.510  0.00  0.00    +0.000 A 
ATOM     17  C   UNL     1      -1.851  12.674  19.553  0.00  0.00    +0.000 A 
ATOM     18  C   UNL     1      -0.807  11.730  19.579  0.00  0.00    +0.000 A 
ATOM     19  C   UNL     1      -0.462  10.567  18.823  0.00  0.00    +0.000 A 
ATOM     20  C   UNL     1      -1.220   9.987  17.682  0.00  0.00    +0.000 C 
ENDBRANCH   5  11
BRANCH   1  21
ATOM     21  C   UNL     1       4.382   3.792  18.980  0.00  0.00    +0.000 C 
ATOM     22  O   UNL     1       5.531   3.623  19.373  0.00  0.00    +0.000 OA
BRANCH  21  24
ATOM     23  C   UNL     1       3.448   1.766  18.245  0.00  0.00    +0.000 C 
ATOM     24  O   UNL     1       3.838   3.105  17.934  0.00  0.00    +0.000 OA
ENDBRANCH  21  24
ENDBRANCH   1  21
TORSDOF 3
ENDMDL
MODEL 8
REMARK VINA RESULT:      -7.0      2.971      8.620
REMARK  Name = 
REMARK  6 active torsions:
REMARK  status: ('A' for Active; 'I' for Inactive)
REMARK    1  A    between atoms: C_1  and  O_2
REMARK    2  A    between atoms: O_2  and  C_3
REMARK    3  A    between atoms: C_3  and  C_5
REMARK    4  A    between atoms: C_9  and  C_11
REMARK    5  A    between atoms: C_19  and  C_20
REMARK    6  A    between atoms: C_22  and  C_23
REMARK                            x       y       z     vdW  Elec       q    Type
REMARK                         _______ _______ _______ _____ _____    ______ ____
ROOT
ATOM      1  C   UNL     1       3.298   3.717  20.031  0.00  0.00    +0.000 A 
ATOM      2  S   UNL     1       3.284   5.379  19.597  0.00  0.00    +0.000 S 
ATOM      3  C   UNL     1       1.942   5.647  20.602  0.00  0.00    +0.000 A 
ATOM      4  N   UNL     1       1.353   6.877  20.750  0.00  0.00    +0.000 N 
ATOM      5  C   UNL     1       1.565   8.004  19.983  0.00  0.00    +0.000 C 
ATOM      6  O   UNL     1       2.325   8.082  19.024  0.00  0.00    +0.000 OA
ATOM      7  N   UNL     1       1.516   4.599  21.267  0.00  0.00    +0.000 NA
ATOM      8  C   UNL     1       2.264   3.474  20.925  0.00  0.00    +0.000 A 
ATOM      9  C   UNL     1       1.884   2.175  21.545  0.00  0.00    +0.000 C 
ATOM     10  H   UNL     1       0.626   6.915  21.450  0.00  0.00    +0.000 HD
ENDROOT
BRANCH   5  11
ATOM     11  C   UNL     1       0.744   9.135  20.399  0.00  0.00    +0.000 A 
ATOM     12  O   UNL     1       0.499   9.318  21.735  0.00  0.00    +0.000 OA
ATOM     13  C   UNL     1      -0.294  10.416  21.856  0.00  0.00    +0.000 A 
ATOM     14  C   UNL     1      -0.782  10.932  23.056  0.00  0.00    +0.000 A 
ATOM     15  C   UNL     1      -1.602  12.061  22.966  0.00  0.00    +0.000 A 
ATOM     16  C   UNL     1      -1.900  12.639  21.729  0.00  0.00    +0.000 A 
ATOM     17  C   UNL     1      -1.388  12.101  20.540  0.00  0.00    +0.000 A 
ATOM     18  C   UNL     1      -0.569  10.957  20.608  0.00  0.00    +0.000 A 
ATOM     19  C   UNL     1       0.101  10.123  19.660  0.00  0.00    +0.000 A 
ATOM     20  C   UNL     1       0.093  10.268  18.180  0.00  0.00    +0.000 C 
ENDBRANCH   5  11
BRANCH   1  21
ATOM     21  C   UNL     1       4.303   2.848  19.455  0.00  0.00    +0.000 C 
ATOM     22  O   UNL     1       5.207   2.286  20.063  0.00  0.00    +0.000 OA
BRANCH  21  24
ATOM     23  C   UNL     1       2.878   2.108  17.741  0.00  0.00    +0.000 C 
ATOM     24  O   UNL     1       4.114   2.723  18.109  0.00  0.00    +0.000 OA
ENDBRANCH  21  24
ENDBRANCH   1  21
TORSDOF 3
ENDMDL
MODEL 9
REMARK VINA RESULT:      -7.0      2.448      8.600
REMARK  Name = 
REMARK  6 active torsions:
REMARK  status: ('A' for Active; 'I' for Inactive)
REMARK    1  A    between atoms: C_1  and  O_2
REMARK    2  A    between atoms: O_2  and  C_3
REMARK    3  A    between atoms: C_3  and  C_5
REMARK    4  A    between atoms: C_9  and  C_11
REMARK    5  A    between atoms: C_19  and  C_20
REMARK    6  A    between atoms: C_22  and  C_23
REMARK                            x       y       z     vdW  Elec       q    Type
REMARK                         _______ _______ _______ _____ _____    ______ ____
ROOT
ATOM      1  C   UNL     1       4.260   5.373  18.056  0.00  0.00    +0.000 A 
ATOM      2  S   UNL     1       3.770   6.971  17.656  0.00  0.00    +0.000 S 
ATOM      3  C   UNL     1       2.644   6.961  18.929  0.00  0.00    +0.000 A 
ATOM      4  N   UNL     1       1.831   8.028  19.214  0.00  0.00    +0.000 N 
ATOM      5  C   UNL     1       1.610   9.144  18.435  0.00  0.00    +0.000 C 
ATOM      6  O   UNL     1       2.111   9.359  17.337  0.00  0.00    +0.000 OA
ATOM      7  N   UNL     1       2.623   5.869  19.656  0.00  0.00    +0.000 NA
ATOM      8  C   UNL     1       3.523   4.933  19.148  0.00  0.00    +0.000 A 
ATOM      9  C   UNL     1       3.593   3.606  19.818  0.00  0.00    +0.000 C 
ATOM     10  H   UNL     1       1.279   7.924  20.054  0.00  0.00    +0.000 HD
ENDROOT
BRANCH   5  11
ATOM     11  C   UNL     1       0.654  10.071  19.031  0.00  0.00    +0.000 A 
ATOM     12  O   UNL     1       0.992  10.707  20.197  0.00  0.00    +0.000 OA
ATOM     13  C   UNL     1      -0.060  11.494  20.550  0.00  0.00    +0.000 A 
ATOM     14  C   UNL     1      -0.123  12.297  21.687  0.00  0.00    +0.000 A 
ATOM     15  C   UNL     1      -1.306  13.017  21.882  0.00  0.00    +0.000 A 
ATOM     16  C   UNL     1      -2.359  12.934  20.968  0.00  0.00    +0.000 A 
ATOM     17  C   UNL     1      -2.263  12.123  19.830  0.00  0.00    +0.000 A 
ATOM     18  C   UNL     1      -1.084  11.381  19.620  0.00  0.00    +0.000 A 
ATOM     19  C   UNL     1      -0.623  10.453  18.635  0.00  0.00    +0.000 A 
ATOM     20  C   UNL     1      -1.368   9.974  17.441  0.00  0.00    +0.000 C 
ENDBRANCH   5  11
BRANCH   1  21
ATOM     21  C   UNL     1       5.294   4.737  17.268  0.00  0.00    +0.000 C 
ATOM     22  O   UNL     1       6.463   4.578  17.602  0.00  0.00    +0.000 OA
BRANCH  21  24
ATOM     23  C   UNL     1       5.723   4.390  14.985  0.00  0.00    +0.000 C 
ATOM     24  O   UNL     1       4.794   4.320  16.069  0.00  0.00    +0.000 OA
ENDBRANCH  21  24
ENDBRANCH   1  21
TORSDOF 3
ENDMDL
