MODEL 1
REMARK VINA RESULT:      -6.7      0.000      0.000
REMARK  Name = 
REMARK  6 active torsions:
REMARK  status: ('A' for Active; 'I' for Inactive)
REMARK    1  A    between atoms: C_1  and  O_2
REMARK    2  A    between atoms: O_2  and  C_3
REMARK    3  A    between atoms: C_6  and  C_7
REMARK    4  A    between atoms: C_10  and  P_11
REMARK    5  A    between atoms: P_11  and  O_13
REMARK    6  A    between atoms: P_11  and  O_14
REMARK                            x       y       z     vdW  Elec       q    Type
REMARK                         _______ _______ _______ _____ _____    ______ ____
ROOT
ATOM      1  C   UNL     1       4.927   4.080  18.623  0.00  0.00    +0.000 C 
ATOM      2  N   UNL     1       5.132   3.248  19.595  0.00  0.00    +0.000 NA
ATOM      3  O   UNL     1       4.079   2.305  19.593  0.00  0.00    +0.000 OA
ATOM      4  C   UNL     1       3.346   2.441  18.367  0.00  0.00    +0.000 C 
ATOM      5  C   UNL     1       3.720   3.796  17.801  0.00  0.00    +0.000 C 
ENDROOT
BRANCH   1   9
ATOM      6  C   UNL     1       7.440   7.416  17.680  0.00  0.00    +0.000 A 
ATOM      7  C   UNL     1       6.212   7.246  17.042  0.00  0.00    +0.000 A 
ATOM      8  C   UNL     1       5.386   6.168  17.369  0.00  0.00    +0.000 A 
ATOM      9  C   UNL     1       5.787   5.246  18.345  0.00  0.00    +0.000 A 
ATOM     10  C   UNL     1       7.019   5.415  18.980  0.00  0.00    +0.000 A 
ATOM     11  C   UNL     1       7.849   6.495  18.645  0.00  0.00    +0.000 A 
BRANCH   6  13
ATOM     12  C   UNL     1       8.504   9.464  18.228  0.00  0.00    +0.000 C 
ATOM     13  O   UNL     1       8.180   8.485  17.246  0.00  0.00    +0.000 OA
ENDBRANCH   6  13
ENDBRANCH   1   9
BRANCH   4  14
ATOM     14  P   UNL     1       1.581   2.378  18.846  0.00  0.00    +0.000 P 
ATOM     15  O   UNL     1       1.882   3.089  20.169  0.00  0.00    +0.000 OA
BRANCH  14  16
ATOM     16  O   UNL     1       1.222   3.555  17.759  0.00  0.00    +0.000 OA
ATOM     17  H   UNL     1       1.518   3.344  16.851  0.00  0.00    +0.000 HD
ENDBRANCH  14  16
BRANCH  14  18
ATOM     18  O   UNL     1      -0.088   2.317  19.300  0.00  0.00    +0.000 OA
ATOM     19  H   UNL     1      -0.518   2.924  18.661  0.00  0.00    +0.000 HD
ENDBRANCH  14  18
ENDBRANCH   4  14
TORSDOF 5
ENDMDL
MODEL 2
REMARK VINA RESULT:      -6.6      1.385      1.879
REMARK  Name = 
REMARK  6 active torsions:
REMARK  status: ('A' for Active; 'I' for Inactive)
REMARK    1  A    between atoms: C_1  and  O_2
REMARK    2  A    between atoms: O_2  and  C_3
REMARK    3  A    between atoms: C_6  and  C_7
REMARK    4  A    between atoms: C_10  and  P_11
REMARK    5  A    between atoms: P_11  and  O_13
REMARK    6  A    between atoms: P_11  and  O_14
REMARK                            x       y       z     vdW  Elec       q    Type
REMARK                         _______ _______ _______ _____ _____    ______ ____
ROOT
ATOM      1  C   UNL     1       4.731   3.959  19.048  0.00  0.00    +0.000 C 
ATOM      2  N   UNL     1       5.241   2.879  19.550  0.00  0.00    +0.000 NA
ATOM      3  O   UNL     1       4.185   2.094  20.067  0.00  0.00    +0.000 OA
ATOM      4  C   UNL     1       2.941   2.635  19.596  0.00  0.00    +0.000 C 
ATOM      5  C   UNL     1       3.247   4.042  19.122  0.00  0.00    +0.000 C 
ENDROOT
BRANCH   1   9
ATOM      6  C   UNL     1       7.070   7.193  17.499  0.00  0.00    +0.000 A 
ATOM      7  C   UNL     1       7.629   6.265  18.376  0.00  0.00    +0.000 A 
ATOM      8  C   UNL     1       6.869   5.199  18.862  0.00  0.00    +0.000 A 
ATOM      9  C   UNL     1       5.531   5.054  18.468  0.00  0.00    +0.000 A 
ATOM     10  C   UNL     1       4.970   5.986  17.594  0.00  0.00    +0.000 A 
ATOM     11  C   UNL     1       5.735   7.060  17.113  0.00  0.00    +0.000 A 
BRANCH   6  13
ATOM     12  C   UNL     1       8.292   9.117  18.156  0.00  0.00    +0.000 C 
ATOM     13  O   UNL     1       7.900   8.218  17.125  0.00  0.00    +0.000 OA
ENDBRANCH   6  13
ENDBRANCH   1   9
BRANCH   4  14
ATOM     14  P   UNL     1       1.833   2.643  21.052  0.00  0.00    +0.000 P 
ATOM     15  O   UNL     1       3.023   2.454  21.999  0.00  0.00    +0.000 OA
BRANCH  14  16
ATOM     16  O   UNL     1       1.613   4.262  20.902  0.00  0.00    +0.000 OA
ATOM     17  H   UNL     1       2.263   4.686  20.306  0.00  0.00    +0.000 HD
ENDBRANCH  14  16
BRANCH  14  18
ATOM     18  O   UNL     1       0.784   2.648  22.428  0.00  0.00    +0.000 OA
ATOM     19  H   UNL     1       0.216   3.433  22.276  0.00  0.00    +0.000 HD
ENDBRANCH  14  18
ENDBRANCH   4  14
TORSDOF 5
ENDMDL
MODEL 3
REMARK VINA RESULT:      -6.6      2.603      3.379
REMARK  Name = 
REMARK  6 active torsions:
REMARK  status: ('A' for Active; 'I' for Inactive)
REMARK    1  A    between atoms: C_1  and  O_2
REMARK    2  A    between atoms: O_2  and  C_3
REMARK    3  A    between atoms: C_6  and  C_7
REMARK    4  A    between atoms: C_10  and  P_11
REMARK    5  A    between atoms: P_11  and  O_13
REMARK    6  A    between atoms: P_11  and  O_14
REMARK                            x       y       z     vdW  Elec       q    Type
REMARK                         _______ _______ _______ _____ _____    ______ ____
ROOT
ATOM      1  C   UNL     1       3.261   4.140  17.468  0.00  0.00    +0.000 C 
ATOM      2  N   UNL     1       2.316   3.353  17.061  0.00  0.00    +0.000 NA
ATOM      3  O   UNL     1       1.358   3.246  18.095  0.00  0.00    +0.000 OA
ATOM      4  C   UNL     1       1.633   4.255  19.079  0.00  0.00    +0.000 C 
ATOM      5  C   UNL     1       3.057   4.709  18.828  0.00  0.00    +0.000 C 
ENDROOT
BRANCH   1   9
ATOM      6  C   UNL     1       6.692   5.103  15.096  0.00  0.00    +0.000 A 
ATOM      7  C   UNL     1       5.983   6.102  15.761  0.00  0.00    +0.000 A 
ATOM      8  C   UNL     1       4.876   5.781  16.551  0.00  0.00    +0.000 A 
ATOM      9  C   UNL     1       4.472   4.445  16.683  0.00  0.00    +0.000 A 
ATOM     10  C   UNL     1       5.180   3.446  16.013  0.00  0.00    +0.000 A 
ATOM     11  C   UNL     1       6.286   3.773  15.214  0.00  0.00    +0.000 A 
BRANCH   6  13
ATOM     12  C   UNL     1       7.721   5.121  12.958  0.00  0.00    +0.000 C 
ATOM     13  O   UNL     1       7.731   5.544  14.318  0.00  0.00    +0.000 OA
ENDBRANCH   6  13
ENDBRANCH   1   9
BRANCH   4  14
ATOM     14  P   UNL     1       1.471   3.415  20.696  0.00  0.00    +0.000 P 
ATOM     15  O   UNL     1       2.492   2.351  20.281  0.00  0.00    +0.000 OA
BRANCH  14  16
ATOM     16  O   UNL     1       2.322   4.613  21.427  0.00  0.00    +0.000 OA
ATOM     17  H   UNL     1       2.829   5.165  20.798  0.00  0.00    +0.000 HD
ENDBRANCH  14  16
BRANCH  14  18
ATOM     18  O   UNL     1       1.317   2.620  22.225  0.00  0.00    +0.000 OA
ATOM     19  H   UNL     1       2.175   2.802  22.662  0.00  0.00    +0.000 HD
ENDBRANCH  14  18
ENDBRANCH   4  14
TORSDOF 5
ENDMDL
MODEL 4
REMARK VINA RESULT:      -6.5      2.511      3.279
REMARK  Name = 
REMARK  6 active torsions:
REMARK  status: ('A' for Active; 'I' for Inactive)
REMARK    1  A    between atoms: C_1  and  O_2
REMARK    2  A    between atoms: O_2  and  C_3
REMARK    3  A    between atoms: C_6  and  C_7
REMARK    4  A    between atoms: C_10  and  P_11
REMARK    5  A    between atoms: P_11  and  O_13
REMARK    6  A    between atoms: P_11  and  O_14
REMARK                            x       y       z     vdW  Elec       q    Type
REMARK                         _______ _______ _______ _____ _____    ______ ____
ROOT
ATOM      1  C   UNL     1       3.328   4.230  17.462  0.00  0.00    +0.000 C 
ATOM      2  N   UNL     1       2.445   3.379  17.048  0.00  0.00    +0.000 NA
ATOM      3  O   UNL     1       1.484   3.210  18.071  0.00  0.00    +0.000 OA
ATOM      4  C   UNL     1       1.678   4.239  19.053  0.00  0.00    +0.000 C 
ATOM      5  C   UNL     1       3.070   4.789  18.817  0.00  0.00    +0.000 C 
ENDROOT
BRANCH   1   9
ATOM      6  C   UNL     1       6.854   5.213  15.240  0.00  0.00    +0.000 A 
ATOM      7  C   UNL     1       5.962   4.249  14.772  0.00  0.00    +0.000 A 
ATOM      8  C   UNL     1       4.802   3.947  15.490  0.00  0.00    +0.000 A 
ATOM      9  C   UNL     1       4.525   4.615  16.690  0.00  0.00    +0.000 A 
ATOM     10  C   UNL     1       5.421   5.577  17.160  0.00  0.00    +0.000 A 
ATOM     11  C   UNL     1       6.589   5.873  16.441  0.00  0.00    +0.000 A 
BRANCH   6  13
ATOM     12  C   UNL     1       7.824   5.166  13.076  0.00  0.00    +0.000 C 
ATOM     13  O   UNL     1       7.976   5.392  14.473  0.00  0.00    +0.000 OA
ENDBRANCH   6  13
ENDBRANCH   1   9
BRANCH   4  14
ATOM     14  P   UNL     1       1.554   3.395  20.672  0.00  0.00    +0.000 P 
ATOM     15  O   UNL     1       2.650   2.401  20.273  0.00  0.00    +0.000 OA
BRANCH  14  16
ATOM     16  O   UNL     1       2.314   4.650  21.408  0.00  0.00    +0.000 OA
ATOM     17  H   UNL     1       2.144   4.693  22.370  0.00  0.00    +0.000 HD
ENDBRANCH  14  16
BRANCH  14  18
ATOM     18  O   UNL     1       1.437   2.596  22.202  0.00  0.00    +0.000 OA
ATOM     19  H   UNL     1       0.548   2.183  22.173  0.00  0.00    +0.000 HD
ENDBRANCH  14  18
ENDBRANCH   4  14
TORSDOF 5
ENDMDL
MODEL 5
REMARK VINA RESULT:      -6.5      0.234      1.193
REMARK  Name = 
REMARK  6 active torsions:
REMARK  status: ('A' for Active; 'I' for Inactive)
REMARK    1  A    between atoms: C_1  and  O_2
REMARK    2  A    between atoms: O_2  and  C_3
REMARK    3  A    between atoms: C_6  and  C_7
REMARK    4  A    between atoms: C_10  and  P_11
REMARK    5  A    between atoms: P_11  and  O_13
REMARK    6  A    between atoms: P_11  and  O_14
REMARK                            x       y       z     vdW  Elec       q    Type
REMARK                         _______ _______ _______ _____ _____    ______ ____
ROOT
ATOM      1  C   UNL     1       4.866   4.009  18.623  0.00  0.00    +0.000 C 
ATOM      2  N   UNL     1       5.069   3.315  19.698  0.00  0.00    +0.000 NA
ATOM      3  O   UNL     1       4.002   2.398  19.835  0.00  0.00    +0.000 OA
ATOM      4  C   UNL     1       3.258   2.375  18.608  0.00  0.00    +0.000 C 
ATOM      5  C   UNL     1       3.646   3.633  17.858  0.00  0.00    +0.000 C 
ENDROOT
BRANCH   1   9
ATOM      6  C   UNL     1       7.384   7.273  17.467  0.00  0.00    +0.000 A 
ATOM      7  C   UNL     1       7.768   6.403  18.487  0.00  0.00    +0.000 A 
ATOM      8  C   UNL     1       6.954   5.326  18.846  0.00  0.00    +0.000 A 
ATOM      9  C   UNL     1       5.739   5.112  18.179  0.00  0.00    +0.000 A 
ATOM     10  C   UNL     1       5.353   5.986  17.162  0.00  0.00    +0.000 A 
ATOM     11  C   UNL     1       6.171   7.071  16.809  0.00  0.00    +0.000 A 
BRANCH   6  13
ATOM     12  C   UNL     1       8.280   9.334  18.227  0.00  0.00    +0.000 C 
ATOM     13  O   UNL     1       8.245   8.315  17.234  0.00  0.00    +0.000 OA
ENDBRANCH   6  13
ENDBRANCH   1   9
BRANCH   4  14
ATOM     14  P   UNL     1       1.498   2.407  19.107  0.00  0.00    +0.000 P 
ATOM     15  O   UNL     1       1.825   3.283  20.321  0.00  0.00    +0.000 OA
BRANCH  14  16
ATOM     16  O   UNL     1       1.146   3.435  17.877  0.00  0.00    +0.000 OA
ATOM     17  H   UNL     1       0.934   4.340  18.180  0.00  0.00    +0.000 HD
ENDBRANCH  14  16
BRANCH  14  18
ATOM     18  O   UNL     1      -0.166   2.436  19.580  0.00  0.00    +0.000 OA
ATOM     19  H   UNL     1      -0.469   3.321  19.286  0.00  0.00    +0.000 HD
ENDBRANCH  14  18
ENDBRANCH   4  14
TORSDOF 5
ENDMDL
MODEL 6
REMARK VINA RESULT:      -6.4      4.519      5.412
REMARK  Name = 
REMARK  6 active torsions:
REMARK  status: ('A' for Active; 'I' for Inactive)
REMARK    1  A    between atoms: C_1  and  O_2
REMARK    2  A    between atoms: O_2  and  C_3
REMARK    3  A    between atoms: C_6  and  C_7
REMARK    4  A    between atoms: C_10  and  P_11
REMARK    5  A    between atoms: P_11  and  O_13
REMARK    6  A    between atoms: P_11  and  O_14
REMARK                            x       y       z     vdW  Elec       q    Type
REMARK                         _______ _______ _______ _____ _____    ______ ____
ROOT
ATOM      1  C   UNL     1       2.891   6.370  18.394  0.00  0.00    +0.000 C 
ATOM      2  N   UNL     1       3.882   6.271  17.566  0.00  0.00    +0.000 NA
ATOM      3  O   UNL     1       4.264   4.912  17.500  0.00  0.00    +0.000 OA
ATOM      4  C   UNL     1       3.249   4.121  18.137  0.00  0.00    +0.000 C 
ATOM      5  C   UNL     1       2.436   5.081  18.981  0.00  0.00    +0.000 C 
ENDROOT
BRANCH   1   9
ATOM      6  C   UNL     1       0.935  10.009  19.517  0.00  0.00    +0.000 A 
ATOM      7  C   UNL     1       1.152   9.000  20.452  0.00  0.00    +0.000 A 
ATOM      8  C   UNL     1       1.810   7.822  20.087  0.00  0.00    +0.000 A 
ATOM      9  C   UNL     1       2.259   7.649  18.771  0.00  0.00    +0.000 A 
ATOM     10  C   UNL     1       2.037   8.659  17.833  0.00  0.00    +0.000 A 
ATOM     11  C   UNL     1       1.370   9.837  18.202  0.00  0.00    +0.000 A 
BRANCH   6  13
ATOM     12  C   UNL     1      -0.367  10.954  21.261  0.00  0.00    +0.000 C 
ATOM     13  O   UNL     1       0.242  11.098  19.982  0.00  0.00    +0.000 OA
ENDBRANCH   6  13
ENDBRANCH   1   9
BRANCH   4  14
ATOM     14  P   UNL     1       4.153   2.914  19.173  0.00  0.00    +0.000 P 
ATOM     15  O   UNL     1       3.830   1.782  18.193  0.00  0.00    +0.000 OA
BRANCH  14  16
ATOM     16  O   UNL     1       5.589   3.546  18.693  0.00  0.00    +0.000 OA
ATOM     17  H   UNL     1       5.770   3.413  17.741  0.00  0.00    +0.000 HD
ENDBRANCH  14  16
BRANCH  14  18
ATOM     18  O   UNL     1       5.006   1.772  20.154  0.00  0.00    +0.000 OA
ATOM     19  H   UNL     1       5.940   1.893  19.881  0.00  0.00    +0.000 HD
ENDBRANCH  14  18
ENDBRANCH   4  14
TORSDOF 5
ENDMDL
MODEL 7
REMARK VINA RESULT:      -6.4      0.732      1.549
REMARK  Name = 
REMARK  6 active torsions:
REMARK  status: ('A' for Active; 'I' for Inactive)
REMARK    1  A    between atoms: C_1  and  O_2
REMARK    2  A    between atoms: O_2  and  C_3
REMARK    3  A    between atoms: C_6  and  C_7
REMARK    4  A    between atoms: C_10  and  P_11
REMARK    5  A    between atoms: P_11  and  O_13
REMARK    6  A    between atoms: P_11  and  O_14
REMARK                            x       y       z     vdW  Elec       q    Type
REMARK                         _______ _______ _______ _____ _____    ______ ____
ROOT
ATOM      1  C   UNL     1       5.149   4.484  18.518  0.00  0.00    +0.000 C 
ATOM      2  N   UNL     1       5.437   3.572  19.392  0.00  0.00    +0.000 NA
ATOM      3  O   UNL     1       4.345   2.677  19.466  0.00  0.00    +0.000 OA
ATOM      4  C   UNL     1       3.464   2.938  18.363  0.00  0.00    +0.000 C 
ATOM      5  C   UNL     1       3.831   4.316  17.849  0.00  0.00    +0.000 C 
ENDROOT
BRANCH   1   9
ATOM      6  C   UNL     1       7.672   7.860  17.761  0.00  0.00    +0.000 A 
ATOM      7  C   UNL     1       8.053   6.875  18.671  0.00  0.00    +0.000 A 
ATOM      8  C   UNL     1       7.237   5.764  18.899  0.00  0.00    +0.000 A 
ATOM      9  C   UNL     1       6.024   5.632  18.210  0.00  0.00    +0.000 A 
ATOM     10  C   UNL     1       5.640   6.621  17.303  0.00  0.00    +0.000 A 
ATOM     11  C   UNL     1       6.459   7.738  17.081  0.00  0.00    +0.000 A 
BRANCH   6  13
ATOM     12  C   UNL     1       8.897   9.559  18.874  0.00  0.00    +0.000 C 
ATOM     13  O   UNL     1       8.533   8.921  17.654  0.00  0.00    +0.000 OA
ENDBRANCH   6  13
ENDBRANCH   1   9
BRANCH   4  14
ATOM     14  P   UNL     1       1.777   2.913  19.071  0.00  0.00    +0.000 P 
ATOM     15  O   UNL     1       1.200   3.544  17.800  0.00  0.00    +0.000 OA
BRANCH  14  16
ATOM     16  O   UNL     1       1.691   1.287  18.860  0.00  0.00    +0.000 OA
ATOM     17  H   UNL     1       1.764   0.786  19.697  0.00  0.00    +0.000 HD
ENDBRANCH  14  16
BRANCH  14  18
ATOM     18  O   UNL     1       0.182   2.890  19.741  0.00  0.00    +0.000 OA
ATOM     19  H   UNL     1      -0.379   3.201  18.999  0.00  0.00    +0.000 HD
ENDBRANCH  14  18
ENDBRANCH   4  14
TORSDOF 5
ENDMDL
MODEL 8
REMARK VINA RESULT:      -6.4      4.528      5.995
REMARK  Name = 
REMARK  6 active torsions:
REMARK  status: ('A' for Active; 'I' for Inactive)
REMARK    1  A    between atoms: C_1  and  O_2
REMARK    2  A    between atoms: O_2  and  C_3
REMARK    3  A    between atoms: C_6  and  C_7
REMARK    4  A    between atoms: C_10  and  P_11
REMARK    5  A    between atoms: P_11  and  O_13
REMARK    6  A    between atoms: P_11  and  O_14
REMARK                            x       y       z     vdW  Elec       q    Type
REMARK                         _______ _______ _______ _____ _____    ______ ____
ROOT
ATOM      1  C   UNL     1       3.743   6.279  17.975  0.00  0.00    +0.000 C 
ATOM      2  N   UNL     1       3.396   5.085  17.611  0.00  0.00    +0.000 NA
ATOM      3  O   UNL     1       4.550   4.418  17.140  0.00  0.00    +0.000 OA
ATOM      4  C   UNL     1       5.704   5.192  17.502  0.00  0.00    +0.000 C 
ATOM      5  C   UNL     1       5.193   6.579  17.835  0.00  0.00    +0.000 C 
ENDROOT
BRANCH   1   9
ATOM      6  C   UNL     1       1.095   9.332  19.389  0.00  0.00    +0.000 A 
ATOM      7  C   UNL     1       1.616   9.383  18.097  0.00  0.00    +0.000 A 
ATOM      8  C   UNL     1       2.463   8.373  17.632  0.00  0.00    +0.000 A 
ATOM      9  C   UNL     1       2.794   7.297  18.466  0.00  0.00    +0.000 A 
ATOM     10  C   UNL     1       2.275   7.248  19.761  0.00  0.00    +0.000 A 
ATOM     11  C   UNL     1       1.430   8.268  20.226  0.00  0.00    +0.000 A 
BRANCH   6  13
ATOM     12  C   UNL     1       0.228  10.679  21.139  0.00  0.00    +0.000 C 
ATOM     13  O   UNL     1       0.311  10.400  19.745  0.00  0.00    +0.000 OA
ENDBRANCH   6  13
ENDBRANCH   1   9
BRANCH   4  14
ATOM     14  P   UNL     1       6.766   5.207  16.012  0.00  0.00    +0.000 P 
ATOM     15  O   UNL     1       7.320   6.587  16.382  0.00  0.00    +0.000 OA
BRANCH  14  16
ATOM     16  O   UNL     1       7.775   4.106  16.695  0.00  0.00    +0.000 OA
ATOM     17  H   UNL     1       7.833   3.271  16.189  0.00  0.00    +0.000 HD
ENDBRANCH  14  16
BRANCH  14  18
ATOM     18  O   UNL     1       7.770   5.222  14.603  0.00  0.00    +0.000 OA
ATOM     19  H   UNL     1       7.434   5.990  14.095  0.00  0.00    +0.000 HD
ENDBRANCH  14  18
ENDBRANCH   4  14
TORSDOF 5
ENDMDL
MODEL 9
REMARK VINA RESULT:      -6.4      2.632      3.411
REMARK  Name = 
REMARK  6 active torsions:
REMARK  status: ('A' for Active; 'I' for Inactive)
REMARK    1  A    between atoms: C_1  and  O_2
REMARK    2  A    between atoms: O_2  and  C_3
REMARK    3  A    between atoms: C_6  and  C_7
REMARK    4  A    between atoms: C_10  and  P_11
REMARK    5  A    between atoms: P_11  and  O_13
REMARK    6  A    between atoms: P_11  and  O_14
REMARK                            x       y       z     vdW  Elec       q    Type
REMARK                         _______ _______ _______ _____ _____    ______ ____
ROOT
ATOM      1  C   UNL     1       3.718   3.839  17.368  0.00  0.00    +0.000 C 
ATOM      2  N   UNL     1       2.947   2.821  17.151  0.00  0.00    +0.000 NA
ATOM      3  O   UNL     1       2.011   2.747  18.208  0.00  0.00    +0.000 OA
ATOM      4  C   UNL     1       2.074   3.968  18.960  0.00  0.00    +0.000 C 
ATOM      5  C   UNL     1       3.389   4.623  18.589  0.00  0.00    +0.000 C 
ENDROOT
BRANCH   1   9
ATOM      6  C   UNL     1       7.019   5.034  14.917  0.00  0.00    +0.000 A 
ATOM      7  C   UNL     1       7.087   5.140  16.305  0.00  0.00    +0.000 A 
ATOM      8  C   UNL     1       6.015   4.729  17.103  0.00  0.00    +0.000 A 
ATOM      9  C   UNL     1       4.860   4.203  16.509  0.00  0.00    +0.000 A 
ATOM     10  C   UNL     1       4.791   4.101  15.118  0.00  0.00    +0.000 A 
ATOM     11  C   UNL     1       5.866   4.521  14.320  0.00  0.00    +0.000 A 
BRANCH   6  13
ATOM     12  C   UNL     1       8.065   5.408  12.821  0.00  0.00    +0.000 C 
ATOM     13  O   UNL     1       8.113   5.508  14.241  0.00  0.00    +0.000 OA
ENDBRANCH   6  13
ENDBRANCH   1   9
BRANCH   4  14
ATOM     14  P   UNL     1       2.049   3.457  20.717  0.00  0.00    +0.000 P 
ATOM     15  O   UNL     1       2.141   4.917  21.175  0.00  0.00    +0.000 OA
BRANCH  14  16
ATOM     16  O   UNL     1       0.449   3.104  20.614  0.00  0.00    +0.000 OA
ATOM     17  H   UNL     1       0.140   2.509  21.326  0.00  0.00    +0.000 HD
ENDBRANCH  14  16
BRANCH  14  18
ATOM     18  O   UNL     1       2.027   2.975  22.379  0.00  0.00    +0.000 OA
ATOM     19  H   UNL     1       1.245   2.386  22.432  0.00  0.00    +0.000 HD
ENDBRANCH  14  18
ENDBRANCH   4  14
TORSDOF 5
ENDMDL
