MODEL 1
REMARK VINA RESULT:      -8.8      0.000      0.000
REMARK  Name = 
REMARK  5 active torsions:
REMARK  status: ('A' for Active; 'I' for Inactive)
REMARK    1  A    between atoms: C_1  and  C_2
REMARK    2  A    between atoms: C_2  and  N_3
REMARK    3  A    between atoms: C_10  and  C_12
REMARK    4  A    between atoms: C_12  and  C_13
REMARK    5  A    between atoms: C_12  and  C_19
REMARK                            x       y       z     vdW  Elec       q    Type
REMARK                         _______ _______ _______ _____ _____    ______ ____
ROOT
ATOM      1  N   UNL     1      -1.072  12.005  21.292  0.00  0.00    +0.000 NA
ATOM      2  C   UNL     1      -0.450  11.152  22.344  0.00  0.00    +0.000 C 
ATOM      3  C   UNL     1      -0.253   9.696  21.886  0.00  0.00    +0.000 C 
ATOM      4  C   UNL     1       0.372   9.676  20.543  0.00  0.00    +0.000 A 
ATOM      5  N   UNL     1       1.025   8.573  20.069  0.00  0.00    +0.000 NA
ATOM      6  C   UNL     1       1.528   8.836  18.894  0.00  0.00    +0.000 A 
ATOM      7  N   UNL     1       2.323   8.014  18.132  0.00  0.00    +0.000 N 
ATOM      8  C   UNL     1       2.893   6.901  18.726  0.00  0.00    +0.000 C 
ATOM      9  O   UNL     1       2.829   6.645  19.933  0.00  0.00    +0.000 OA
ATOM     10  S   UNL     1       1.156  10.379  18.242  0.00  0.00    +0.000 S 
ATOM     11  C   UNL     1       0.362  10.771  19.709  0.00  0.00    +0.000 A 
ATOM     12  C   UNL     1      -0.203  12.106  20.084  0.00  0.00    +0.000 C 
ATOM     13  H   UNL     1       2.544   8.300  17.193  0.00  0.00    +0.000 HD
ENDROOT
BRANCH   1  15
ATOM     14  C   UNL     1      -1.948  13.251  23.296  0.00  0.00    +0.000 C 
ATOM     15  C   UNL     1      -1.398  13.315  21.875  0.00  0.00    +0.000 C 
ENDBRANCH   1  15
BRANCH   8  16
ATOM     16  C   UNL     1       3.614   5.922  17.756  0.00  0.00    +0.000 C 
BRANCH  16  17
ATOM     17  C   UNL     1       5.130   6.045  17.980  0.00  0.00    +0.000 A 
ATOM     18  C   UNL     1       5.758   5.398  19.063  0.00  0.00    +0.000 A 
ATOM     19  C   UNL     1       7.101   5.627  19.361  0.00  0.00    +0.000 A 
ATOM     20  C   UNL     1       7.853   6.481  18.561  0.00  0.00    +0.000 A 
ATOM     21  C   UNL     1       7.268   7.078  17.444  0.00  0.00    +0.000 A 
ATOM     22  C   UNL     1       5.917   6.861  17.153  0.00  0.00    +0.000 A 
ENDBRANCH  16  17
BRANCH  16  23
ATOM     23  C   UNL     1       3.036   4.502  17.894  0.00  0.00    +0.000 A 
ATOM     24  C   UNL     1       1.715   4.315  18.348  0.00  0.00    +0.000 A 
ATOM     25  C   UNL     1       1.185   3.037  18.542  0.00  0.00    +0.000 A 
ATOM     26  C   UNL     1       1.956   1.917  18.252  0.00  0.00    +0.000 A 
ATOM     27  C   UNL     1       3.242   2.078  17.742  0.00  0.00    +0.000 A 
ATOM     28  C   UNL     1       3.775   3.358  17.552  0.00  0.00    +0.000 A 
ENDBRANCH  16  23
ENDBRANCH   8  16
TORSDOF 4
ENDMDL
MODEL 2
REMARK VINA RESULT:      -8.7      1.344      4.000
REMARK  Name = 
REMARK  5 active torsions:
REMARK  status: ('A' for Active; 'I' for Inactive)
REMARK    1  A    between atoms: C_1  and  C_2
REMARK    2  A    between atoms: C_2  and  N_3
REMARK    3  A    between atoms: C_10  and  C_12
REMARK    4  A    between atoms: C_12  and  C_13
REMARK    5  A    between atoms: C_12  and  C_19
REMARK                            x       y       z     vdW  Elec       q    Type
REMARK                         _______ _______ _______ _____ _____    ______ ____
ROOT
ATOM      1  N   UNL     1      -1.200  12.374  20.554  0.00  0.00    +0.000 NA
ATOM      2  C   UNL     1      -1.318  11.874  19.156  0.00  0.00    +0.000 C 
ATOM      3  C   UNL     1      -0.031  11.187  18.662  0.00  0.00    +0.000 C 
ATOM      4  C   UNL     1       0.445  10.228  19.685  0.00  0.00    +0.000 A 
ATOM      5  N   UNL     1       1.297   9.206  19.373  0.00  0.00    +0.000 NA
ATOM      6  C   UNL     1       1.514   8.479  20.435  0.00  0.00    +0.000 A 
ATOM      7  N   UNL     1       2.246   7.318  20.508  0.00  0.00    +0.000 N 
ATOM      8  C   UNL     1       2.585   6.670  19.333  0.00  0.00    +0.000 C 
ATOM      9  O   UNL     1       2.182   7.001  18.213  0.00  0.00    +0.000 OA
ATOM     10  S   UNL     1       0.800   9.040  21.892  0.00  0.00    +0.000 S 
ATOM     11  C   UNL     1       0.036  10.286  20.999  0.00  0.00    +0.000 A 
ATOM     12  C   UNL     1      -0.977  11.259  21.518  0.00  0.00    +0.000 C 
ATOM     13  H   UNL     1       2.428   6.925  21.416  0.00  0.00    +0.000 HD
ENDROOT
BRANCH   1  15
ATOM     14  C   UNL     1      -3.120  12.747  22.138  0.00  0.00    +0.000 C 
ATOM     15  C   UNL     1      -2.390  13.178  20.871  0.00  0.00    +0.000 C 
ENDBRANCH   1  15
BRANCH   8  16
ATOM     16  C   UNL     1       3.571   5.478  19.488  0.00  0.00    +0.000 C 
BRANCH  16  17
ATOM     17  C   UNL     1       2.840   4.185  19.092  0.00  0.00    +0.000 A 
ATOM     18  C   UNL     1       1.652   3.797  19.740  0.00  0.00    +0.000 A 
ATOM     19  C   UNL     1       1.067   2.554  19.493  0.00  0.00    +0.000 A 
ATOM     20  C   UNL     1       1.641   1.689  18.568  0.00  0.00    +0.000 A 
ATOM     21  C   UNL     1       2.780   2.083  17.866  0.00  0.00    +0.000 A 
ATOM     22  C   UNL     1       3.376   3.323  18.123  0.00  0.00    +0.000 A 
ENDBRANCH  16  17
BRANCH  16  23
ATOM     23  C   UNL     1       4.881   5.760  18.728  0.00  0.00    +0.000 A 
ATOM     24  C   UNL     1       6.114   5.322  19.252  0.00  0.00    +0.000 A 
ATOM     25  C   UNL     1       7.321   5.618  18.616  0.00  0.00    +0.000 A 
ATOM     26  C   UNL     1       7.318   6.328  17.421  0.00  0.00    +0.000 A 
ATOM     27  C   UNL     1       6.108   6.715  16.852  0.00  0.00    +0.000 A 
ATOM     28  C   UNL     1       4.898   6.424  17.491  0.00  0.00    +0.000 A 
ENDBRANCH  16  23
ENDBRANCH   8  16
TORSDOF 4
ENDMDL
MODEL 3
REMARK VINA RESULT:      -8.7      1.417      4.004
REMARK  Name = 
REMARK  5 active torsions:
REMARK  status: ('A' for Active; 'I' for Inactive)
REMARK    1  A    between atoms: C_1  and  C_2
REMARK    2  A    between atoms: C_2  and  N_3
REMARK    3  A    between atoms: C_10  and  C_12
REMARK    4  A    between atoms: C_12  and  C_13
REMARK    5  A    between atoms: C_12  and  C_19
REMARK                            x       y       z     vdW  Elec       q    Type
REMARK                         _______ _______ _______ _____ _____    ______ ____
ROOT
ATOM      1  N   UNL     1      -1.257  12.429  20.608  0.00  0.00    +0.000 NA
ATOM      2  C   UNL     1      -1.399  11.917  19.217  0.00  0.00    +0.000 C 
ATOM      3  C   UNL     1      -0.122  11.225  18.707  0.00  0.00    +0.000 C 
ATOM      4  C   UNL     1       0.372  10.274  19.730  0.00  0.00    +0.000 A 
ATOM      5  N   UNL     1       1.218   9.249  19.412  0.00  0.00    +0.000 NA
ATOM      6  C   UNL     1       1.452   8.531  20.476  0.00  0.00    +0.000 A 
ATOM      7  N   UNL     1       2.184   7.370  20.546  0.00  0.00    +0.000 N 
ATOM      8  C   UNL     1       2.503   6.712  19.371  0.00  0.00    +0.000 C 
ATOM      9  O   UNL     1       2.081   7.033  18.256  0.00  0.00    +0.000 OA
ATOM     10  S   UNL     1       0.763   9.104  21.940  0.00  0.00    +0.000 S 
ATOM     11  C   UNL     1      -0.015  10.344  21.050  0.00  0.00    +0.000 A 
ATOM     12  C   UNL     1      -1.019  11.322  21.578  0.00  0.00    +0.000 C 
ATOM     13  H   UNL     1       2.382   6.984  21.454  0.00  0.00    +0.000 HD
ENDROOT
BRANCH   1  15
ATOM     14  C   UNL     1      -3.710  12.823  20.203  0.00  0.00    +0.000 C 
ATOM     15  C   UNL     1      -2.441  13.237  20.939  0.00  0.00    +0.000 C 
ENDBRANCH   1  15
BRANCH   8  16
ATOM     16  C   UNL     1       3.491   5.521  19.520  0.00  0.00    +0.000 C 
BRANCH  16  17
ATOM     17  C   UNL     1       2.766   4.231  19.102  0.00  0.00    +0.000 A 
ATOM     18  C   UNL     1       1.530   3.876  19.676  0.00  0.00    +0.000 A 
ATOM     19  C   UNL     1       0.942   2.637  19.416  0.00  0.00    +0.000 A 
ATOM     20  C   UNL     1       1.563   1.743  18.551  0.00  0.00    +0.000 A 
ATOM     21  C   UNL     1       2.753   2.103  17.919  0.00  0.00    +0.000 A 
ATOM     22  C   UNL     1       3.351   3.339  18.190  0.00  0.00    +0.000 A 
ENDBRANCH  16  17
BRANCH  16  23
ATOM     23  C   UNL     1       4.805   5.814  18.773  0.00  0.00    +0.000 A 
ATOM     24  C   UNL     1       4.786   6.510  17.548  0.00  0.00    +0.000 A 
ATOM     25  C   UNL     1       5.956   6.735  16.819  0.00  0.00    +0.000 A 
ATOM     26  C   UNL     1       7.177   6.300  17.319  0.00  0.00    +0.000 A 
ATOM     27  C   UNL     1       7.229   5.667  18.559  0.00  0.00    +0.000 A 
ATOM     28  C   UNL     1       6.057   5.437  19.287  0.00  0.00    +0.000 A 
ENDBRANCH  16  23
ENDBRANCH   8  16
TORSDOF 4
ENDMDL
MODEL 4
REMARK VINA RESULT:      -8.6      1.429      4.074
REMARK  Name = 
REMARK  5 active torsions:
REMARK  status: ('A' for Active; 'I' for Inactive)
REMARK    1  A    between atoms: C_1  and  C_2
REMARK    2  A    between atoms: C_2  and  N_3
REMARK    3  A    between atoms: C_10  and  C_12
REMARK    4  A    between atoms: C_12  and  C_13
REMARK    5  A    between atoms: C_12  and  C_19
REMARK                            x       y       z     vdW  Elec       q    Type
REMARK                         _______ _______ _______ _____ _____    ______ ____
ROOT
ATOM      1  N   UNL     1      -1.345  12.372  20.426  0.00  0.00    +0.000 NA
ATOM      2  C   UNL     1      -1.499  11.787  19.065  0.00  0.00    +0.000 C 
ATOM      3  C   UNL     1      -0.215  11.099  18.567  0.00  0.00    +0.000 C 
ATOM      4  C   UNL     1       0.318  10.213  19.627  0.00  0.00    +0.000 A 
ATOM      5  N   UNL     1       1.183   9.193  19.345  0.00  0.00    +0.000 NA
ATOM      6  C   UNL     1       1.453   8.536  20.440  0.00  0.00    +0.000 A 
ATOM      7  N   UNL     1       2.214   7.397  20.555  0.00  0.00    +0.000 N 
ATOM      8  C   UNL     1       2.527   6.687  19.408  0.00  0.00    +0.000 C 
ATOM      9  O   UNL     1       2.078   6.942  18.286  0.00  0.00    +0.000 OA
ATOM     10  S   UNL     1       0.776   9.167  21.885  0.00  0.00    +0.000 S 
ATOM     11  C   UNL     1      -0.046  10.341  20.948  0.00  0.00    +0.000 A 
ATOM     12  C   UNL     1      -1.064  11.321  21.446  0.00  0.00    +0.000 C 
ATOM     13  H   UNL     1       2.437   7.062  21.477  0.00  0.00    +0.000 HD
ENDROOT
BRANCH   1  15
ATOM     14  C   UNL     1      -2.280  14.661  20.898  0.00  0.00    +0.000 C 
ATOM     15  C   UNL     1      -2.542  13.168  20.738  0.00  0.00    +0.000 C 
ENDBRANCH   1  15
BRANCH   8  16
ATOM     16  C   UNL     1       3.546   5.528  19.598  0.00  0.00    +0.000 C 
BRANCH  16  17
ATOM     17  C   UNL     1       2.829   4.198  19.318  0.00  0.00    +0.000 A 
ATOM     18  C   UNL     1       3.393   3.239  18.454  0.00  0.00    +0.000 A 
ATOM     19  C   UNL     1       2.680   2.100  18.075  0.00  0.00    +0.000 A 
ATOM     20  C   UNL     1       1.403   1.882  18.579  0.00  0.00    +0.000 A 
ATOM     21  C   UNL     1       0.853   2.786  19.488  0.00  0.00    +0.000 A 
ATOM     22  C   UNL     1       1.561   3.935  19.858  0.00  0.00    +0.000 A 
ENDBRANCH  16  17
BRANCH  16  23
ATOM     23  C   UNL     1       4.816   5.785  18.767  0.00  0.00    +0.000 A 
ATOM     24  C   UNL     1       6.082   5.432  19.276  0.00  0.00    +0.000 A 
ATOM     25  C   UNL     1       7.255   5.711  18.571  0.00  0.00    +0.000 A 
ATOM     26  C   UNL     1       7.184   6.317  17.322  0.00  0.00    +0.000 A 
ATOM     27  C   UNL     1       5.941   6.617  16.770  0.00  0.00    +0.000 A 
ATOM     28  C   UNL     1       4.766   6.343  17.479  0.00  0.00    +0.000 A 
ENDBRANCH  16  23
ENDBRANCH   8  16
TORSDOF 4
ENDMDL
MODEL 5
REMARK VINA RESULT:      -8.5      1.828      3.835
REMARK  Name = 
REMARK  5 active torsions:
REMARK  status: ('A' for Active; 'I' for Inactive)
REMARK    1  A    between atoms: C_1  and  C_2
REMARK    2  A    between atoms: C_2  and  N_3
REMARK    3  A    between atoms: C_10  and  C_12
REMARK    4  A    between atoms: C_12  and  C_13
REMARK    5  A    between atoms: C_12  and  C_19
REMARK                            x       y       z     vdW  Elec       q    Type
REMARK                         _______ _______ _______ _____ _____    ______ ____
ROOT
ATOM      1  N   UNL     1      -1.246  12.550  20.936  0.00  0.00    +0.000 NA
ATOM      2  C   UNL     1      -1.473  12.100  19.534  0.00  0.00    +0.000 C 
ATOM      3  C   UNL     1      -0.228  11.438  18.916  0.00  0.00    +0.000 C 
ATOM      4  C   UNL     1       0.330  10.445  19.864  0.00  0.00    +0.000 A 
ATOM      5  N   UNL     1       1.158   9.440  19.448  0.00  0.00    +0.000 NA
ATOM      6  C   UNL     1       1.458   8.677  20.463  0.00  0.00    +0.000 A 
ATOM      7  N   UNL     1       2.197   7.517  20.436  0.00  0.00    +0.000 N 
ATOM      8  C   UNL     1       2.444   6.914  19.215  0.00  0.00    +0.000 C 
ATOM      9  O   UNL     1       1.953   7.283  18.143  0.00  0.00    +0.000 OA
ATOM     10  S   UNL     1       0.859   9.180  21.991  0.00  0.00    +0.000 S 
ATOM     11  C   UNL     1       0.025  10.454  21.206  0.00  0.00    +0.000 A 
ATOM     12  C   UNL     1      -0.947  11.402  21.839  0.00  0.00    +0.000 C 
ATOM     13  H   UNL     1       2.451   7.092  21.312  0.00  0.00    +0.000 HD
ENDROOT
BRANCH   1  15
ATOM     14  C   UNL     1      -2.839  13.074  22.814  0.00  0.00    +0.000 C 
ATOM     15  C   UNL     1      -2.410  13.336  21.375  0.00  0.00    +0.000 C 
ENDBRANCH   1  15
BRANCH   8  16
ATOM     16  C   UNL     1       3.442   5.722  19.249  0.00  0.00    +0.000 C 
BRANCH  16  17
ATOM     17  C   UNL     1       2.694   4.474  19.745  0.00  0.00    +0.000 A 
ATOM     18  C   UNL     1       1.648   3.909  18.990  0.00  0.00    +0.000 A 
ATOM     19  C   UNL     1       0.866   2.873  19.501  0.00  0.00    +0.000 A 
ATOM     20  C   UNL     1       1.136   2.359  20.765  0.00  0.00    +0.000 A 
ATOM     21  C   UNL     1       2.210   2.859  21.501  0.00  0.00    +0.000 A 
ATOM     22  C   UNL     1       2.987   3.908  20.995  0.00  0.00    +0.000 A 
ENDBRANCH  16  17
BRANCH  16  23
ATOM     23  C   UNL     1       4.152   5.575  17.891  0.00  0.00    +0.000 A 
ATOM     24  C   UNL     1       4.571   6.718  17.181  0.00  0.00    +0.000 A 
ATOM     25  C   UNL     1       5.161   6.616  15.919  0.00  0.00    +0.000 A 
ATOM     26  C   UNL     1       5.376   5.364  15.355  0.00  0.00    +0.000 A 
ATOM     27  C   UNL     1       5.029   4.218  16.066  0.00  0.00    +0.000 A 
ATOM     28  C   UNL     1       4.434   4.320  17.328  0.00  0.00    +0.000 A 
ENDBRANCH  16  23
ENDBRANCH   8  16
TORSDOF 4
ENDMDL
MODEL 6
REMARK VINA RESULT:      -8.5      1.891      3.802
REMARK  Name = 
REMARK  5 active torsions:
REMARK  status: ('A' for Active; 'I' for Inactive)
REMARK    1  A    between atoms: C_1  and  C_2
REMARK    2  A    between atoms: C_2  and  N_3
REMARK    3  A    between atoms: C_10  and  C_12
REMARK    4  A    between atoms: C_12  and  C_13
REMARK    5  A    between atoms: C_12  and  C_19
REMARK                            x       y       z     vdW  Elec       q    Type
REMARK                         _______ _______ _______ _____ _____    ______ ____
ROOT
ATOM      1  N   UNL     1      -1.325  12.947  20.589  0.00  0.00    +0.000 NA
ATOM      2  C   UNL     1      -1.427  12.512  19.168  0.00  0.00    +0.000 C 
ATOM      3  C   UNL     1      -0.152  11.808  18.671  0.00  0.00    +0.000 C 
ATOM      4  C   UNL     1       0.274  10.791  19.660  0.00  0.00    +0.000 A 
ATOM      5  N   UNL     1       1.103   9.759  19.320  0.00  0.00    +0.000 NA
ATOM      6  C   UNL     1       1.275   8.981  20.354  0.00  0.00    +0.000 A 
ATOM      7  N   UNL     1       1.971   7.796  20.390  0.00  0.00    +0.000 N 
ATOM      8  C   UNL     1       2.316   7.190  19.194  0.00  0.00    +0.000 C 
ATOM      9  O   UNL     1       1.947   7.581  18.082  0.00  0.00    +0.000 OA
ATOM     10  S   UNL     1       0.546   9.498  21.819  0.00  0.00    +0.000 S 
ATOM     11  C   UNL     1      -0.161  10.805  20.966  0.00  0.00    +0.000 A 
ATOM     12  C   UNL     1      -1.157  11.784  21.508  0.00  0.00    +0.000 C 
ATOM     13  H   UNL     1       2.122   7.358  21.283  0.00  0.00    +0.000 HD
ENDROOT
BRANCH   1  15
ATOM     14  C   UNL     1      -2.672  14.052  22.406  0.00  0.00    +0.000 C 
ATOM     15  C   UNL     1      -2.498  13.772  20.918  0.00  0.00    +0.000 C 
ENDBRANCH   1  15
BRANCH   8  16
ATOM     16  C   UNL     1       3.264   5.963  19.317  0.00  0.00    +0.000 C 
BRANCH  16  17
ATOM     17  C   UNL     1       2.461   4.781  19.884  0.00  0.00    +0.000 A 
ATOM     18  C   UNL     1       2.711   4.290  21.180  0.00  0.00    +0.000 A 
ATOM     19  C   UNL     1       2.095   3.126  21.643  0.00  0.00    +0.000 A 
ATOM     20  C   UNL     1       1.191   2.450  20.830  0.00  0.00    +0.000 A 
ATOM     21  C   UNL     1       0.879   2.957  19.569  0.00  0.00    +0.000 A 
ATOM     22  C   UNL     1       1.507   4.116  19.098  0.00  0.00    +0.000 A 
ENDBRANCH  16  17
BRANCH  16  23
ATOM     23  C   UNL     1       3.979   5.698  17.979  0.00  0.00    +0.000 A 
ATOM     24  C   UNL     1       4.147   4.379  17.513  0.00  0.00    +0.000 A 
ATOM     25  C   UNL     1       4.846   4.106  16.335  0.00  0.00    +0.000 A 
ATOM     26  C   UNL     1       5.361   5.152  15.578  0.00  0.00    +0.000 A 
ATOM     27  C   UNL     1       5.152   6.467  15.986  0.00  0.00    +0.000 A 
ATOM     28  C   UNL     1       4.457   6.740  17.168  0.00  0.00    +0.000 A 
ENDBRANCH  16  23
ENDBRANCH   8  16
TORSDOF 4
ENDMDL
MODEL 7
REMARK VINA RESULT:      -8.4      1.919      3.847
REMARK  Name = 
REMARK  5 active torsions:
REMARK  status: ('A' for Active; 'I' for Inactive)
REMARK    1  A    between atoms: C_1  and  C_2
REMARK    2  A    between atoms: C_2  and  N_3
REMARK    3  A    between atoms: C_10  and  C_12
REMARK    4  A    between atoms: C_12  and  C_13
REMARK    5  A    between atoms: C_12  and  C_19
REMARK                            x       y       z     vdW  Elec       q    Type
REMARK                         _______ _______ _______ _____ _____    ______ ____
ROOT
ATOM      1  N   UNL     1      -1.325  12.969  20.674  0.00  0.00    +0.000 NA
ATOM      2  C   UNL     1      -1.361  12.585  19.235  0.00  0.00    +0.000 C 
ATOM      3  C   UNL     1      -0.069  11.883  18.776  0.00  0.00    +0.000 C 
ATOM      4  C   UNL     1       0.296  10.827  19.749  0.00  0.00    +0.000 A 
ATOM      5  N   UNL     1       1.129   9.797  19.414  0.00  0.00    +0.000 NA
ATOM      6  C   UNL     1       1.241   8.981  20.426  0.00  0.00    +0.000 A 
ATOM      7  N   UNL     1       1.922   7.787  20.455  0.00  0.00    +0.000 N 
ATOM      8  C   UNL     1       2.320   7.219  19.257  0.00  0.00    +0.000 C 
ATOM      9  O   UNL     1       2.011   7.654  18.142  0.00  0.00    +0.000 OA
ATOM     10  S   UNL     1       0.445   9.456  21.871  0.00  0.00    +0.000 S 
ATOM     11  C   UNL     1      -0.204  10.800  21.031  0.00  0.00    +0.000 A 
ATOM     12  C   UNL     1      -1.215  11.772  21.557  0.00  0.00    +0.000 C 
ATOM     13  H   UNL     1       2.023   7.316  21.338  0.00  0.00    +0.000 HD
ENDROOT
BRANCH   1  15
ATOM     14  C   UNL     1      -2.252  15.298  20.901  0.00  0.00    +0.000 C 
ATOM     15  C   UNL     1      -2.504  13.796  20.973  0.00  0.00    +0.000 C 
ENDBRANCH   1  15
BRANCH   8  16
ATOM     16  C   UNL     1       3.247   5.977  19.382  0.00  0.00    +0.000 C 
BRANCH  16  17
ATOM     17  C   UNL     1       2.412   4.797  19.906  0.00  0.00    +0.000 A 
ATOM     18  C   UNL     1       2.627   4.273  21.196  0.00  0.00    +0.000 A 
ATOM     19  C   UNL     1       1.983   3.110  21.620  0.00  0.00    +0.000 A 
ATOM     20  C   UNL     1       1.085   2.468  20.774  0.00  0.00    +0.000 A 
ATOM     21  C   UNL     1       0.808   3.008  19.519  0.00  0.00    +0.000 A 
ATOM     22  C   UNL     1       1.464   4.166  19.087  0.00  0.00    +0.000 A 
ENDBRANCH  16  17
BRANCH  16  23
ATOM     23  C   UNL     1       3.994   5.726  18.060  0.00  0.00    +0.000 A 
ATOM     24  C   UNL     1       4.513   6.808  17.321  0.00  0.00    +0.000 A 
ATOM     25  C   UNL     1       5.139   6.614  16.087  0.00  0.00    +0.000 A 
ATOM     26  C   UNL     1       5.292   5.328  15.583  0.00  0.00    +0.000 A 
ATOM     27  C   UNL     1       4.844   4.238  16.326  0.00  0.00    +0.000 A 
ATOM     28  C   UNL     1       4.212   4.432  17.559  0.00  0.00    +0.000 A 
ENDBRANCH  16  23
ENDBRANCH   8  16
TORSDOF 4
ENDMDL
MODEL 8
REMARK VINA RESULT:      -8.4      0.708      1.451
REMARK  Name = 
REMARK  5 active torsions:
REMARK  status: ('A' for Active; 'I' for Inactive)
REMARK    1  A    between atoms: C_1  and  C_2
REMARK    2  A    between atoms: C_2  and  N_3
REMARK    3  A    between atoms: C_10  and  C_12
REMARK    4  A    between atoms: C_12  and  C_13
REMARK    5  A    between atoms: C_12  and  C_19
REMARK                            x       y       z     vdW  Elec       q    Type
REMARK                         _______ _______ _______ _____ _____    ______ ____
ROOT
ATOM      1  N   UNL     1      -0.767  12.832  21.047  0.00  0.00    +0.000 NA
ATOM      2  C   UNL     1      -0.407  11.899  22.151  0.00  0.00    +0.000 C 
ATOM      3  C   UNL     1      -0.404  10.426  21.704  0.00  0.00    +0.000 C 
ATOM      4  C   UNL     1       0.345  10.292  20.433  0.00  0.00    +0.000 A 
ATOM      5  N   UNL     1       0.854   9.092  20.020  0.00  0.00    +0.000 NA
ATOM      6  C   UNL     1       1.513   9.260  18.906  0.00  0.00    +0.000 A 
ATOM      7  N   UNL     1       2.237   8.311  18.224  0.00  0.00    +0.000 N 
ATOM      8  C   UNL     1       2.552   7.125  18.865  0.00  0.00    +0.000 C 
ATOM      9  O   UNL     1       2.323   6.895  20.056  0.00  0.00    +0.000 OA
ATOM     10  S   UNL     1       1.469  10.837  18.232  0.00  0.00    +0.000 S 
ATOM     11  C   UNL     1       0.601  11.366  19.611  0.00  0.00    +0.000 A 
ATOM     12  C   UNL     1       0.227  12.779  19.937  0.00  0.00    +0.000 C 
ATOM     13  H   UNL     1       2.598   8.549  17.315  0.00  0.00    +0.000 HD
ENDROOT
BRANCH   1  15
ATOM     14  C   UNL     1      -1.061  14.226  23.123  0.00  0.00    +0.000 C 
ATOM     15  C   UNL     1      -0.933  14.184  21.604  0.00  0.00    +0.000 C 
ENDBRANCH   1  15
BRANCH   8  16
ATOM     16  C   UNL     1       3.200   6.033  17.967  0.00  0.00    +0.000 C 
BRANCH  16  17
ATOM     17  C   UNL     1       4.727   6.113  18.129  0.00  0.00    +0.000 A 
ATOM     18  C   UNL     1       5.521   6.796  17.187  0.00  0.00    +0.000 A 
ATOM     19  C   UNL     1       6.914   6.744  17.242  0.00  0.00    +0.000 A 
ATOM     20  C   UNL     1       7.541   6.035  18.262  0.00  0.00    +0.000 A 
ATOM     21  C   UNL     1       6.773   5.408  19.243  0.00  0.00    +0.000 A 
ATOM     22  C   UNL     1       5.376   5.448  19.180  0.00  0.00    +0.000 A 
ENDBRANCH  16  17
BRANCH  16  23
ATOM     23  C   UNL     1       2.574   4.657  18.256  0.00  0.00    +0.000 A 
ATOM     24  C   UNL     1       2.947   3.533  17.492  0.00  0.00    +0.000 A 
ATOM     25  C   UNL     1       2.349   2.286  17.690  0.00  0.00    +0.000 A 
ATOM     26  C   UNL     1       1.389   2.129  18.683  0.00  0.00    +0.000 A 
ATOM     27  C   UNL     1       1.052   3.211  19.493  0.00  0.00    +0.000 A 
ATOM     28  C   UNL     1       1.646   4.461  19.292  0.00  0.00    +0.000 A 
ENDBRANCH  16  23
ENDBRANCH   8  16
TORSDOF 4
ENDMDL
MODEL 9
REMARK VINA RESULT:      -8.4      1.907      3.873
REMARK  Name = 
REMARK  5 active torsions:
REMARK  status: ('A' for Active; 'I' for Inactive)
REMARK    1  A    between atoms: C_1  and  C_2
REMARK    2  A    between atoms: C_2  and  N_3
REMARK    3  A    between atoms: C_10  and  C_12
REMARK    4  A    between atoms: C_12  and  C_13
REMARK    5  A    between atoms: C_12  and  C_19
REMARK                            x       y       z     vdW  Elec       q    Type
REMARK                         _______ _______ _______ _____ _____    ______ ____
ROOT
ATOM      1  N   UNL     1      -1.688  12.366  20.752  0.00  0.00    +0.000 NA
ATOM      2  C   UNL     1      -1.799  11.917  19.336  0.00  0.00    +0.000 C 
ATOM      3  C   UNL     1      -0.482  11.334  18.794  0.00  0.00    +0.000 C 
ATOM      4  C   UNL     1       0.072  10.365  19.768  0.00  0.00    +0.000 A 
ATOM      5  N   UNL     1       0.980   9.412  19.399  0.00  0.00    +0.000 NA
ATOM      6  C   UNL     1       1.260   8.658  20.426  0.00  0.00    +0.000 A 
ATOM      7  N   UNL     1       2.065   7.542  20.438  0.00  0.00    +0.000 N 
ATOM      8  C   UNL     1       2.422   6.966  19.231  0.00  0.00    +0.000 C 
ATOM      9  O   UNL     1       1.979   7.318  18.133  0.00  0.00    +0.000 OA
ATOM     10  S   UNL     1       0.539   9.110  21.916  0.00  0.00    +0.000 S 
ATOM     11  C   UNL     1      -0.317  10.342  21.088  0.00  0.00    +0.000 A 
ATOM     12  C   UNL     1      -1.379  11.227  21.665  0.00  0.00    +0.000 C 
ATOM     13  H   UNL     1       2.287   7.124  21.326  0.00  0.00    +0.000 HD
ENDROOT
BRANCH   1  15
ATOM     14  C   UNL     1      -4.203  12.405  20.648  0.00  0.00    +0.000 C 
ATOM     15  C   UNL     1      -2.920  13.079  21.122  0.00  0.00    +0.000 C 
ENDBRANCH   1  15
BRANCH   8  16
ATOM     16  C   UNL     1       3.484   5.834  19.321  0.00  0.00    +0.000 C 
BRANCH  16  17
ATOM     17  C   UNL     1       2.808   4.578  19.895  0.00  0.00    +0.000 A 
ATOM     18  C   UNL     1       1.434   4.340  19.700  0.00  0.00    +0.000 A 
ATOM     19  C   UNL     1       0.784   3.287  20.343  0.00  0.00    +0.000 A 
ATOM     20  C   UNL     1       1.503   2.430  21.170  0.00  0.00    +0.000 A 
ATOM     21  C   UNL     1       2.878   2.608  21.324  0.00  0.00    +0.000 A 
ATOM     22  C   UNL     1       3.528   3.673  20.690  0.00  0.00    +0.000 A 
ENDBRANCH  16  17
BRANCH  16  23
ATOM     23  C   UNL     1       4.188   5.647  17.964  0.00  0.00    +0.000 A 
ATOM     24  C   UNL     1       4.050   4.437  17.254  0.00  0.00    +0.000 A 
ATOM     25  C   UNL     1       4.727   4.217  16.052  0.00  0.00    +0.000 A 
ATOM     26  C   UNL     1       5.530   5.217  15.517  0.00  0.00    +0.000 A 
ATOM     27  C   UNL     1       5.631   6.444  16.169  0.00  0.00    +0.000 A 
ATOM     28  C   UNL     1       4.956   6.663  17.375  0.00  0.00    +0.000 A 
ENDBRANCH  16  23
ENDBRANCH   8  16
TORSDOF 4
ENDMDL
