MODEL 1
REMARK VINA RESULT:      -9.4      0.000      0.000
REMARK  Name = 
REMARK  7 active torsions:
REMARK  status: ('A' for Active; 'I' for Inactive)
REMARK    1  A    between atoms: C_9  and  N_10
REMARK    2  A    between atoms: N_10  and  C_11
REMARK    3  A    between atoms: N_14  and  C_15
REMARK    4  A    between atoms: C_15  and  C_16
REMARK    5  A    between atoms: C_16  and  C_17
REMARK    6  A    between atoms: C_17  and  C_18
REMARK    7  A    between atoms: C_24  and  N_25
REMARK                            x       y       z     vdW  Elec       q    Type
REMARK                         _______ _______ _______ _____ _____    ______ ____
ROOT
ATOM      1  C   UNL     1       8.178   8.051  17.741  0.00  0.00    +0.000 C 
ENDROOT
BRANCH   1   5
ATOM      2  C   UNL     1       5.030   5.221  16.763  0.00  0.00    +0.000 C 
ATOM      3  C   UNL     1       6.450   5.012  16.223  0.00  0.00    +0.000 C 
ATOM      4  C   UNL     1       7.494   5.851  16.956  0.00  0.00    +0.000 C 
ATOM      5  N   UNL     1       7.193   7.293  16.935  0.00  0.00    +0.000 NA
ATOM      6  C   UNL     1       5.842   7.542  17.483  0.00  0.00    +0.000 C 
ATOM      7  C   UNL     1       4.757   6.732  16.773  0.00  0.00    +0.000 C 
BRANCH   2   8
ATOM      8  N   UNL     1       4.870   4.517  18.053  0.00  0.00    +0.000 NA
ATOM      9  H   UNL     1       5.775   4.143  18.338  0.00  0.00    +0.000 HD
BRANCH   8  18
ATOM     10  C   UNL     1       1.238   2.961  21.373  0.00  0.00    +0.000 A 
ATOM     11  C   UNL     1       2.557   2.516  21.541  0.00  0.00    +0.000 A 
ATOM     12  C   UNL     1       3.492   2.657  20.513  0.00  0.00    +0.000 A 
ATOM     13  C   UNL     1       3.096   3.252  19.323  0.00  0.00    +0.000 A 
ATOM     14  C   UNL     1       1.782   3.715  19.171  0.00  0.00    +0.000 A 
ATOM     15  C   UNL     1       0.845   3.577  20.184  0.00  0.00    +0.000 A 
ATOM     16  C   UNL     1       1.585   4.327  17.821  0.00  0.00    +0.000 C 
ATOM     17  C   UNL     1       2.744   3.684  17.048  0.00  0.00    +0.000 C 
ATOM     18  C   UNL     1       3.896   3.421  18.055  0.00  0.00    +0.000 C 
ENDBRANCH   8  18
ENDBRANCH   2   8
ENDBRANCH   1   5
BRANCH   1  19
ATOM     19  C   UNL     1       7.964   9.575  17.728  0.00  0.00    +0.000 C 
BRANCH  19  20
ATOM     20  C   UNL     1       8.796  10.298  18.785  0.00  0.00    +0.000 C 
BRANCH  20  21
ATOM     21  C   UNL     1       9.757  11.323  18.246  0.00  0.00    +0.000 A 
ATOM     22  C   UNL     1      11.006  11.112  17.686  0.00  0.00    +0.000 A 
ATOM     23  N   UNL     1      11.542  12.322  17.338  0.00  0.00    +0.000 N 
ATOM     24  C   UNL     1      10.642  13.328  17.598  0.00  0.00    +0.000 A 
ATOM     25  C   UNL     1      10.726  14.701  17.354  0.00  0.00    +0.000 A 
ATOM     26  C   UNL     1       9.634  15.499  17.715  0.00  0.00    +0.000 A 
ATOM     27  C   UNL     1       8.500  14.945  18.326  0.00  0.00    +0.000 A 
ATOM     28  C   UNL     1       8.451  13.562  18.581  0.00  0.00    +0.000 A 
ATOM     29  C   UNL     1       9.529  12.737  18.191  0.00  0.00    +0.000 A 
ATOM     30  H   UNL     1      12.455  12.457  16.929  0.00  0.00    +0.000 HD
BRANCH  27  31
ATOM     31  N   UNL     1       7.395  15.763  18.675  0.00  0.00    +0.000 N 
ATOM     32  C   UNL     1       7.260  17.122  18.516  0.00  0.00    +0.000 A 
ATOM     33  N   UNL     1       6.097  17.528  18.971  0.00  0.00    +0.000 NA
ATOM     34  N   UNL     1       5.433  16.429  19.445  0.00  0.00    +0.000 NA
ATOM     35  C   UNL     1       6.212  15.387  19.262  0.00  0.00    +0.000 A 
ENDBRANCH  27  31
ENDBRANCH  20  21
ENDBRANCH  19  20
ENDBRANCH   1  19
TORSDOF 7
ENDMDL
MODEL 2
REMARK VINA RESULT:      -9.2      0.805      1.056
REMARK  Name = 
REMARK  7 active torsions:
REMARK  status: ('A' for Active; 'I' for Inactive)
REMARK    1  A    between atoms: C_9  and  N_10
REMARK    2  A    between atoms: N_10  and  C_11
REMARK    3  A    between atoms: N_14  and  C_15
REMARK    4  A    between atoms: C_15  and  C_16
REMARK    5  A    between atoms: C_16  and  C_17
REMARK    6  A    between atoms: C_17  and  C_18
REMARK    7  A    between atoms: C_24  and  N_25
REMARK                            x       y       z     vdW  Elec       q    Type
REMARK                         _______ _______ _______ _____ _____    ______ ____
ROOT
ATOM      1  C   UNL     1       7.388   8.799  17.836  0.00  0.00    +0.000 C 
ENDROOT
BRANCH   1   5
ATOM      2  C   UNL     1       6.194   4.643  17.403  0.00  0.00    +0.000 C 
ATOM      3  C   UNL     1       7.573   4.994  17.975  0.00  0.00    +0.000 C 
ATOM      4  C   UNL     1       7.681   6.452  18.414  0.00  0.00    +0.000 C 
ATOM      5  N   UNL     1       7.366   7.405  17.334  0.00  0.00    +0.000 NA
ATOM      6  C   UNL     1       6.026   7.122  16.778  0.00  0.00    +0.000 C 
ATOM      7  C   UNL     1       5.871   5.675  16.312  0.00  0.00    +0.000 C 
BRANCH   2   8
ATOM      8  N   UNL     1       5.209   4.515  18.498  0.00  0.00    +0.000 NA
ATOM      9  H   UNL     1       5.708   4.350  19.371  0.00  0.00    +0.000 HD
BRANCH   8  18
ATOM     10  C   UNL     1       1.114   2.973  21.234  0.00  0.00    +0.000 A 
ATOM     11  C   UNL     1       2.384   2.477  21.561  0.00  0.00    +0.000 A 
ATOM     12  C   UNL     1       3.454   2.621  20.675  0.00  0.00    +0.000 A 
ATOM     13  C   UNL     1       3.242   3.270  19.466  0.00  0.00    +0.000 A 
ATOM     14  C   UNL     1       1.975   3.782  19.156  0.00  0.00    +0.000 A 
ATOM     15  C   UNL     1       0.905   3.642  20.027  0.00  0.00    +0.000 A 
ATOM     16  C   UNL     1       1.983   4.447  17.817  0.00  0.00    +0.000 C 
ATOM     17  C   UNL     1       3.216   3.791  17.183  0.00  0.00    +0.000 C 
ATOM     18  C   UNL     1       4.212   3.454  18.326  0.00  0.00    +0.000 C 
ENDBRANCH   8  18
ENDBRANCH   2   8
ENDBRANCH   1   5
BRANCH   1  19
ATOM     19  C   UNL     1       8.679   9.568  17.502  0.00  0.00    +0.000 C 
BRANCH  19  20
ATOM     20  C   UNL     1       9.287  10.258  18.722  0.00  0.00    +0.000 C 
BRANCH  20  21
ATOM     21  C   UNL     1      10.104  11.484  18.417  0.00  0.00    +0.000 A 
ATOM     22  C   UNL     1      11.463  11.563  18.161  0.00  0.00    +0.000 A 
ATOM     23  N   UNL     1      11.793  12.873  17.943  0.00  0.00    +0.000 N 
ATOM     24  C   UNL     1      10.665  13.657  17.986  0.00  0.00    +0.000 A 
ATOM     25  C   UNL     1      10.508  15.028  17.763  0.00  0.00    +0.000 A 
ATOM     26  C   UNL     1       9.219  15.564  17.860  0.00  0.00    +0.000 A 
ATOM     27  C   UNL     1       8.120  14.758  18.194  0.00  0.00    +0.000 A 
ATOM     28  C   UNL     1       8.311  13.385  18.435  0.00  0.00    +0.000 A 
ATOM     29  C   UNL     1       9.598  12.821  18.306  0.00  0.00    +0.000 A 
ATOM     30  H   UNL     1      12.725  13.213  17.755  0.00  0.00    +0.000 HD
BRANCH  27  31
ATOM     31  N   UNL     1       6.817  15.312  18.277  0.00  0.00    +0.000 N 
ATOM     32  C   UNL     1       5.626  14.741  17.897  0.00  0.00    +0.000 A 
ATOM     33  N   UNL     1       4.626  15.565  18.115  0.00  0.00    +0.000 NA
ATOM     34  N   UNL     1       5.148  16.713  18.650  0.00  0.00    +0.000 NA
ATOM     35  C   UNL     1       6.449  16.550  18.743  0.00  0.00    +0.000 A 
ENDBRANCH  27  31
ENDBRANCH  20  21
ENDBRANCH  19  20
ENDBRANCH   1  19
TORSDOF 7
ENDMDL
MODEL 3
REMARK VINA RESULT:      -9.2      0.933      1.178
REMARK  Name = 
REMARK  7 active torsions:
REMARK  status: ('A' for Active; 'I' for Inactive)
REMARK    1  A    between atoms: C_9  and  N_10
REMARK    2  A    between atoms: N_10  and  C_11
REMARK    3  A    between atoms: N_14  and  C_15
REMARK    4  A    between atoms: C_15  and  C_16
REMARK    5  A    between atoms: C_16  and  C_17
REMARK    6  A    between atoms: C_17  and  C_18
REMARK    7  A    between atoms: C_24  and  N_25
REMARK                            x       y       z     vdW  Elec       q    Type
REMARK                         _______ _______ _______ _____ _____    ______ ____
ROOT
ATOM      1  C   UNL     1       7.870   9.051  17.757  0.00  0.00    +0.000 C 
ENDROOT
BRANCH   1   5
ATOM      2  C   UNL     1       6.200   5.048  17.495  0.00  0.00    +0.000 C 
ATOM      3  C   UNL     1       7.665   5.248  17.902  0.00  0.00    +0.000 C 
ATOM      4  C   UNL     1       7.977   6.684  18.316  0.00  0.00    +0.000 C 
ATOM      5  N   UNL     1       7.643   7.670  17.272  0.00  0.00    +0.000 NA
ATOM      6  C   UNL     1       6.225   7.535  16.876  0.00  0.00    +0.000 C 
ATOM      7  C   UNL     1       5.864   6.114  16.441  0.00  0.00    +0.000 C 
BRANCH   2   8
ATOM      8  N   UNL     1       5.340   5.021  18.697  0.00  0.00    +0.000 NA
ATOM      9  H   UNL     1       5.900   5.283  19.508  0.00  0.00    +0.000 HD
BRANCH   8  18
ATOM     10  C   UNL     1       0.593   3.653  20.192  0.00  0.00    +0.000 A 
ATOM     11  C   UNL     1       1.543   4.006  21.161  0.00  0.00    +0.000 A 
ATOM     12  C   UNL     1       2.898   4.082  20.835  0.00  0.00    +0.000 A 
ATOM     13  C   UNL     1       3.291   3.809  19.531  0.00  0.00    +0.000 A 
ATOM     14  C   UNL     1       2.334   3.479  18.563  0.00  0.00    +0.000 A 
ATOM     15  C   UNL     1       0.986   3.397  18.877  0.00  0.00    +0.000 A 
ATOM     16  C   UNL     1       2.979   3.240  17.236  0.00  0.00    +0.000 C 
ATOM     17  C   UNL     1       4.419   2.941  17.672  0.00  0.00    +0.000 C 
ATOM     18  C   UNL     1       4.692   3.735  18.978  0.00  0.00    +0.000 C 
ENDBRANCH   8  18
ENDBRANCH   2   8
ENDBRANCH   1   5
BRANCH   1  19
ATOM     19  C   UNL     1       9.040   9.186  18.748  0.00  0.00    +0.000 C 
BRANCH  19  20
ATOM     20  C   UNL     1       9.203  10.609  19.278  0.00  0.00    +0.000 C 
BRANCH  20  21
ATOM     21  C   UNL     1      10.192  11.459  18.526  0.00  0.00    +0.000 A 
ATOM     22  C   UNL     1      11.375  11.063  17.926  0.00  0.00    +0.000 A 
ATOM     23  N   UNL     1      11.970  12.158  17.361  0.00  0.00    +0.000 N 
ATOM     24  C   UNL     1      11.169  13.264  17.521  0.00  0.00    +0.000 A 
ATOM     25  C   UNL     1      11.333  14.573  17.062  0.00  0.00    +0.000 A 
ATOM     26  C   UNL     1      10.334  15.505  17.366  0.00  0.00    +0.000 A 
ATOM     27  C   UNL     1       9.212  15.145  18.127  0.00  0.00    +0.000 A 
ATOM     28  C   UNL     1       9.083  13.824  18.595  0.00  0.00    +0.000 A 
ATOM     29  C   UNL     1      10.064  12.863  18.268  0.00  0.00    +0.000 A 
ATOM     30  H   UNL     1      12.856  12.154  16.877  0.00  0.00    +0.000 HD
BRANCH  27  31
ATOM     31  N   UNL     1       8.200  16.096  18.417  0.00  0.00    +0.000 N 
ATOM     32  C   UNL     1       8.338  17.448  18.620  0.00  0.00    +0.000 A 
ATOM     33  N   UNL     1       7.174  17.999  18.878  0.00  0.00    +0.000 NA
ATOM     34  N   UNL     1       6.233  17.005  18.850  0.00  0.00    +0.000 NA
ATOM     35  C   UNL     1       6.853  15.880  18.573  0.00  0.00    +0.000 A 
ENDBRANCH  27  31
ENDBRANCH  20  21
ENDBRANCH  19  20
ENDBRANCH   1  19
TORSDOF 7
ENDMDL
MODEL 4
REMARK VINA RESULT:      -9.1      2.839      3.269
REMARK  Name = 
REMARK  7 active torsions:
REMARK  status: ('A' for Active; 'I' for Inactive)
REMARK    1  A    between atoms: C_9  and  N_10
REMARK    2  A    between atoms: N_10  and  C_11
REMARK    3  A    between atoms: N_14  and  C_15
REMARK    4  A    between atoms: C_15  and  C_16
REMARK    5  A    between atoms: C_16  and  C_17
REMARK    6  A    between atoms: C_17  and  C_18
REMARK    7  A    between atoms: C_24  and  N_25
REMARK                            x       y       z     vdW  Elec       q    Type
REMARK                         _______ _______ _______ _____ _____    ______ ____
ROOT
ATOM      1  C   UNL     1       7.784   7.788  17.216  0.00  0.00    +0.000 C 
ENDROOT
BRANCH   1   5
ATOM      2  C   UNL     1       4.957   4.945  18.892  0.00  0.00    +0.000 C 
ATOM      3  C   UNL     1       4.461   6.274  18.310  0.00  0.00    +0.000 C 
ATOM      4  C   UNL     1       5.503   6.965  17.434  0.00  0.00    +0.000 C 
ATOM      5  N   UNL     1       6.776   7.208  18.135  0.00  0.00    +0.000 NA
ATOM      6  C   UNL     1       7.308   5.942  18.682  0.00  0.00    +0.000 C 
ATOM      7  C   UNL     1       6.304   5.215  19.578  0.00  0.00    +0.000 C 
BRANCH   2   8
ATOM      8  N   UNL     1       4.951   3.900  17.846  0.00  0.00    +0.000 NA
ATOM      9  H   UNL     1       4.870   4.349  16.934  0.00  0.00    +0.000 HD
BRANCH   8  18
ATOM     10  C   UNL     1       1.256   2.995  21.332  0.00  0.00    +0.000 A 
ATOM     11  C   UNL     1       2.535   2.457  21.533  0.00  0.00    +0.000 A 
ATOM     12  C   UNL     1       3.461   2.416  20.489  0.00  0.00    +0.000 A 
ATOM     13  C   UNL     1       3.097   2.923  19.249  0.00  0.00    +0.000 A 
ATOM     14  C   UNL     1       1.825   3.479  19.062  0.00  0.00    +0.000 A 
ATOM     15  C   UNL     1       0.896   3.522  20.091  0.00  0.00    +0.000 A 
ATOM     16  C   UNL     1       1.659   3.970  17.660  0.00  0.00    +0.000 C 
ATOM     17  C   UNL     1       2.746   3.157  16.945  0.00  0.00    +0.000 C 
ATOM     18  C   UNL     1       3.888   2.897  17.964  0.00  0.00    +0.000 C 
ENDBRANCH   8  18
ENDBRANCH   2   8
ENDBRANCH   1   5
BRANCH   1  19
ATOM     19  C   UNL     1       8.099   9.270  17.483  0.00  0.00    +0.000 C 
BRANCH  19  20
ATOM     20  C   UNL     1       8.879   9.484  18.779  0.00  0.00    +0.000 C 
BRANCH  20  21
ATOM     21  C   UNL     1       9.618  10.792  18.869  0.00  0.00    +0.000 A 
ATOM     22  C   UNL     1      10.420  11.387  17.910  0.00  0.00    +0.000 A 
ATOM     23  N   UNL     1      10.902  12.566  18.410  0.00  0.00    +0.000 N 
ATOM     24  C   UNL     1      10.381  12.796  19.660  0.00  0.00    +0.000 A 
ATOM     25  C   UNL     1      10.538  13.886  20.519  0.00  0.00    +0.000 A 
ATOM     26  C   UNL     1       9.865  13.857  21.746  0.00  0.00    +0.000 A 
ATOM     27  C   UNL     1       9.076  12.758  22.116  0.00  0.00    +0.000 A 
ATOM     28  C   UNL     1       8.953  11.663  21.241  0.00  0.00    +0.000 A 
ATOM     29  C   UNL     1       9.596  11.692  19.985  0.00  0.00    +0.000 A 
ATOM     30  H   UNL     1      11.531  13.189  17.924  0.00  0.00    +0.000 HD
BRANCH  27  31
ATOM     31  N   UNL     1       8.389  12.747  23.357  0.00  0.00    +0.000 N 
ATOM     32  C   UNL     1       8.251  11.705  24.242  0.00  0.00    +0.000 A 
ATOM     33  N   UNL     1       7.534  12.071  25.280  0.00  0.00    +0.000 NA
ATOM     34  N   UNL     1       7.180  13.380  25.096  0.00  0.00    +0.000 NA
ATOM     35  C   UNL     1       7.696  13.772  23.952  0.00  0.00    +0.000 A 
ENDBRANCH  27  31
ENDBRANCH  20  21
ENDBRANCH  19  20
ENDBRANCH   1  19
TORSDOF 7
ENDMDL
MODEL 5
REMARK VINA RESULT:      -9.0      1.421      1.938
REMARK  Name = 
REMARK  7 active torsions:
REMARK  status: ('A' for Active; 'I' for Inactive)
REMARK    1  A    between atoms: C_9  and  N_10
REMARK    2  A    between atoms: N_10  and  C_11
REMARK    3  A    between atoms: N_14  and  C_15
REMARK    4  A    between atoms: C_15  and  C_16
REMARK    5  A    between atoms: C_16  and  C_17
REMARK    6  A    between atoms: C_17  and  C_18
REMARK    7  A    between atoms: C_24  and  N_25
REMARK                            x       y       z     vdW  Elec       q    Type
REMARK                         _______ _______ _______ _____ _____    ______ ____
ROOT
ATOM      1  C   UNL     1       8.887   8.289  18.796  0.00  0.00    +0.000 C 
ENDROOT
BRANCH   1   5
ATOM      2  C   UNL     1       5.591   5.665  17.734  0.00  0.00    +0.000 C 
ATOM      3  C   UNL     1       6.893   5.080  18.292  0.00  0.00    +0.000 C 
ATOM      4  C   UNL     1       7.777   6.128  18.962  0.00  0.00    +0.000 C 
ATOM      5  N   UNL     1       8.114   7.253  18.071  0.00  0.00    +0.000 NA
ATOM      6  C   UNL     1       6.881   7.870  17.538  0.00  0.00    +0.000 C 
ATOM      7  C   UNL     1       5.965   6.861  16.845  0.00  0.00    +0.000 C 
BRANCH   2   8
ATOM      8  N   UNL     1       4.644   5.938  18.836  0.00  0.00    +0.000 NA
ATOM      9  H   UNL     1       4.824   5.279  19.594  0.00  0.00    +0.000 HD
BRANCH   8  18
ATOM     10  C   UNL     1       1.104   2.189  19.049  0.00  0.00    +0.000 A 
ATOM     11  C   UNL     1       1.941   2.280  17.927  0.00  0.00    +0.000 A 
ATOM     12  C   UNL     1       2.688   3.435  17.688  0.00  0.00    +0.000 A 
ATOM     13  C   UNL     1       2.594   4.492  18.584  0.00  0.00    +0.000 A 
ATOM     14  C   UNL     1       1.773   4.386  19.714  0.00  0.00    +0.000 A 
ATOM     15  C   UNL     1       1.024   3.244  19.959  0.00  0.00    +0.000 A 
ATOM     16  C   UNL     1       1.836   5.631  20.538  0.00  0.00    +0.000 C 
ATOM     17  C   UNL     1       2.341   6.635  19.494  0.00  0.00    +0.000 C 
ATOM     18  C   UNL     1       3.224   5.859  18.480  0.00  0.00    +0.000 C 
ENDBRANCH   8  18
ENDBRANCH   2   8
ENDBRANCH   1   5
BRANCH   1  19
ATOM     19  C   UNL     1       8.659   9.721  18.280  0.00  0.00    +0.000 C 
BRANCH  19  20
ATOM     20  C   UNL     1       9.356  10.776  19.138  0.00  0.00    +0.000 C 
BRANCH  20  21
ATOM     21  C   UNL     1      10.449  11.540  18.442  0.00  0.00    +0.000 A 
ATOM     22  C   UNL     1      11.619  11.045  17.890  0.00  0.00    +0.000 A 
ATOM     23  N   UNL     1      12.333  12.088  17.366  0.00  0.00    +0.000 N 
ATOM     24  C   UNL     1      11.627  13.259  17.504  0.00  0.00    +0.000 A 
ATOM     25  C   UNL     1      11.928  14.553  17.070  0.00  0.00    +0.000 A 
ATOM     26  C   UNL     1      11.003  15.567  17.341  0.00  0.00    +0.000 A 
ATOM     27  C   UNL     1       9.820  15.302  18.047  0.00  0.00    +0.000 A 
ATOM     28  C   UNL     1       9.553  13.994  18.491  0.00  0.00    +0.000 A 
ATOM     29  C   UNL     1      10.458  12.952  18.196  0.00  0.00    +0.000 A 
ATOM     30  H   UNL     1      13.237  12.008  16.922  0.00  0.00    +0.000 HD
BRANCH  27  31
ATOM     31  N   UNL     1       8.884  16.337  18.303  0.00  0.00    +0.000 N 
ATOM     32  C   UNL     1       7.594  16.221  18.760  0.00  0.00    +0.000 A 
ATOM     33  N   UNL     1       7.031  17.403  18.863  0.00  0.00    +0.000 NA
ATOM     34  N   UNL     1       7.953  18.334  18.469  0.00  0.00    +0.000 NA
ATOM     35  C   UNL     1       9.051  17.690  18.141  0.00  0.00    +0.000 A 
ENDBRANCH  27  31
ENDBRANCH  20  21
ENDBRANCH  19  20
ENDBRANCH   1  19
TORSDOF 7
ENDMDL
MODEL 6
REMARK VINA RESULT:      -9.0      2.849      3.198
REMARK  Name = 
REMARK  7 active torsions:
REMARK  status: ('A' for Active; 'I' for Inactive)
REMARK    1  A    between atoms: C_9  and  N_10
REMARK    2  A    between atoms: N_10  and  C_11
REMARK    3  A    between atoms: N_14  and  C_15
REMARK    4  A    between atoms: C_15  and  C_16
REMARK    5  A    between atoms: C_16  and  C_17
REMARK    6  A    between atoms: C_17  and  C_18
REMARK    7  A    between atoms: C_24  and  N_25
REMARK                            x       y       z     vdW  Elec       q    Type
REMARK                         _______ _______ _______ _____ _____    ______ ____
ROOT
ATOM      1  C   UNL     1       7.954   7.456  17.875  0.00  0.00    +0.000 C 
ENDROOT
BRANCH   1   5
ATOM      2  C   UNL     1       4.637   4.896  16.724  0.00  0.00    +0.000 C 
ATOM      3  C   UNL     1       5.832   5.082  15.781  0.00  0.00    +0.000 C 
ATOM      4  C   UNL     1       7.052   5.679  16.476  0.00  0.00    +0.000 C 
ATOM      5  N   UNL     1       6.768   6.968  17.132  0.00  0.00    +0.000 NA
ATOM      6  C   UNL     1       5.643   6.824  18.080  0.00  0.00    +0.000 C 
ATOM      7  C   UNL     1       4.390   6.239  17.427  0.00  0.00    +0.000 C 
BRANCH   2   8
ATOM      8  N   UNL     1       4.863   3.728  17.602  0.00  0.00    +0.000 NA
ATOM      9  H   UNL     1       5.606   3.155  17.203  0.00  0.00    +0.000 HD
BRANCH   8  18
ATOM     10  C   UNL     1       1.370   3.369  21.384  0.00  0.00    +0.000 A 
ATOM     11  C   UNL     1       2.580   2.670  21.499  0.00  0.00    +0.000 A 
ATOM     12  C   UNL     1       3.408   2.492  20.389  0.00  0.00    +0.000 A 
ATOM     13  C   UNL     1       3.015   3.024  19.168  0.00  0.00    +0.000 A 
ATOM     14  C   UNL     1       1.815   3.740  19.065  0.00  0.00    +0.000 A 
ATOM     15  C   UNL     1       0.985   3.920  20.162  0.00  0.00    +0.000 A 
ATOM     16  C   UNL     1       1.603   4.228  17.669  0.00  0.00    +0.000 C 
ATOM     17  C   UNL     1       2.515   3.268  16.893  0.00  0.00    +0.000 C 
ATOM     18  C   UNL     1       3.691   2.875  17.827  0.00  0.00    +0.000 C 
ENDBRANCH   8  18
ENDBRANCH   2   8
ENDBRANCH   1   5
BRANCH   1  19
ATOM     19  C   UNL     1       8.080   8.990  17.921  0.00  0.00    +0.000 C 
BRANCH  19  20
ATOM     20  C   UNL     1       9.084   9.468  18.969  0.00  0.00    +0.000 C 
BRANCH  20  21
ATOM     21  C   UNL     1       9.363  10.947  18.954  0.00  0.00    +0.000 A 
ATOM     22  C   UNL     1       9.834  11.716  17.903  0.00  0.00    +0.000 A 
ATOM     23  N   UNL     1       9.952  13.012  18.327  0.00  0.00    +0.000 N 
ATOM     24  C   UNL     1       9.506  13.127  19.622  0.00  0.00    +0.000 A 
ATOM     25  C   UNL     1       9.382  14.254  20.438  0.00  0.00    +0.000 A 
ATOM     26  C   UNL     1       8.876  14.075  21.730  0.00  0.00    +0.000 A 
ATOM     27  C   UNL     1       8.526  12.802  22.204  0.00  0.00    +0.000 A 
ATOM     28  C   UNL     1       8.681  11.681  21.367  0.00  0.00    +0.000 A 
ATOM     29  C   UNL     1       9.157  11.849  20.049  0.00  0.00    +0.000 A 
ATOM     30  H   UNL     1      10.295  13.778  17.765  0.00  0.00    +0.000 HD
BRANCH  27  31
ATOM     31  N   UNL     1       8.001  12.637  23.511  0.00  0.00    +0.000 N 
ATOM     32  C   UNL     1       6.700  12.780  23.929  0.00  0.00    +0.000 A 
ATOM     33  N   UNL     1       6.600  12.558  25.220  0.00  0.00    +0.000 NA
ATOM     34  N   UNL     1       7.853  12.258  25.684  0.00  0.00    +0.000 NA
ATOM     35  C   UNL     1       8.676  12.306  24.660  0.00  0.00    +0.000 A 
ENDBRANCH  27  31
ENDBRANCH  20  21
ENDBRANCH  19  20
ENDBRANCH   1  19
TORSDOF 7
ENDMDL
MODEL 7
REMARK VINA RESULT:      -9.0      1.865      2.397
REMARK  Name = 
REMARK  7 active torsions:
REMARK  status: ('A' for Active; 'I' for Inactive)
REMARK    1  A    between atoms: C_9  and  N_10
REMARK    2  A    between atoms: N_10  and  C_11
REMARK    3  A    between atoms: N_14  and  C_15
REMARK    4  A    between atoms: C_15  and  C_16
REMARK    5  A    between atoms: C_16  and  C_17
REMARK    6  A    between atoms: C_17  and  C_18
REMARK    7  A    between atoms: C_24  and  N_25
REMARK                            x       y       z     vdW  Elec       q    Type
REMARK                         _______ _______ _______ _____ _____    ______ ____
ROOT
ATOM      1  C   UNL     1       8.157   8.190  18.317  0.00  0.00    +0.000 C 
ENDROOT
BRANCH   1   5
ATOM      2  C   UNL     1       5.697   4.833  17.069  0.00  0.00    +0.000 C 
ATOM      3  C   UNL     1       7.195   4.638  17.325  0.00  0.00    +0.000 C 
ATOM      4  C   UNL     1       7.819   5.788  18.111  0.00  0.00    +0.000 C 
ATOM      5  N   UNL     1       7.622   7.099  17.468  0.00  0.00    +0.000 NA
ATOM      6  C   UNL     1       6.183   7.343  17.236  0.00  0.00    +0.000 C 
ATOM      7  C   UNL     1       5.513   6.223  16.440  0.00  0.00    +0.000 C 
BRANCH   2   8
ATOM      8  N   UNL     1       4.932   4.566  18.305  0.00  0.00    +0.000 NA
ATOM      9  H   UNL     1       5.588   4.411  19.070  0.00  0.00    +0.000 HD
BRANCH   8  18
ATOM     10  C   UNL     1       1.098   2.886  21.324  0.00  0.00    +0.000 A 
ATOM     11  C   UNL     1       2.417   2.508  21.615  0.00  0.00    +0.000 A 
ATOM     12  C   UNL     1       3.431   2.679  20.671  0.00  0.00    +0.000 A 
ATOM     13  C   UNL     1       3.114   3.236  19.439  0.00  0.00    +0.000 A 
ATOM     14  C   UNL     1       1.799   3.631  19.164  0.00  0.00    +0.000 A 
ATOM     15  C   UNL     1       0.783   3.463  20.093  0.00  0.00    +0.000 A 
ATOM     16  C   UNL     1       1.693   4.212  17.791  0.00  0.00    +0.000 C 
ATOM     17  C   UNL     1       2.945   3.615  17.135  0.00  0.00    +0.000 C 
ATOM     18  C   UNL     1       4.014   3.424  18.244  0.00  0.00    +0.000 C 
ENDBRANCH   8  18
ENDBRANCH   2   8
ENDBRANCH   1   5
BRANCH   1  19
ATOM     19  C   UNL     1       8.111   9.580  17.657  0.00  0.00    +0.000 C 
BRANCH  19  20
ATOM     20  C   UNL     1       9.356  10.415  17.954  0.00  0.00    +0.000 C 
BRANCH  20  21
ATOM     21  C   UNL     1       9.395  11.032  19.326  0.00  0.00    +0.000 A 
ATOM     22  C   UNL     1       9.291  10.395  20.552  0.00  0.00    +0.000 A 
ATOM     23  N   UNL     1       9.368  11.336  21.543  0.00  0.00    +0.000 N 
ATOM     24  C   UNL     1       9.586  12.579  20.998  0.00  0.00    +0.000 A 
ATOM     25  C   UNL     1       9.789  13.814  21.617  0.00  0.00    +0.000 A 
ATOM     26  C   UNL     1      10.004  14.929  20.800  0.00  0.00    +0.000 A 
ATOM     27  C   UNL     1       9.993  14.819  19.402  0.00  0.00    +0.000 A 
ATOM     28  C   UNL     1       9.764  13.565  18.804  0.00  0.00    +0.000 A 
ATOM     29  C   UNL     1       9.580  12.424  19.614  0.00  0.00    +0.000 A 
ATOM     30  H   UNL     1       9.298  11.144  22.532  0.00  0.00    +0.000 HD
BRANCH  27  31
ATOM     31  N   UNL     1      10.226  15.955  18.585  0.00  0.00    +0.000 N 
ATOM     32  C   UNL     1      10.043  17.280  18.901  0.00  0.00    +0.000 A 
ATOM     33  N   UNL     1      10.355  18.047  17.881  0.00  0.00    +0.000 NA
ATOM     34  N   UNL     1      10.755  17.229  16.858  0.00  0.00    +0.000 NA
ATOM     35  C   UNL     1      10.677  15.990  17.289  0.00  0.00    +0.000 A 
ENDBRANCH  27  31
ENDBRANCH  20  21
ENDBRANCH  19  20
ENDBRANCH   1  19
TORSDOF 7
ENDMDL
MODEL 8
REMARK VINA RESULT:      -8.9      2.847      3.198
REMARK  Name = 
REMARK  7 active torsions:
REMARK  status: ('A' for Active; 'I' for Inactive)
REMARK    1  A    between atoms: C_9  and  N_10
REMARK    2  A    between atoms: N_10  and  C_11
REMARK    3  A    between atoms: N_14  and  C_15
REMARK    4  A    between atoms: C_15  and  C_16
REMARK    5  A    between atoms: C_16  and  C_17
REMARK    6  A    between atoms: C_17  and  C_18
REMARK    7  A    between atoms: C_24  and  N_25
REMARK                            x       y       z     vdW  Elec       q    Type
REMARK                         _______ _______ _______ _____ _____    ______ ____
ROOT
ATOM      1  C   UNL     1       8.348   7.908  18.666  0.00  0.00    +0.000 C 
ENDROOT
BRANCH   1   5
ATOM      2  C   UNL     1       5.513   5.097  16.950  0.00  0.00    +0.000 C 
ATOM      3  C   UNL     1       6.919   4.630  17.347  0.00  0.00    +0.000 C 
ATOM      4  C   UNL     1       7.635   5.614  18.268  0.00  0.00    +0.000 C 
ATOM      5  N   UNL     1       7.736   6.969  17.696  0.00  0.00    +0.000 NA
ATOM      6  C   UNL     1       6.394   7.473  17.333  0.00  0.00    +0.000 C 
ATOM      7  C   UNL     1       5.639   6.526  16.399  0.00  0.00    +0.000 C 
BRANCH   2   8
ATOM      8  N   UNL     1       4.579   4.910  18.081  0.00  0.00    +0.000 NA
ATOM      9  H   UNL     1       5.100   4.988  18.954  0.00  0.00    +0.000 HD
BRANCH   8  18
ATOM     10  C   UNL     1       1.219   2.734  21.337  0.00  0.00    +0.000 A 
ATOM     11  C   UNL     1       2.593   2.573  21.561  0.00  0.00    +0.000 A 
ATOM     12  C   UNL     1       3.517   2.874  20.559  0.00  0.00    +0.000 A 
ATOM     13  C   UNL     1       3.053   3.344  19.337  0.00  0.00    +0.000 A 
ATOM     14  C   UNL     1       1.680   3.524  19.129  0.00  0.00    +0.000 A 
ATOM     15  C   UNL     1       0.753   3.224  20.116  0.00  0.00    +0.000 A 
ATOM     16  C   UNL     1       1.413   4.047  17.754  0.00  0.00    +0.000 C 
ATOM     17  C   UNL     1       2.706   3.633  17.039  0.00  0.00    +0.000 C 
ATOM     18  C   UNL     1       3.849   3.638  18.090  0.00  0.00    +0.000 C 
ENDBRANCH   8  18
ENDBRANCH   2   8
ENDBRANCH   1   5
BRANCH   1  19
ATOM     19  C   UNL     1       8.457   9.357  18.157  0.00  0.00    +0.000 C 
BRANCH  19  20
ATOM     20  C   UNL     1       9.441  10.195  18.970  0.00  0.00    +0.000 C 
BRANCH  20  21
ATOM     21  C   UNL     1       9.266  11.685  18.839  0.00  0.00    +0.000 A 
ATOM     22  C   UNL     1       9.237  12.443  17.681  0.00  0.00    +0.000 A 
ATOM     23  N   UNL     1       9.068  13.757  18.021  0.00  0.00    +0.000 N 
ATOM     24  C   UNL     1       8.918  13.877  19.382  0.00  0.00    +0.000 A 
ATOM     25  C   UNL     1       8.664  15.004  20.167  0.00  0.00    +0.000 A 
ATOM     26  C   UNL     1       8.544  14.825  21.550  0.00  0.00    +0.000 A 
ATOM     27  C   UNL     1       8.698  13.560  22.135  0.00  0.00    +0.000 A 
ATOM     28  C   UNL     1       8.976  12.445  21.322  0.00  0.00    +0.000 A 
ATOM     29  C   UNL     1       9.065  12.602  19.922  0.00  0.00    +0.000 A 
ATOM     30  H   UNL     1       9.033  14.526  17.367  0.00  0.00    +0.000 HD
BRANCH  27  31
ATOM     31  N   UNL     1       8.560  13.391  23.537  0.00  0.00    +0.000 N 
ATOM     32  C   UNL     1       8.404  12.220  24.240  0.00  0.00    +0.000 A 
ATOM     33  N   UNL     1       8.297  12.463  25.526  0.00  0.00    +0.000 NA
ATOM     34  N   UNL     1       8.382  13.819  25.698  0.00  0.00    +0.000 NA
ATOM     35  C   UNL     1       8.541  14.359  24.511  0.00  0.00    +0.000 A 
ENDBRANCH  27  31
ENDBRANCH  20  21
ENDBRANCH  19  20
ENDBRANCH   1  19
TORSDOF 7
ENDMDL
MODEL 9
REMARK VINA RESULT:      -8.8      1.239      1.522
REMARK  Name = 
REMARK  7 active torsions:
REMARK  status: ('A' for Active; 'I' for Inactive)
REMARK    1  A    between atoms: C_9  and  N_10
REMARK    2  A    between atoms: N_10  and  C_11
REMARK    3  A    between atoms: N_14  and  C_15
REMARK    4  A    between atoms: C_15  and  C_16
REMARK    5  A    between atoms: C_16  and  C_17
REMARK    6  A    between atoms: C_17  and  C_18
REMARK    7  A    between atoms: C_24  and  N_25
REMARK                            x       y       z     vdW  Elec       q    Type
REMARK                         _______ _______ _______ _____ _____    ______ ____
ROOT
ATOM      1  C   UNL     1       8.383   8.514  18.794  0.00  0.00    +0.000 C 
ENDROOT
BRANCH   1   5
ATOM      2  C   UNL     1       5.954   5.241  17.288  0.00  0.00    +0.000 C 
ATOM      3  C   UNL     1       7.383   4.979  17.779  0.00  0.00    +0.000 C 
ATOM      4  C   UNL     1       7.945   6.125  18.615  0.00  0.00    +0.000 C 
ATOM      5  N   UNL     1       7.922   7.419  17.908  0.00  0.00    +0.000 NA
ATOM      6  C   UNL     1       6.551   7.727  17.449  0.00  0.00    +0.000 C 
ATOM      7  C   UNL     1       5.947   6.612  16.596  0.00  0.00    +0.000 C 
BRANCH   2   8
ATOM      8  N   UNL     1       4.996   5.063  18.401  0.00  0.00    +0.000 NA
ATOM      9  H   UNL     1       5.089   4.115  18.766  0.00  0.00    +0.000 HD
BRANCH   8  18
ATOM     10  C   UNL     1       0.578   2.715  19.666  0.00  0.00    +0.000 A 
ATOM     11  C   UNL     1       1.326   2.233  18.582  0.00  0.00    +0.000 A 
ATOM     12  C   UNL     1       2.345   3.004  18.022  0.00  0.00    +0.000 A 
ATOM     13  C   UNL     1       2.612   4.256  18.559  0.00  0.00    +0.000 A 
ATOM     14  C   UNL     1       1.876   4.723  19.655  0.00  0.00    +0.000 A 
ATOM     15  C   UNL     1       0.859   3.966  20.218  0.00  0.00    +0.000 A 
ATOM     16  C   UNL     1       2.341   6.081  20.071  0.00  0.00    +0.000 C 
ATOM     17  C   UNL     1       3.030   6.550  18.782  0.00  0.00    +0.000 C 
ATOM     18  C   UNL     1       3.588   5.294  18.061  0.00  0.00    +0.000 C 
ENDBRANCH   8  18
ENDBRANCH   2   8
ENDBRANCH   1   5
BRANCH   1  19
ATOM     19  C   UNL     1       8.642   9.845  18.067  0.00  0.00    +0.000 C 
BRANCH  19  20
ATOM     20  C   UNL     1       9.327  10.881  18.957  0.00  0.00    +0.000 C 
BRANCH  20  21
ATOM     21  C   UNL     1      10.145  11.909  18.223  0.00  0.00    +0.000 A 
ATOM     22  C   UNL     1      11.245  11.701  17.408  0.00  0.00    +0.000 A 
ATOM     23  N   UNL     1      11.688  12.913  16.951  0.00  0.00    +0.000 N 
ATOM     24  C   UNL     1      10.861  13.916  17.397  0.00  0.00    +0.000 A 
ATOM     25  C   UNL     1      10.884  15.288  17.138  0.00  0.00    +0.000 A 
ATOM     26  C   UNL     1       9.892  16.083  17.724  0.00  0.00    +0.000 A 
ATOM     27  C   UNL     1       8.917  15.526  18.565  0.00  0.00    +0.000 A 
ATOM     28  C   UNL     1       8.931  14.143  18.826  0.00  0.00    +0.000 A 
ATOM     29  C   UNL     1       9.903  13.322  18.215  0.00  0.00    +0.000 A 
ATOM     30  H   UNL     1      12.491  13.050  16.355  0.00  0.00    +0.000 HD
BRANCH  27  31
ATOM     31  N   UNL     1       7.910  16.340  19.142  0.00  0.00    +0.000 N 
ATOM     32  C   UNL     1       6.983  17.127  18.501  0.00  0.00    +0.000 A 
ATOM     33  N   UNL     1       6.220  17.747  19.372  0.00  0.00    +0.000 NA
ATOM     34  N   UNL     1       6.635  17.375  20.622  0.00  0.00    +0.000 NA
ATOM     35  C   UNL     1       7.638  16.538  20.473  0.00  0.00    +0.000 A 
ENDBRANCH  27  31
ENDBRANCH  20  21
ENDBRANCH  19  20
ENDBRANCH   1  19
TORSDOF 7
ENDMDL
