MODEL 1
REMARK VINA RESULT:      -9.3      0.000      0.000
REMARK  Name = 
REMARK  6 active torsions:
REMARK  status: ('A' for Active; 'I' for Inactive)
REMARK    1  A    between atoms: C_2  and  C_3
REMARK    2  A    between atoms: C_3  and  C_4
REMARK    3  A    between atoms: N_9  and  C_10
REMARK    4  A    between atoms: C_14  and  C_15
REMARK    5  A    between atoms: C_18  and  C_19
REMARK    6  A    between atoms: C_23  and  C_24
REMARK                            x       y       z     vdW  Elec       q    Type
REMARK                         _______ _______ _______ _____ _____    ______ ____
ROOT
ATOM      1  C   UNL     1       1.060  10.118  18.867  0.00  0.00    +0.000 A 
ATOM      2  C   UNL     1       1.704   9.576  17.768  0.00  0.00    +0.000 A 
ATOM      3  C   UNL     1       2.249   8.293  18.038  0.00  0.00    +0.000 A 
ATOM      4  C   UNL     1       2.019   7.885  19.336  0.00  0.00    +0.000 A 
ATOM      5  S   UNL     1       1.058   9.004  20.181  0.00  0.00    +0.000 S 
ENDROOT
BRANCH   4   6
ATOM      6  C   UNL     1       2.500   6.663  19.898  0.00  0.00    +0.000 A 
ATOM      7  N   UNL     1       3.310   5.861  19.239  0.00  0.00    +0.000 NA
ATOM      8  C   UNL     1       3.211   4.667  19.876  0.00  0.00    +0.000 A 
ATOM      9  C   UNL     1       3.640   3.409  19.444  0.00  0.00    +0.000 A 
ATOM     10  C   UNL     1       2.513   2.583  19.495  0.00  0.00    +0.000 A 
ATOM     11  C   UNL     1       1.815   2.502  20.717  0.00  0.00    +0.000 A 
ATOM     12  C   UNL     1       1.827   3.607  21.587  0.00  0.00    +0.000 A 
ATOM     13  C   UNL     1       2.359   4.746  20.978  0.00  0.00    +0.000 A 
ATOM     14  N   UNL     1       2.099   6.093  21.088  0.00  0.00    +0.000 N 
ATOM     15  H   UNL     1       1.452   6.518  21.736  0.00  0.00    +0.000 HD
BRANCH  10  16
ATOM     16  C   UNL     1       1.729   2.404  18.201  0.00  0.00    +0.000 C 
ATOM     17  F   UNL     1       1.382   3.579  17.602  0.00  0.00    +0.000 F 
ATOM     18  F   UNL     1       2.409   1.692  17.263  0.00  0.00    +0.000 F 
ATOM     19  F   UNL     1       0.552   1.739  18.396  0.00  0.00    +0.000 F 
ENDBRANCH  10  16
ENDBRANCH   4   6
BRANCH   1  24
ATOM     20  C   UNL     1      -1.508  12.863  19.303  0.00  0.00    +0.000 A 
ATOM     21  C   UNL     1      -0.705  14.001  19.186  0.00  0.00    +0.000 A 
ATOM     22  C   UNL     1       0.670  13.878  19.006  0.00  0.00    +0.000 A 
ATOM     23  C   UNL     1       1.262  12.620  18.925  0.00  0.00    +0.000 A 
ATOM     24  C   UNL     1       0.482  11.462  19.013  0.00  0.00    +0.000 A 
ATOM     25  C   UNL     1      -0.903  11.603  19.222  0.00  0.00    +0.000 A 
BRANCH  20  28
ATOM     26  O   UNL     1      -3.014  12.516  21.831  0.00  0.00    +0.000 OA
ATOM     27  C   UNL     1      -3.552  12.681  20.728  0.00  0.00    +0.000 C 
ATOM     28  N   UNL     1      -2.899  12.914  19.529  0.00  0.00    +0.000 N 
ATOM     29  H   UNL     1      -3.479  13.152  18.733  0.00  0.00    +0.000 HD
BRANCH  27  30
ATOM     30  C   UNL     1      -5.062  12.631  20.603  0.00  0.00    +0.000 C 
BRANCH  30  31
ATOM     31  C   UNL     1      -5.458  12.321  19.206  0.00  0.00    +0.000 A 
ATOM     32  C   UNL     1      -5.453  11.107  18.552  0.00  0.00    +0.000 A 
ATOM     33  N   UNL     1      -5.914  11.370  17.295  0.00  0.00    +0.000 N 
ATOM     34  C   UNL     1      -6.183  12.706  17.227  0.00  0.00    +0.000 A 
ATOM     35  N   UNL     1      -5.916  13.311  18.363  0.00  0.00    +0.000 NA
ATOM     36  H   UNL     1      -6.036  10.701  16.546  0.00  0.00    +0.000 HD
ENDBRANCH  30  31
ENDBRANCH  27  30
ENDBRANCH  20  28
ENDBRANCH   1  24
TORSDOF 6
ENDMDL
MODEL 2
REMARK VINA RESULT:      -9.2      2.834      3.525
REMARK  Name = 
REMARK  6 active torsions:
REMARK  status: ('A' for Active; 'I' for Inactive)
REMARK    1  A    between atoms: C_2  and  C_3
REMARK    2  A    between atoms: C_3  and  C_4
REMARK    3  A    between atoms: N_9  and  C_10
REMARK    4  A    between atoms: C_14  and  C_15
REMARK    5  A    between atoms: C_18  and  C_19
REMARK    6  A    between atoms: C_23  and  C_24
REMARK                            x       y       z     vdW  Elec       q    Type
REMARK                         _______ _______ _______ _____ _____    ______ ____
ROOT
ATOM      1  C   UNL     1       1.033   9.534  19.533  0.00  0.00    +0.000 A 
ATOM      2  C   UNL     1       0.880   8.851  20.727  0.00  0.00    +0.000 A 
ATOM      3  C   UNL     1       1.530   7.589  20.715  0.00  0.00    +0.000 A 
ATOM      4  C   UNL     1       2.157   7.330  19.514  0.00  0.00    +0.000 A 
ATOM      5  S   UNL     1       2.046   8.654  18.454  0.00  0.00    +0.000 S 
ENDROOT
BRANCH   4   6
ATOM      6  C   UNL     1       2.840   6.114  19.204  0.00  0.00    +0.000 A 
ATOM      7  N   UNL     1       4.091   5.905  19.556  0.00  0.00    +0.000 NA
ATOM      8  C   UNL     1       4.511   4.889  18.762  0.00  0.00    +0.000 A 
ATOM      9  C   UNL     1       5.816   4.448  18.524  0.00  0.00    +0.000 A 
ATOM     10  C   UNL     1       5.986   4.490  17.137  0.00  0.00    +0.000 A 
ATOM     11  C   UNL     1       5.052   3.798  16.341  0.00  0.00    +0.000 A 
ATOM     12  C   UNL     1       3.735   3.642  16.810  0.00  0.00    +0.000 A 
ATOM     13  C   UNL     1       3.484   4.430  17.937  0.00  0.00    +0.000 A 
ATOM     14  N   UNL     1       2.372   5.091  18.407  0.00  0.00    +0.000 N 
ATOM     15  H   UNL     1       1.451   5.062  17.997  0.00  0.00    +0.000 HD
BRANCH  10  16
ATOM     16  C   UNL     1       6.646   5.737  16.560  0.00  0.00    +0.000 C 
ATOM     17  F   UNL     1       7.551   6.317  17.399  0.00  0.00    +0.000 F 
ATOM     18  F   UNL     1       7.311   5.496  15.399  0.00  0.00    +0.000 F 
ATOM     19  F   UNL     1       5.739   6.719  16.276  0.00  0.00    +0.000 F 
ENDBRANCH  10  16
ENDBRANCH   4   6
BRANCH   1  24
ATOM     20  C   UNL     1      -1.599  12.025  18.441  0.00  0.00    +0.000 A 
ATOM     21  C   UNL     1      -0.818  13.164  18.232  0.00  0.00    +0.000 A 
ATOM     22  C   UNL     1       0.551  13.136  18.482  0.00  0.00    +0.000 A 
ATOM     23  C   UNL     1       1.164  11.968  18.929  0.00  0.00    +0.000 A 
ATOM     24  C   UNL     1       0.413  10.804  19.124  0.00  0.00    +0.000 A 
ATOM     25  C   UNL     1      -0.975  10.857  18.893  0.00  0.00    +0.000 A 
BRANCH  20  28
ATOM     26  O   UNL     1      -3.175  10.680  16.323  0.00  0.00    +0.000 OA
ATOM     27  C   UNL     1      -3.675  11.397  17.200  0.00  0.00    +0.000 C 
ATOM     28  N   UNL     1      -2.996  11.995  18.249  0.00  0.00    +0.000 N 
ATOM     29  H   UNL     1      -3.560  12.452  18.956  0.00  0.00    +0.000 HD
BRANCH  27  30
ATOM     30  C   UNL     1      -5.161  11.697  17.183  0.00  0.00    +0.000 C 
BRANCH  30  31
ATOM     31  C   UNL     1      -5.751  11.480  18.528  0.00  0.00    +0.000 A 
ATOM     32  C   UNL     1      -6.512  10.423  18.982  0.00  0.00    +0.000 A 
ATOM     33  N   UNL     1      -6.792  10.709  20.286  0.00  0.00    +0.000 N 
ATOM     34  C   UNL     1      -6.201  11.905  20.579  0.00  0.00    +0.000 A 
ATOM     35  N   UNL     1      -5.567  12.399  19.539  0.00  0.00    +0.000 NA
ATOM     36  H   UNL     1      -7.336  10.144  20.923  0.00  0.00    +0.000 HD
ENDBRANCH  30  31
ENDBRANCH  27  30
ENDBRANCH  20  28
ENDBRANCH   1  24
TORSDOF 6
ENDMDL
MODEL 3
REMARK VINA RESULT:      -9.1      1.688      2.662
REMARK  Name = 
REMARK  6 active torsions:
REMARK  status: ('A' for Active; 'I' for Inactive)
REMARK    1  A    between atoms: C_2  and  C_3
REMARK    2  A    between atoms: C_3  and  C_4
REMARK    3  A    between atoms: N_9  and  C_10
REMARK    4  A    between atoms: C_14  and  C_15
REMARK    5  A    between atoms: C_18  and  C_19
REMARK    6  A    between atoms: C_23  and  C_24
REMARK                            x       y       z     vdW  Elec       q    Type
REMARK                         _______ _______ _______ _____ _____    ______ ____
ROOT
ATOM      1  C   UNL     1       0.942  10.473  19.017  0.00  0.00    +0.000 A 
ATOM      2  C   UNL     1       1.604   9.958  17.916  0.00  0.00    +0.000 A 
ATOM      3  C   UNL     1       2.118   8.656  18.155  0.00  0.00    +0.000 A 
ATOM      4  C   UNL     1       1.847   8.207  19.431  0.00  0.00    +0.000 A 
ATOM      5  S   UNL     1       0.885   9.315  20.291  0.00  0.00    +0.000 S 
ENDROOT
BRANCH   4   6
ATOM      6  C   UNL     1       2.291   6.957  19.961  0.00  0.00    +0.000 A 
ATOM      7  N   UNL     1       3.352   6.336  19.492  0.00  0.00    +0.000 NA
ATOM      8  C   UNL     1       3.221   5.054  19.918  0.00  0.00    +0.000 A 
ATOM      9  C   UNL     1       3.913   3.917  19.490  0.00  0.00    +0.000 A 
ATOM     10  C   UNL     1       2.932   3.003  19.092  0.00  0.00    +0.000 A 
ATOM     11  C   UNL     1       1.923   2.678  20.020  0.00  0.00    +0.000 A 
ATOM     12  C   UNL     1       1.541   3.634  20.979  0.00  0.00    +0.000 A 
ATOM     13  C   UNL     1       2.081   4.893  20.705  0.00  0.00    +0.000 A 
ATOM     14  N   UNL     1       1.634   6.181  20.893  0.00  0.00    +0.000 N 
ATOM     15  H   UNL     1       0.778   6.447  21.356  0.00  0.00    +0.000 HD
BRANCH  10  16
ATOM     16  C   UNL     1       2.591   2.960  17.607  0.00  0.00    +0.000 C 
ATOM     17  F   UNL     1       2.208   1.726  17.167  0.00  0.00    +0.000 F 
ATOM     18  F   UNL     1       1.583   3.808  17.270  0.00  0.00    +0.000 F 
ATOM     19  F   UNL     1       3.653   3.308  16.821  0.00  0.00    +0.000 F 
ENDBRANCH  10  16
ENDBRANCH   4   6
BRANCH   1  24
ATOM     20  C   UNL     1      -1.457  13.238  19.977  0.00  0.00    +0.000 A 
ATOM     21  C   UNL     1      -0.792  14.357  19.469  0.00  0.00    +0.000 A 
ATOM     22  C   UNL     1       0.449  14.220  18.853  0.00  0.00    +0.000 A 
ATOM     23  C   UNL     1       1.037  12.965  18.720  0.00  0.00    +0.000 A 
ATOM     24  C   UNL     1       0.384  11.822  19.195  0.00  0.00    +0.000 A 
ATOM     25  C   UNL     1      -0.857  11.981  19.841  0.00  0.00    +0.000 A 
BRANCH  20  28
ATOM     26  O   UNL     1      -4.076  12.077  19.221  0.00  0.00    +0.000 OA
ATOM     27  C   UNL     1      -3.905  12.795  20.214  0.00  0.00    +0.000 C 
ATOM     28  N   UNL     1      -2.694  13.309  20.650  0.00  0.00    +0.000 N 
ATOM     29  H   UNL     1      -2.695  13.779  21.548  0.00  0.00    +0.000 HD
BRANCH  27  30
ATOM     30  C   UNL     1      -5.086  13.196  21.077  0.00  0.00    +0.000 C 
BRANCH  30  31
ATOM     31  C   UNL     1      -4.680  13.293  22.502  0.00  0.00    +0.000 A 
ATOM     32  C   UNL     1      -4.721  14.385  23.343  0.00  0.00    +0.000 A 
ATOM     33  N   UNL     1      -4.244  13.940  24.542  0.00  0.00    +0.000 N 
ATOM     34  C   UNL     1      -3.937  12.618  24.395  0.00  0.00    +0.000 A 
ATOM     35  N   UNL     1      -4.185  12.197  23.175  0.00  0.00    +0.000 NA
ATOM     36  H   UNL     1      -4.135  14.484  25.386  0.00  0.00    +0.000 HD
ENDBRANCH  30  31
ENDBRANCH  27  30
ENDBRANCH  20  28
ENDBRANCH   1  24
TORSDOF 6
ENDMDL
MODEL 4
REMARK VINA RESULT:      -8.9      5.104     10.466
REMARK  Name = 
REMARK  6 active torsions:
REMARK  status: ('A' for Active; 'I' for Inactive)
REMARK    1  A    between atoms: C_2  and  C_3
REMARK    2  A    between atoms: C_3  and  C_4
REMARK    3  A    between atoms: N_9  and  C_10
REMARK    4  A    between atoms: C_14  and  C_15
REMARK    5  A    between atoms: C_18  and  C_19
REMARK    6  A    between atoms: C_23  and  C_24
REMARK                            x       y       z     vdW  Elec       q    Type
REMARK                         _______ _______ _______ _____ _____    ______ ____
ROOT
ATOM      1  C   UNL     1       0.320   9.473  21.106  0.00  0.00    +0.000 A 
ATOM      2  C   UNL     1       0.290   9.115  22.443  0.00  0.00    +0.000 A 
ATOM      3  C   UNL     1      -0.515   9.991  23.219  0.00  0.00    +0.000 A 
ATOM      4  C   UNL     1      -1.073  11.003  22.465  0.00  0.00    +0.000 A 
ATOM      5  S   UNL     1      -0.709  10.823  20.814  0.00  0.00    +0.000 S 
ENDROOT
BRANCH   4   6
ATOM      6  C   UNL     1      -1.880  12.056  22.993  0.00  0.00    +0.000 A 
ATOM      7  N   UNL     1      -2.993  11.819  23.656  0.00  0.00    +0.000 NA
ATOM      8  C   UNL     1      -3.672  12.994  23.627  0.00  0.00    +0.000 A 
ATOM      9  C   UNL     1      -5.013  13.235  23.938  0.00  0.00    +0.000 A 
ATOM     10  C   UNL     1      -5.560  13.853  22.809  0.00  0.00    +0.000 A 
ATOM     11  C   UNL     1      -4.924  15.012  22.323  0.00  0.00    +0.000 A 
ATOM     12  C   UNL     1      -3.539  15.165  22.515  0.00  0.00    +0.000 A 
ATOM     13  C   UNL     1      -2.942  13.987  22.974  0.00  0.00    +0.000 A 
ATOM     14  N   UNL     1      -1.709  13.407  22.779  0.00  0.00    +0.000 N 
ATOM     15  H   UNL     1      -0.942  13.811  22.264  0.00  0.00    +0.000 HD
BRANCH  10  16
ATOM     16  C   UNL     1      -6.287  12.954  21.815  0.00  0.00    +0.000 C 
ATOM     17  F   UNL     1      -7.104  12.034  22.402  0.00  0.00    +0.000 F 
ATOM     18  F   UNL     1      -7.067  13.648  20.945  0.00  0.00    +0.000 F 
ATOM     19  F   UNL     1      -5.422  12.228  21.046  0.00  0.00    +0.000 F 
ENDBRANCH  10  16
ENDBRANCH   4   6
BRANCH   1  24
ATOM     20  C   UNL     1       2.638   7.113  19.268  0.00  0.00    +0.000 A 
ATOM     21  C   UNL     1       2.779   7.776  18.046  0.00  0.00    +0.000 A 
ATOM     22  C   UNL     1       2.094   8.963  17.804  0.00  0.00    +0.000 A 
ATOM     23  C   UNL     1       1.271   9.515  18.782  0.00  0.00    +0.000 A 
ATOM     24  C   UNL     1       1.128   8.889  20.025  0.00  0.00    +0.000 A 
ATOM     25  C   UNL     1       1.806   7.674  20.244  0.00  0.00    +0.000 A 
BRANCH  20  28
ATOM     26  O   UNL     1       5.226   6.047  18.296  0.00  0.00    +0.000 OA
ATOM     27  C   UNL     1       4.455   5.414  19.028  0.00  0.00    +0.000 C 
ATOM     28  N   UNL     1       3.268   5.886  19.564  0.00  0.00    +0.000 N 
ATOM     29  H   UNL     1       2.807   5.293  20.244  0.00  0.00    +0.000 HD
BRANCH  27  30
ATOM     30  C   UNL     1       4.771   3.982  19.410  0.00  0.00    +0.000 C 
BRANCH  30  31
ATOM     31  C   UNL     1       3.641   3.086  19.055  0.00  0.00    +0.000 A 
ATOM     32  C   UNL     1       3.481   2.293  17.938  0.00  0.00    +0.000 A 
ATOM     33  N   UNL     1       2.278   1.670  18.104  0.00  0.00    +0.000 N 
ATOM     34  C   UNL     1       1.757   2.094  19.293  0.00  0.00    +0.000 A 
ATOM     35  N   UNL     1       2.554   2.952  19.891  0.00  0.00    +0.000 NA
ATOM     36  H   UNL     1       1.846   1.016  17.467  0.00  0.00    +0.000 HD
ENDBRANCH  30  31
ENDBRANCH  27  30
ENDBRANCH  20  28
ENDBRANCH   1  24
TORSDOF 6
ENDMDL
MODEL 5
REMARK VINA RESULT:      -8.9      1.336      1.509
REMARK  Name = 
REMARK  6 active torsions:
REMARK  status: ('A' for Active; 'I' for Inactive)
REMARK    1  A    between atoms: C_2  and  C_3
REMARK    2  A    between atoms: C_3  and  C_4
REMARK    3  A    between atoms: N_9  and  C_10
REMARK    4  A    between atoms: C_14  and  C_15
REMARK    5  A    between atoms: C_18  and  C_19
REMARK    6  A    between atoms: C_23  and  C_24
REMARK                            x       y       z     vdW  Elec       q    Type
REMARK                         _______ _______ _______ _____ _____    ______ ____
ROOT
ATOM      1  C   UNL     1       1.029  10.310  18.962  0.00  0.00    +0.000 A 
ATOM      2  C   UNL     1       1.801   9.842  17.912  0.00  0.00    +0.000 A 
ATOM      3  C   UNL     1       2.337   8.553  18.168  0.00  0.00    +0.000 A 
ATOM      4  C   UNL     1       1.973   8.066  19.407  0.00  0.00    +0.000 A 
ATOM      5  S   UNL     1       0.903   9.121  20.202  0.00  0.00    +0.000 S 
ENDROOT
BRANCH   4   6
ATOM      6  C   UNL     1       2.412   6.819  19.948  0.00  0.00    +0.000 A 
ATOM      7  N   UNL     1       3.467   6.185  19.479  0.00  0.00    +0.000 NA
ATOM      8  C   UNL     1       3.330   4.909  19.919  0.00  0.00    +0.000 A 
ATOM      9  C   UNL     1       4.012   3.763  19.500  0.00  0.00    +0.000 A 
ATOM     10  C   UNL     1       3.024   2.851  19.118  0.00  0.00    +0.000 A 
ATOM     11  C   UNL     1       2.018   2.543  20.055  0.00  0.00    +0.000 A 
ATOM     12  C   UNL     1       1.648   3.511  21.006  0.00  0.00    +0.000 A 
ATOM     13  C   UNL     1       2.194   4.764  20.715  0.00  0.00    +0.000 A 
ATOM     14  N   UNL     1       1.756   6.057  20.891  0.00  0.00    +0.000 N 
ATOM     15  H   UNL     1       0.905   6.333  21.357  0.00  0.00    +0.000 HD
BRANCH  10  16
ATOM     16  C   UNL     1       2.673   2.794  17.635  0.00  0.00    +0.000 C 
ATOM     17  F   UNL     1       1.635   3.608  17.285  0.00  0.00    +0.000 F 
ATOM     18  F   UNL     1       3.711   3.144  16.831  0.00  0.00    +0.000 F 
ATOM     19  F   UNL     1       2.296   1.542  17.240  0.00  0.00    +0.000 F 
ENDBRANCH  10  16
ENDBRANCH   4   6
BRANCH   1  24
ATOM     20  C   UNL     1      -1.601  12.971  19.531  0.00  0.00    +0.000 A 
ATOM     21  C   UNL     1      -0.854  14.133  19.322  0.00  0.00    +0.000 A 
ATOM     22  C   UNL     1       0.506  14.055  19.036  0.00  0.00    +0.000 A 
ATOM     23  C   UNL     1       1.138  12.819  18.939  0.00  0.00    +0.000 A 
ATOM     24  C   UNL     1       0.413  11.636  19.119  0.00  0.00    +0.000 A 
ATOM     25  C   UNL     1      -0.957  11.732  19.435  0.00  0.00    +0.000 A 
BRANCH  20  28
ATOM     26  O   UNL     1      -3.855  11.542  18.245  0.00  0.00    +0.000 OA
ATOM     27  C   UNL     1      -3.992  12.334  19.186  0.00  0.00    +0.000 C 
ATOM     28  N   UNL     1      -2.971  12.977  19.866  0.00  0.00    +0.000 N 
ATOM     29  H   UNL     1      -3.233  13.500  20.693  0.00  0.00    +0.000 HD
BRANCH  27  30
ATOM     30  C   UNL     1      -5.379  12.684  19.690  0.00  0.00    +0.000 C 
BRANCH  30  31
ATOM     31  C   UNL     1      -6.251  11.483  19.690  0.00  0.00    +0.000 A 
ATOM     32  C   UNL     1      -6.626  10.683  18.631  0.00  0.00    +0.000 A 
ATOM     33  N   UNL     1      -7.424   9.716  19.170  0.00  0.00    +0.000 N 
ATOM     34  C   UNL     1      -7.505   9.952  20.512  0.00  0.00    +0.000 A 
ATOM     35  N   UNL     1      -6.811  11.013  20.858  0.00  0.00    +0.000 NA
ATOM     36  H   UNL     1      -7.875   8.961  18.672  0.00  0.00    +0.000 HD
ENDBRANCH  30  31
ENDBRANCH  27  30
ENDBRANCH  20  28
ENDBRANCH   1  24
TORSDOF 6
ENDMDL
MODEL 6
REMARK VINA RESULT:      -8.8      1.845      2.378
REMARK  Name = 
REMARK  6 active torsions:
REMARK  status: ('A' for Active; 'I' for Inactive)
REMARK    1  A    between atoms: C_2  and  C_3
REMARK    2  A    between atoms: C_3  and  C_4
REMARK    3  A    between atoms: N_9  and  C_10
REMARK    4  A    between atoms: C_14  and  C_15
REMARK    5  A    between atoms: C_18  and  C_19
REMARK    6  A    between atoms: C_23  and  C_24
REMARK                            x       y       z     vdW  Elec       q    Type
REMARK                         _______ _______ _______ _____ _____    ______ ____
ROOT
ATOM      1  C   UNL     1       0.958   9.760  19.630  0.00  0.00    +0.000 A 
ATOM      2  C   UNL     1       1.015   8.972  20.766  0.00  0.00    +0.000 A 
ATOM      3  C   UNL     1       1.704   7.751  20.543  0.00  0.00    +0.000 A 
ATOM      4  C   UNL     1       2.151   7.627  19.243  0.00  0.00    +0.000 A 
ATOM      5  S   UNL     1       1.828   9.028  18.336  0.00  0.00    +0.000 S 
ENDROOT
BRANCH   4   6
ATOM      6  C   UNL     1       2.825   6.479  18.725  0.00  0.00    +0.000 A 
ATOM      7  N   UNL     1       2.272   5.685  17.833  0.00  0.00    +0.000 NA
ATOM      8  C   UNL     1       2.988   4.535  17.898  0.00  0.00    +0.000 A 
ATOM      9  C   UNL     1       2.673   3.279  17.372  0.00  0.00    +0.000 A 
ATOM     10  C   UNL     1       2.725   2.390  18.450  0.00  0.00    +0.000 A 
ATOM     11  C   UNL     1       3.910   2.351  19.211  0.00  0.00    +0.000 A 
ATOM     12  C   UNL     1       4.696   3.513  19.314  0.00  0.00    +0.000 A 
ATOM     13  C   UNL     1       4.034   4.638  18.815  0.00  0.00    +0.000 A 
ATOM     14  N   UNL     1       4.031   5.971  19.159  0.00  0.00    +0.000 N 
ATOM     15  H   UNL     1       4.610   6.399  19.866  0.00  0.00    +0.000 HD
BRANCH  10  16
ATOM     16  C   UNL     1       1.407   2.072  19.147  0.00  0.00    +0.000 C 
ATOM     17  F   UNL     1       1.195   0.738  19.338  0.00  0.00    +0.000 F 
ATOM     18  F   UNL     1       1.303   2.648  20.373  0.00  0.00    +0.000 F 
ATOM     19  F   UNL     1       0.326   2.509  18.434  0.00  0.00    +0.000 F 
ENDBRANCH  10  16
ENDBRANCH   4   6
BRANCH   1  24
ATOM     20  C   UNL     1      -1.856  12.175  18.874  0.00  0.00    +0.000 A 
ATOM     21  C   UNL     1      -1.183  13.398  18.939  0.00  0.00    +0.000 A 
ATOM     22  C   UNL     1       0.169  13.442  19.266  0.00  0.00    +0.000 A 
ATOM     23  C   UNL     1       0.874  12.268  19.517  0.00  0.00    +0.000 A 
ATOM     24  C   UNL     1       0.234  11.026  19.435  0.00  0.00    +0.000 A 
ATOM     25  C   UNL     1      -1.140  11.000  19.131  0.00  0.00    +0.000 A 
BRANCH  20  28
ATOM     26  O   UNL     1      -3.201  10.826  16.604  0.00  0.00    +0.000 OA
ATOM     27  C   UNL     1      -3.802  11.466  17.476  0.00  0.00    +0.000 C 
ATOM     28  N   UNL     1      -3.233  12.060  18.591  0.00  0.00    +0.000 N 
ATOM     29  H   UNL     1      -3.871  12.445  19.278  0.00  0.00    +0.000 HD
BRANCH  27  30
ATOM     30  C   UNL     1      -5.302  11.666  17.375  0.00  0.00    +0.000 C 
BRANCH  30  31
ATOM     31  C   UNL     1      -5.956  11.359  18.672  0.00  0.00    +0.000 A 
ATOM     32  C   UNL     1      -6.650  10.228  19.048  0.00  0.00    +0.000 A 
ATOM     33  N   UNL     1      -7.037  10.450  20.338  0.00  0.00    +0.000 N 
ATOM     34  C   UNL     1      -6.572  11.682  20.699  0.00  0.00    +0.000 A 
ATOM     35  N   UNL     1      -5.918  12.259  19.716  0.00  0.00    +0.000 NA
ATOM     36  H   UNL     1      -7.570   9.822  20.923  0.00  0.00    +0.000 HD
ENDBRANCH  30  31
ENDBRANCH  27  30
ENDBRANCH  20  28
ENDBRANCH   1  24
TORSDOF 6
ENDMDL
MODEL 7
REMARK VINA RESULT:      -8.8      1.690      2.453
REMARK  Name = 
REMARK  6 active torsions:
REMARK  status: ('A' for Active; 'I' for Inactive)
REMARK    1  A    between atoms: C_2  and  C_3
REMARK    2  A    between atoms: C_3  and  C_4
REMARK    3  A    between atoms: N_9  and  C_10
REMARK    4  A    between atoms: C_14  and  C_15
REMARK    5  A    between atoms: C_18  and  C_19
REMARK    6  A    between atoms: C_23  and  C_24
REMARK                            x       y       z     vdW  Elec       q    Type
REMARK                         _______ _______ _______ _____ _____    ______ ____
ROOT
ATOM      1  C   UNL     1       0.775  10.165  19.142  0.00  0.00    +0.000 A 
ATOM      2  C   UNL     1       1.456   9.733  18.017  0.00  0.00    +0.000 A 
ATOM      3  C   UNL     1       2.076   8.470  18.212  0.00  0.00    +0.000 A 
ATOM      4  C   UNL     1       1.865   7.969  19.479  0.00  0.00    +0.000 A 
ATOM      5  S   UNL     1       0.835   8.973  20.385  0.00  0.00    +0.000 S 
ENDROOT
BRANCH   4   6
ATOM      6  C   UNL     1       2.417   6.745  19.968  0.00  0.00    +0.000 A 
ATOM      7  N   UNL     1       3.221   6.000  19.240  0.00  0.00    +0.000 NA
ATOM      8  C   UNL     1       3.197   4.780  19.832  0.00  0.00    +0.000 A 
ATOM      9  C   UNL     1       3.649   3.556  19.330  0.00  0.00    +0.000 A 
ATOM     10  C   UNL     1       2.556   2.687  19.404  0.00  0.00    +0.000 A 
ATOM     11  C   UNL     1       1.924   2.533  20.653  0.00  0.00    +0.000 A 
ATOM     12  C   UNL     1       1.940   3.604  21.565  0.00  0.00    +0.000 A 
ATOM     13  C   UNL     1       2.400   4.785  20.976  0.00  0.00    +0.000 A 
ATOM     14  N   UNL     1       2.097   6.116  21.153  0.00  0.00    +0.000 N 
ATOM     15  H   UNL     1       1.469   6.492  21.847  0.00  0.00    +0.000 HD
BRANCH  10  16
ATOM     16  C   UNL     1       1.715   2.528  18.142  0.00  0.00    +0.000 C 
ATOM     17  F   UNL     1       1.399   3.711  17.540  0.00  0.00    +0.000 F 
ATOM     18  F   UNL     1       2.325   1.774  17.190  0.00  0.00    +0.000 F 
ATOM     19  F   UNL     1       0.517   1.921  18.392  0.00  0.00    +0.000 F 
ENDBRANCH  10  16
ENDBRANCH   4   6
BRANCH   1  24
ATOM     20  C   UNL     1      -1.789  12.709  20.271  0.00  0.00    +0.000 A 
ATOM     21  C   UNL     1      -1.254  13.883  19.734  0.00  0.00    +0.000 A 
ATOM     22  C   UNL     1      -0.046  13.856  19.044  0.00  0.00    +0.000 A 
ATOM     23  C   UNL     1       0.638  12.657  18.863  0.00  0.00    +0.000 A 
ATOM     24  C   UNL     1       0.116  11.461  19.367  0.00  0.00    +0.000 A 
ATOM     25  C   UNL     1      -1.093  11.509  20.087  0.00  0.00    +0.000 A 
BRANCH  20  28
ATOM     26  O   UNL     1      -4.590  12.516  19.324  0.00  0.00    +0.000 OA
ATOM     27  C   UNL     1      -4.275  12.641  20.514  0.00  0.00    +0.000 C 
ATOM     28  N   UNL     1      -2.985  12.670  21.018  0.00  0.00    +0.000 N 
ATOM     29  H   UNL     1      -2.889  12.655  22.026  0.00  0.00    +0.000 HD
BRANCH  27  30
ATOM     30  C   UNL     1      -5.349  12.789  21.574  0.00  0.00    +0.000 C 
BRANCH  30  31
ATOM     31  C   UNL     1      -5.012  13.895  22.506  0.00  0.00    +0.000 A 
ATOM     32  C   UNL     1      -5.261  13.996  23.858  0.00  0.00    +0.000 A 
ATOM     33  N   UNL     1      -4.744  15.202  24.234  0.00  0.00    +0.000 N 
ATOM     34  C   UNL     1      -4.205  15.782  23.122  0.00  0.00    +0.000 A 
ATOM     35  N   UNL     1      -4.353  15.020  22.061  0.00  0.00    +0.000 NA
ATOM     36  H   UNL     1      -4.755  15.598  25.164  0.00  0.00    +0.000 HD
ENDBRANCH  30  31
ENDBRANCH  27  30
ENDBRANCH  20  28
ENDBRANCH   1  24
TORSDOF 6
ENDMDL
MODEL 8
REMARK VINA RESULT:      -8.7      1.966      2.431
REMARK  Name = 
REMARK  6 active torsions:
REMARK  status: ('A' for Active; 'I' for Inactive)
REMARK    1  A    between atoms: C_2  and  C_3
REMARK    2  A    between atoms: C_3  and  C_4
REMARK    3  A    between atoms: N_9  and  C_10
REMARK    4  A    between atoms: C_14  and  C_15
REMARK    5  A    between atoms: C_18  and  C_19
REMARK    6  A    between atoms: C_23  and  C_24
REMARK                            x       y       z     vdW  Elec       q    Type
REMARK                         _______ _______ _______ _____ _____    ______ ____
ROOT
ATOM      1  C   UNL     1       0.668   9.776  20.267  0.00  0.00    +0.000 A 
ATOM      2  C   UNL     1       0.821   8.925  21.348  0.00  0.00    +0.000 A 
ATOM      3  C   UNL     1       1.574   7.766  21.022  0.00  0.00    +0.000 A 
ATOM      4  C   UNL     1       1.972   7.750  19.701  0.00  0.00    +0.000 A 
ATOM      5  S   UNL     1       1.526   9.180  18.897  0.00  0.00    +0.000 S 
ENDROOT
BRANCH   4   6
ATOM      6  C   UNL     1       2.693   6.682  19.086  0.00  0.00    +0.000 A 
ATOM      7  N   UNL     1       2.172   5.946  18.127  0.00  0.00    +0.000 NA
ATOM      8  C   UNL     1       2.936   4.825  18.094  0.00  0.00    +0.000 A 
ATOM      9  C   UNL     1       2.674   3.608  17.459  0.00  0.00    +0.000 A 
ATOM     10  C   UNL     1       2.765   2.632  18.456  0.00  0.00    +0.000 A 
ATOM     11  C   UNL     1       3.953   2.577  19.213  0.00  0.00    +0.000 A 
ATOM     12  C   UNL     1       4.689   3.757  19.418  0.00  0.00    +0.000 A 
ATOM     13  C   UNL     1       3.979   4.893  19.017  0.00  0.00    +0.000 A 
ATOM     14  N   UNL     1       3.921   6.189  19.477  0.00  0.00    +0.000 N 
ATOM     15  H   UNL     1       4.483   6.578  20.219  0.00  0.00    +0.000 HD
BRANCH  10  16
ATOM     16  C   UNL     1       1.463   2.199  19.120  0.00  0.00    +0.000 C 
ATOM     17  F   UNL     1       0.352   2.467  18.376  0.00  0.00    +0.000 F 
ATOM     18  F   UNL     1       1.422   0.867  19.388  0.00  0.00    +0.000 F 
ATOM     19  F   UNL     1       1.256   2.829  20.314  0.00  0.00    +0.000 F 
ENDBRANCH  10  16
ENDBRANCH   4   6
BRANCH   1  24
ATOM     20  C   UNL     1      -2.131  12.138  19.314  0.00  0.00    +0.000 A 
ATOM     21  C   UNL     1      -1.676  13.332  19.878  0.00  0.00    +0.000 A 
ATOM     22  C   UNL     1      -0.486  13.363  20.599  0.00  0.00    +0.000 A 
ATOM     23  C   UNL     1       0.276  12.208  20.754  0.00  0.00    +0.000 A 
ATOM     24  C   UNL     1      -0.140  11.002  20.180  0.00  0.00    +0.000 A 
ATOM     25  C   UNL     1      -1.361  10.981  19.478  0.00  0.00    +0.000 A 
BRANCH  20  28
ATOM     26  O   UNL     1      -2.634  11.078  16.593  0.00  0.00    +0.000 OA
ATOM     27  C   UNL     1      -3.512  11.576  17.309  0.00  0.00    +0.000 C 
ATOM     28  N   UNL     1      -3.347  12.025  18.609  0.00  0.00    +0.000 N 
ATOM     29  H   UNL     1      -4.187  12.295  19.108  0.00  0.00    +0.000 HD
BRANCH  27  30
ATOM     30  C   UNL     1      -4.922  11.747  16.776  0.00  0.00    +0.000 C 
BRANCH  30  31
ATOM     31  C   UNL     1      -5.918  11.454  17.838  0.00  0.00    +0.000 A 
ATOM     32  C   UNL     1      -7.015  12.194  18.226  0.00  0.00    +0.000 A 
ATOM     33  N   UNL     1      -7.597  11.480  19.233  0.00  0.00    +0.000 N 
ATOM     34  C   UNL     1      -6.853  10.351  19.419  0.00  0.00    +0.000 A 
ATOM     35  N   UNL     1      -5.830  10.305  18.594  0.00  0.00    +0.000 NA
ATOM     36  H   UNL     1      -8.426  11.736  19.751  0.00  0.00    +0.000 HD
ENDBRANCH  30  31
ENDBRANCH  27  30
ENDBRANCH  20  28
ENDBRANCH   1  24
TORSDOF 6
ENDMDL
MODEL 9
REMARK VINA RESULT:      -8.7      2.876      3.624
REMARK  Name = 
REMARK  6 active torsions:
REMARK  status: ('A' for Active; 'I' for Inactive)
REMARK    1  A    between atoms: C_2  and  C_3
REMARK    2  A    between atoms: C_3  and  C_4
REMARK    3  A    between atoms: N_9  and  C_10
REMARK    4  A    between atoms: C_14  and  C_15
REMARK    5  A    between atoms: C_18  and  C_19
REMARK    6  A    between atoms: C_23  and  C_24
REMARK                            x       y       z     vdW  Elec       q    Type
REMARK                         _______ _______ _______ _____ _____    ______ ____
ROOT
ATOM      1  C   UNL     1       0.957   9.346  19.609  0.00  0.00    +0.000 A 
ATOM      2  C   UNL     1       0.975   8.715  20.841  0.00  0.00    +0.000 A 
ATOM      3  C   UNL     1       1.699   7.494  20.813  0.00  0.00    +0.000 A 
ATOM      4  C   UNL     1       2.211   7.212  19.563  0.00  0.00    +0.000 A 
ATOM      5  S   UNL     1       1.904   8.473  18.464  0.00  0.00    +0.000 S 
ENDROOT
BRANCH   4   6
ATOM      6  C   UNL     1       2.933   6.025  19.232  0.00  0.00    +0.000 A 
ATOM      7  N   UNL     1       4.195   5.859  19.566  0.00  0.00    +0.000 NA
ATOM      8  C   UNL     1       4.641   4.864  18.758  0.00  0.00    +0.000 A 
ATOM      9  C   UNL     1       5.958   4.473  18.499  0.00  0.00    +0.000 A 
ATOM     10  C   UNL     1       6.107   4.533  17.110  0.00  0.00    +0.000 A 
ATOM     11  C   UNL     1       5.188   3.814  16.320  0.00  0.00    +0.000 A 
ATOM     12  C   UNL     1       3.884   3.606  16.805  0.00  0.00    +0.000 A 
ATOM     13  C   UNL     1       3.620   4.376  17.942  0.00  0.00    +0.000 A 
ATOM     14  N   UNL     1       2.492   4.992  18.433  0.00  0.00    +0.000 N 
ATOM     15  H   UNL     1       1.567   4.933  18.035  0.00  0.00    +0.000 HD
BRANCH  10  16
ATOM     16  C   UNL     1       6.713   5.808  16.535  0.00  0.00    +0.000 C 
ATOM     17  F   UNL     1       5.807   6.809  16.345  0.00  0.00    +0.000 F 
ATOM     18  F   UNL     1       7.691   6.331  17.321  0.00  0.00    +0.000 F 
ATOM     19  F   UNL     1       7.284   5.603  15.311  0.00  0.00    +0.000 F 
ENDBRANCH  10  16
ENDBRANCH   4   6
BRANCH   1  24
ATOM     20  C   UNL     1      -1.915  11.598  18.609  0.00  0.00    +0.000 A 
ATOM     21  C   UNL     1      -1.240  12.795  18.355  0.00  0.00    +0.000 A 
ATOM     22  C   UNL     1       0.136  12.882  18.545  0.00  0.00    +0.000 A 
ATOM     23  C   UNL     1       0.861  11.774  18.976  0.00  0.00    +0.000 A 
ATOM     24  C   UNL     1       0.218  10.555  19.215  0.00  0.00    +0.000 A 
ATOM     25  C   UNL     1      -1.179  10.491  19.045  0.00  0.00    +0.000 A 
BRANCH  20  28
ATOM     26  O   UNL     1      -3.540  11.168  16.168  0.00  0.00    +0.000 OA
ATOM     27  C   UNL     1      -4.024  11.313  17.299  0.00  0.00    +0.000 C 
ATOM     28  N   UNL     1      -3.312  11.451  18.479  0.00  0.00    +0.000 N 
ATOM     29  H   UNL     1      -3.848  11.438  19.339  0.00  0.00    +0.000 HD
BRANCH  27  30
ATOM     30  C   UNL     1      -5.528  11.361  17.482  0.00  0.00    +0.000 C 
BRANCH  30  31
ATOM     31  C   UNL     1      -5.971  12.743  17.795  0.00  0.00    +0.000 A 
ATOM     32  C   UNL     1      -6.497  13.698  16.951  0.00  0.00    +0.000 A 
ATOM     33  N   UNL     1      -6.741  14.785  17.739  0.00  0.00    +0.000 N 
ATOM     34  C   UNL     1      -6.365  14.463  19.011  0.00  0.00    +0.000 A 
ATOM     35  N   UNL     1      -5.893  13.238  19.079  0.00  0.00    +0.000 NA
ATOM     36  H   UNL     1      -7.128  15.670  17.440  0.00  0.00    +0.000 HD
ENDBRANCH  30  31
ENDBRANCH  27  30
ENDBRANCH  20  28
ENDBRANCH   1  24
TORSDOF 6
ENDMDL
