MODEL 1
REMARK VINA RESULT:      -7.6      0.000      0.000
REMARK  Name = 
REMARK  1 active torsions:
REMARK  status: ('A' for Active; 'I' for Inactive)
REMARK    1  A    between atoms: N_1  and  C_2
REMARK                            x       y       z     vdW  Elec       q    Type
REMARK                         _______ _______ _______ _____ _____    ______ ____
ROOT
ATOM      1  C   UNL     1       2.578   6.533  19.581  0.00  0.00    +0.000 A 
ATOM      2  C   UNL     1       3.321   6.979  18.510  0.00  0.00    +0.000 A 
ATOM      3  C   UNL     1       3.945   6.100  17.647  0.00  0.00    +0.000 A 
ATOM      4  C   UNL     1       4.711   6.663  16.617  0.00  0.00    +0.000 A 
ATOM      5  C   UNL     1       5.369   5.873  15.697  0.00  0.00    +0.000 A 
ATOM      6  C   UNL     1       5.246   4.514  15.823  0.00  0.00    +0.000 A 
ATOM      7  C   UNL     1       4.482   3.976  16.855  0.00  0.00    +0.000 A 
ATOM      8  N   UNL     1       3.817   4.725  17.786  0.00  0.00    +0.000 N 
ATOM      9  C   UNL     1       3.032   4.203  18.830  0.00  0.00    +0.000 A 
ATOM     10  C   UNL     1       2.772   2.820  19.113  0.00  0.00    +0.000 A 
ATOM     11 CL   UNL     1       3.355   1.432  18.250  0.00  0.00    +0.000 Cl
ATOM     12  C   UNL     1       1.959   2.413  20.189  0.00  0.00    +0.000 A 
ATOM     13  C   UNL     1       1.363   3.336  21.019  0.00  0.00    +0.000 A 
ATOM     14  C   UNL     1       1.577   4.682  20.781  0.00  0.00    +0.000 A 
ATOM     15  C   UNL     1       2.396   5.150  19.727  0.00  0.00    +0.000 A 
ENDROOT
BRANCH   1  16
ATOM     16  N   UNL     1       1.867   7.497  20.309  0.00  0.00    +0.000 N 
ATOM     17  H   UNL     1       1.557   7.224  21.239  0.00  0.00    +0.000 HD
ATOM     18  H   UNL     1       1.128   8.001  19.830  0.00  0.00    +0.000 HD
ENDBRANCH   1  16
TORSDOF 1
ENDMDL
MODEL 2
REMARK VINA RESULT:      -7.3      1.876      3.297
REMARK  Name = 
REMARK  1 active torsions:
REMARK  status: ('A' for Active; 'I' for Inactive)
REMARK    1  A    between atoms: N_1  and  C_2
REMARK                            x       y       z     vdW  Elec       q    Type
REMARK                         _______ _______ _______ _____ _____    ______ ____
ROOT
ATOM      1  C   UNL     1       3.631   2.289  18.173  0.00  0.00    +0.000 A 
ATOM      2  C   UNL     1       4.416   2.839  17.184  0.00  0.00    +0.000 A 
ATOM      3  C   UNL     1       4.488   4.205  16.995  0.00  0.00    +0.000 A 
ATOM      4  C   UNL     1       5.283   4.654  15.931  0.00  0.00    +0.000 A 
ATOM      5  C   UNL     1       5.427   5.999  15.659  0.00  0.00    +0.000 A 
ATOM      6  C   UNL     1       4.766   6.885  16.471  0.00  0.00    +0.000 A 
ATOM      7  C   UNL     1       3.980   6.417  17.519  0.00  0.00    +0.000 A 
ATOM      8  N   UNL     1       3.811   5.093  17.819  0.00  0.00    +0.000 N 
ATOM      9  C   UNL     1       3.030   4.600  18.880  0.00  0.00    +0.000 A 
ATOM     10  C   UNL     1       2.284   5.365  19.838  0.00  0.00    +0.000 A 
ATOM     11 CL   UNL     1       2.145   7.091  19.941  0.00  0.00    +0.000 Cl
ATOM     12  C   UNL     1       1.539   4.757  20.868  0.00  0.00    +0.000 A 
ATOM     13  C   UNL     1       1.504   3.388  21.008  0.00  0.00    +0.000 A 
ATOM     14  C   UNL     1       2.215   2.608  20.112  0.00  0.00    +0.000 A 
ATOM     15  C   UNL     1       2.966   3.160  19.049  0.00  0.00    +0.000 A 
ENDROOT
BRANCH   1  16
ATOM     16  N   UNL     1       3.740   0.906  18.379  0.00  0.00    +0.000 N 
ATOM     17  H   UNL     1       2.876   0.409  18.585  0.00  0.00    +0.000 HD
ATOM     18  H   UNL     1       4.485   0.575  18.984  0.00  0.00    +0.000 HD
ENDBRANCH   1  16
TORSDOF 1
ENDMDL
MODEL 3
REMARK VINA RESULT:      -6.5      2.059      5.257
REMARK  Name = 
REMARK  1 active torsions:
REMARK  status: ('A' for Active; 'I' for Inactive)
REMARK    1  A    between atoms: N_1  and  C_2
REMARK                            x       y       z     vdW  Elec       q    Type
REMARK                         _______ _______ _______ _____ _____    ______ ____
ROOT
ATOM      1  C   UNL     1       4.646   3.512  17.135  0.00  0.00    +0.000 A 
ATOM      2  C   UNL     1       3.891   2.669  17.920  0.00  0.00    +0.000 A 
ATOM      3  C   UNL     1       2.955   3.157  18.812  0.00  0.00    +0.000 A 
ATOM      4  C   UNL     1       2.275   2.212  19.593  0.00  0.00    +0.000 A 
ATOM      5  C   UNL     1       1.317   2.594  20.509  0.00  0.00    +0.000 A 
ATOM      6  C   UNL     1       1.049   3.933  20.627  0.00  0.00    +0.000 A 
ATOM      7  C   UNL     1       1.739   4.854  19.844  0.00  0.00    +0.000 A 
ATOM      8  N   UNL     1       2.696   4.515  18.927  0.00  0.00    +0.000 N 
ATOM      9  C   UNL     1       3.397   5.428  18.119  0.00  0.00    +0.000 A 
ATOM     10  C   UNL     1       3.245   6.854  18.088  0.00  0.00    +0.000 A 
ATOM     11 CL   UNL     1       2.166   7.828  19.035  0.00  0.00    +0.000 Cl
ATOM     12  C   UNL     1       4.003   7.671  17.225  0.00  0.00    +0.000 A 
ATOM     13  C   UNL     1       4.923   7.129  16.357  0.00  0.00    +0.000 A 
ATOM     14  C   UNL     1       5.099   5.756  16.344  0.00  0.00    +0.000 A 
ATOM     15  C   UNL     1       4.380   4.888  17.198  0.00  0.00    +0.000 A 
ENDROOT
BRANCH   1  16
ATOM     16  N   UNL     1       5.460   2.916  16.161  0.00  0.00    +0.000 N 
ATOM     17  H   UNL     1       5.316   1.922  15.996  0.00  0.00    +0.000 HD
ATOM     18  H   UNL     1       6.452   3.126  16.181  0.00  0.00    +0.000 HD
ENDBRANCH   1  16
TORSDOF 1
ENDMDL
MODEL 4
REMARK VINA RESULT:      -6.5      2.308      4.973
REMARK  Name = 
REMARK  1 active torsions:
REMARK  status: ('A' for Active; 'I' for Inactive)
REMARK    1  A    between atoms: N_1  and  C_2
REMARK                            x       y       z     vdW  Elec       q    Type
REMARK                         _______ _______ _______ _____ _____    ______ ____
ROOT
ATOM      1  C   UNL     1       4.254   5.185  17.586  0.00  0.00    +0.000 A 
ATOM      2  C   UNL     1       4.213   3.989  18.267  0.00  0.00    +0.000 A 
ATOM      3  C   UNL     1       3.509   3.853  19.447  0.00  0.00    +0.000 A 
ATOM      4  C   UNL     1       3.571   2.602  20.079  0.00  0.00    +0.000 A 
ATOM      5  C   UNL     1       2.899   2.360  21.259  0.00  0.00    +0.000 A 
ATOM      6  C   UNL     1       2.163   3.385  21.794  0.00  0.00    +0.000 A 
ATOM      7  C   UNL     1       2.119   4.619  21.151  0.00  0.00    +0.000 A 
ATOM      8  N   UNL     1       2.771   4.899  19.982  0.00  0.00    +0.000 N 
ATOM      9  C   UNL     1       2.731   6.135  19.312  0.00  0.00    +0.000 A 
ATOM     10  C   UNL     1       2.009   7.312  19.704  0.00  0.00    +0.000 A 
ATOM     11 CL   UNL     1       1.004   7.524  21.101  0.00  0.00    +0.000 Cl
ATOM     12  C   UNL     1       2.038   8.498  18.944  0.00  0.00    +0.000 A 
ATOM     13  C   UNL     1       2.759   8.576  17.773  0.00  0.00    +0.000 A 
ATOM     14  C   UNL     1       3.465   7.463  17.350  0.00  0.00    +0.000 A 
ATOM     15  C   UNL     1       3.487   6.252  18.079  0.00  0.00    +0.000 A 
ENDROOT
BRANCH   1  16
ATOM     16  N   UNL     1       4.871   5.182  16.327  0.00  0.00    +0.000 N 
ATOM     17  H   UNL     1       4.289   5.452  15.537  0.00  0.00    +0.000 HD
ATOM     18  H   UNL     1       5.440   4.379  16.082  0.00  0.00    +0.000 HD
ENDBRANCH   1  16
TORSDOF 1
ENDMDL
MODEL 5
REMARK VINA RESULT:      -6.4      1.260      1.317
REMARK  Name = 
REMARK  1 active torsions:
REMARK  status: ('A' for Active; 'I' for Inactive)
REMARK    1  A    between atoms: N_1  and  C_2
REMARK                            x       y       z     vdW  Elec       q    Type
REMARK                         _______ _______ _______ _____ _____    ______ ____
ROOT
ATOM      1  C   UNL     1       2.834   7.036  18.635  0.00  0.00    +0.000 A 
ATOM      2  C   UNL     1       3.860   7.225  17.736  0.00  0.00    +0.000 A 
ATOM      3  C   UNL     1       4.817   6.253  17.517  0.00  0.00    +0.000 A 
ATOM      4  C   UNL     1       5.842   6.569  16.613  0.00  0.00    +0.000 A 
ATOM      5  C   UNL     1       6.843   5.667  16.319  0.00  0.00    +0.000 A 
ATOM      6  C   UNL     1       6.801   4.445  16.941  0.00  0.00    +0.000 A 
ATOM      7  C   UNL     1       5.776   4.155  17.837  0.00  0.00    +0.000 A 
ATOM      8  N   UNL     1       4.767   5.022  18.155  0.00  0.00    +0.000 N 
ATOM      9  C   UNL     1       3.718   4.745  19.049  0.00  0.00    +0.000 A 
ATOM     10  C   UNL     1       3.496   3.528  19.777  0.00  0.00    +0.000 A 
ATOM     11 CL   UNL     1       4.458   2.085  19.751  0.00  0.00    +0.000 Cl
ATOM     12  C   UNL     1       2.398   3.362  20.645  0.00  0.00    +0.000 A 
ATOM     13  C   UNL     1       1.474   4.367  20.825  0.00  0.00    +0.000 A 
ATOM     14  C   UNL     1       1.642   5.557  20.137  0.00  0.00    +0.000 A 
ATOM     15  C   UNL     1       2.732   5.787  19.266  0.00  0.00    +0.000 A 
ENDROOT
BRANCH   1  16
ATOM     16  N   UNL     1       1.834   8.018  18.677  0.00  0.00    +0.000 N 
ATOM     17  H   UNL     1       0.886   7.708  18.477  0.00  0.00    +0.000 HD
ATOM     18  H   UNL     1       2.018   8.900  18.210  0.00  0.00    +0.000 HD
ENDBRANCH   1  16
TORSDOF 1
ENDMDL
MODEL 6
REMARK VINA RESULT:      -6.4      2.307      3.381
REMARK  Name = 
REMARK  1 active torsions:
REMARK  status: ('A' for Active; 'I' for Inactive)
REMARK    1  A    between atoms: N_1  and  C_2
REMARK                            x       y       z     vdW  Elec       q    Type
REMARK                         _______ _______ _______ _____ _____    ______ ____
ROOT
ATOM      1  C   UNL     1       3.561   3.525  19.367  0.00  0.00    +0.000 A 
ATOM      2  C   UNL     1       4.426   3.306  18.318  0.00  0.00    +0.000 A 
ATOM      3  C   UNL     1       4.700   4.292  17.390  0.00  0.00    +0.000 A 
ATOM      4  C   UNL     1       5.560   3.947  16.338  0.00  0.00    +0.000 A 
ATOM      5  C   UNL     1       5.903   4.859  15.362  0.00  0.00    +0.000 A 
ATOM      6  C   UNL     1       5.374   6.120  15.457  0.00  0.00    +0.000 A 
ATOM      7  C   UNL     1       4.519   6.440  16.508  0.00  0.00    +0.000 A 
ATOM      8  N   UNL     1       4.155   5.563  17.493  0.00  0.00    +0.000 N 
ATOM      9  C   UNL     1       3.302   5.869  18.569  0.00  0.00    +0.000 A 
ATOM     10  C   UNL     1       2.669   7.127  18.845  0.00  0.00    +0.000 A 
ATOM     11 CL   UNL     1       2.785   8.597  17.931  0.00  0.00    +0.000 Cl
ATOM     12  C   UNL     1       1.835   7.318  19.964  0.00  0.00    +0.000 A 
ATOM     13  C   UNL     1       1.597   6.297  20.857  0.00  0.00    +0.000 A 
ATOM     14  C   UNL     1       2.192   5.068  20.637  0.00  0.00    +0.000 A 
ATOM     15  C   UNL     1       3.025   4.812  19.524  0.00  0.00    +0.000 A 
ENDROOT
BRANCH   1  16
ATOM     16  N   UNL     1       3.464   2.514  20.334  0.00  0.00    +0.000 N 
ATOM     17  H   UNL     1       2.725   1.827  20.199  0.00  0.00    +0.000 HD
ATOM     18  H   UNL     1       3.510   2.788  21.310  0.00  0.00    +0.000 HD
ENDBRANCH   1  16
TORSDOF 1
ENDMDL
MODEL 7
REMARK VINA RESULT:      -6.3      1.716      3.582
REMARK  Name = 
REMARK  1 active torsions:
REMARK  status: ('A' for Active; 'I' for Inactive)
REMARK    1  A    between atoms: N_1  and  C_2
REMARK                            x       y       z     vdW  Elec       q    Type
REMARK                         _______ _______ _______ _____ _____    ______ ____
ROOT
ATOM      1  C   UNL     1       4.769   4.112  16.767  0.00  0.00    +0.000 A 
ATOM      2  C   UNL     1       4.754   5.487  16.681  0.00  0.00    +0.000 A 
ATOM      3  C   UNL     1       3.847   6.246  17.395  0.00  0.00    +0.000 A 
ATOM      4  C   UNL     1       3.891   7.633  17.198  0.00  0.00    +0.000 A 
ATOM      5  C   UNL     1       3.034   8.481  17.868  0.00  0.00    +0.000 A 
ATOM      6  C   UNL     1       2.136   7.920  18.739  0.00  0.00    +0.000 A 
ATOM      7  C   UNL     1       2.108   6.539  18.916  0.00  0.00    +0.000 A 
ATOM      8  N   UNL     1       2.939   5.666  18.270  0.00  0.00    +0.000 N 
ATOM      9  C   UNL     1       2.934   4.271  18.443  0.00  0.00    +0.000 A 
ATOM     10  C   UNL     1       2.087   3.507  19.314  0.00  0.00    +0.000 A 
ATOM     11 CL   UNL     1       0.849   4.097  20.376  0.00  0.00    +0.000 Cl
ATOM     12  C   UNL     1       2.178   2.104  19.409  0.00  0.00    +0.000 A 
ATOM     13  C   UNL     1       3.102   1.399  18.671  0.00  0.00    +0.000 A 
ATOM     14  C   UNL     1       3.947   2.093  17.822  0.00  0.00    +0.000 A 
ATOM     15  C   UNL     1       3.891   3.498  17.673  0.00  0.00    +0.000 A 
ENDROOT
BRANCH   1  16
ATOM     16  N   UNL     1       5.818   3.445  16.119  0.00  0.00    +0.000 N 
ATOM     17  H   UNL     1       6.702   3.946  16.053  0.00  0.00    +0.000 HD
ATOM     18  H   UNL     1       5.613   2.982  15.240  0.00  0.00    +0.000 HD
ENDBRANCH   1  16
TORSDOF 1
ENDMDL
MODEL 8
REMARK VINA RESULT:      -6.1      1.221      4.209
REMARK  Name = 
REMARK  1 active torsions:
REMARK  status: ('A' for Active; 'I' for Inactive)
REMARK    1  A    between atoms: N_1  and  C_2
REMARK                            x       y       z     vdW  Elec       q    Type
REMARK                         _______ _______ _______ _____ _____    ______ ____
ROOT
ATOM      1  C   UNL     1       2.156   6.990  19.564  0.00  0.00    +0.000 A 
ATOM      2  C   UNL     1       1.674   6.007  20.400  0.00  0.00    +0.000 A 
ATOM      3  C   UNL     1       1.983   4.675  20.201  0.00  0.00    +0.000 A 
ATOM      4  C   UNL     1       1.402   3.754  21.085  0.00  0.00    +0.000 A 
ATOM      5  C   UNL     1       1.651   2.402  20.978  0.00  0.00    +0.000 A 
ATOM      6  C   UNL     1       2.491   1.987  19.977  0.00  0.00    +0.000 A 
ATOM      7  C   UNL     1       3.053   2.918  19.109  0.00  0.00    +0.000 A 
ATOM      8  N   UNL     1       2.830   4.266  19.182  0.00  0.00    +0.000 N 
ATOM      9  C   UNL     1       3.397   5.224  18.322  0.00  0.00    +0.000 A 
ATOM     10  C   UNL     1       4.304   4.988  17.235  0.00  0.00    +0.000 A 
ATOM     11 CL   UNL     1       4.937   3.466  16.693  0.00  0.00    +0.000 Cl
ATOM     12  C   UNL     1       4.814   6.035  16.442  0.00  0.00    +0.000 A 
ATOM     13  C   UNL     1       4.471   7.345  16.686  0.00  0.00    +0.000 A 
ATOM     14  C   UNL     1       3.605   7.624  17.729  0.00  0.00    +0.000 A 
ATOM     15  C   UNL     1       3.048   6.615  18.548  0.00  0.00    +0.000 A 
ENDROOT
BRANCH   1  16
ATOM     16  N   UNL     1       1.907   8.319  19.934  0.00  0.00    +0.000 N 
ATOM     17  H   UNL     1       2.161   8.580  20.885  0.00  0.00    +0.000 HD
ATOM     18  H   UNL     1       1.005   8.716  19.694  0.00  0.00    +0.000 HD
ENDBRANCH   1  16
TORSDOF 1
ENDMDL
MODEL 9
REMARK VINA RESULT:      -6.1      1.923      3.536
REMARK  Name = 
REMARK  1 active torsions:
REMARK  status: ('A' for Active; 'I' for Inactive)
REMARK    1  A    between atoms: N_1  and  C_2
REMARK                            x       y       z     vdW  Elec       q    Type
REMARK                         _______ _______ _______ _____ _____    ______ ____
ROOT
ATOM      1  C   UNL     1       2.114   3.886  20.904  0.00  0.00    +0.000 A 
ATOM      2  C   UNL     1       1.773   5.219  20.972  0.00  0.00    +0.000 A 
ATOM      3  C   UNL     1       2.118   6.105  19.969  0.00  0.00    +0.000 A 
ATOM      4  C   UNL     1       1.760   7.447  20.162  0.00  0.00    +0.000 A 
ATOM      5  C   UNL     1       2.052   8.410  19.219  0.00  0.00    +0.000 A 
ATOM      6  C   UNL     1       2.704   8.010  18.082  0.00  0.00    +0.000 A 
ATOM      7  C   UNL     1       3.053   6.673  17.913  0.00  0.00    +0.000 A 
ATOM      8  N   UNL     1       2.783   5.689  18.824  0.00  0.00    +0.000 N 
ATOM      9  C   UNL     1       3.117   4.332  18.669  0.00  0.00    +0.000 A 
ATOM     10  C   UNL     1       3.780   3.724  17.551  0.00  0.00    +0.000 A 
ATOM     11 CL   UNL     1       4.345   4.496  16.103  0.00  0.00    +0.000 Cl
ATOM     12  C   UNL     1       4.058   2.343  17.503  0.00  0.00    +0.000 A 
ATOM     13  C   UNL     1       3.690   1.507  18.533  0.00  0.00    +0.000 A 
ATOM     14  C   UNL     1       3.041   2.046  19.629  0.00  0.00    +0.000 A 
ATOM     15  C   UNL     1       2.750   3.426  19.741  0.00  0.00    +0.000 A 
ENDROOT
BRANCH   1  16
ATOM     16  N   UNL     1       1.593   3.044  21.896  0.00  0.00    +0.000 N 
ATOM     17  H   UNL     1       1.722   2.044  21.755  0.00  0.00    +0.000 HD
ATOM     18  H   UNL     1       0.651   3.229  22.227  0.00  0.00    +0.000 HD
ENDBRANCH   1  16
TORSDOF 1
ENDMDL
