MODEL 1
REMARK VINA RESULT:      -5.3      0.000      0.000
REMARK  Name = 
REMARK  4 active torsions:
REMARK  status: ('A' for Active; 'I' for Inactive)
REMARK    1  A    between atoms: C_1  and  C_2
REMARK    2  A    between atoms: C_2  and  C_3
REMARK    3  A    between atoms: C_8  and  C_9
REMARK    4  A    between atoms: C_8  and  C_10
REMARK                            x       y       z     vdW  Elec       q    Type
REMARK                         _______ _______ _______ _____ _____    ______ ____
ROOT
ATOM      1  C   UNL     1       6.025   5.524  19.264  0.00  0.00    +0.000 C 
ATOM      2  C   UNL     1       6.664   5.627  17.871  0.00  0.00    +0.000 C 
ATOM      3  C   UNL     1       7.333   7.016  17.761  0.00  0.00    +0.000 C 
ATOM      4  C   UNL     1       7.740   4.552  17.705  0.00  0.00    +0.000 C 
ATOM      5  O   UNL     1       7.849   4.325  16.300  0.00  0.00    +0.000 OA
ATOM      6  C   UNL     1       6.686   4.687  15.700  0.00  0.00    +0.000 C 
ATOM      7  S   UNL     1       6.503   4.348  14.089  0.00  0.00    +0.000 S 
ATOM      8  C   UNL     1       5.705   5.311  16.675  0.00  0.00    +0.000 C 
ATOM      9  C   UNL     1       4.625   4.268  17.021  0.00  0.00    +0.000 C 
ATOM     10  C   UNL     1       5.018   6.556  16.094  0.00  0.00    +0.000 C 
ENDROOT
TORSDOF 0
ENDMDL
MODEL 2
REMARK VINA RESULT:      -5.1      4.082      5.225
REMARK  Name = 
REMARK  4 active torsions:
REMARK  status: ('A' for Active; 'I' for Inactive)
REMARK    1  A    between atoms: C_1  and  C_2
REMARK    2  A    between atoms: C_2  and  C_3
REMARK    3  A    between atoms: C_8  and  C_9
REMARK    4  A    between atoms: C_8  and  C_10
REMARK                            x       y       z     vdW  Elec       q    Type
REMARK                         _______ _______ _______ _____ _____    ______ ____
ROOT
ATOM      1  C   UNL     1       0.698   2.755  19.457  0.00  0.00    +0.000 C 
ATOM      2  C   UNL     1       2.074   3.220  19.955  0.00  0.00    +0.000 C 
ATOM      3  C   UNL     1       2.027   3.267  21.499  0.00  0.00    +0.000 C 
ATOM      4  C   UNL     1       3.153   2.222  19.530  0.00  0.00    +0.000 C 
ATOM      5  O   UNL     1       4.373   2.961  19.488  0.00  0.00    +0.000 OA
ATOM      6  C   UNL     1       4.090   4.276  19.305  0.00  0.00    +0.000 C 
ATOM      7  S   UNL     1       5.353   5.316  19.043  0.00  0.00    +0.000 S 
ATOM      8  C   UNL     1       2.598   4.551  19.316  0.00  0.00    +0.000 C 
ATOM      9  C   UNL     1       2.124   4.755  17.865  0.00  0.00    +0.000 C 
ATOM     10  C   UNL     1       2.241   5.803  20.131  0.00  0.00    +0.000 C 
ENDROOT
TORSDOF 0
ENDMDL
MODEL 3
REMARK VINA RESULT:      -5.1      3.503      4.526
REMARK  Name = 
REMARK  4 active torsions:
REMARK  status: ('A' for Active; 'I' for Inactive)
REMARK    1  A    between atoms: C_1  and  C_2
REMARK    2  A    between atoms: C_2  and  C_3
REMARK    3  A    between atoms: C_8  and  C_9
REMARK    4  A    between atoms: C_8  and  C_10
REMARK                            x       y       z     vdW  Elec       q    Type
REMARK                         _______ _______ _______ _____ _____    ______ ____
ROOT
ATOM      1  C   UNL     1       1.131   2.779  19.745  0.00  0.00    +0.000 C 
ATOM      2  C   UNL     1       2.460   3.546  19.812  0.00  0.00    +0.000 C 
ATOM      3  C   UNL     1       2.320   4.639  20.896  0.00  0.00    +0.000 C 
ATOM      4  C   UNL     1       3.593   2.602  20.216  0.00  0.00    +0.000 C 
ATOM      5  O   UNL     1       4.789   3.186  19.700  0.00  0.00    +0.000 OA
ATOM      6  C   UNL     1       4.475   3.991  18.654  0.00  0.00    +0.000 C 
ATOM      7  S   UNL     1       5.716   4.643  17.772  0.00  0.00    +0.000 S 
ATOM      8  C   UNL     1       2.977   4.102  18.442  0.00  0.00    +0.000 C 
ATOM      9  C   UNL     1       2.583   3.221  17.242  0.00  0.00    +0.000 C 
ATOM     10  C   UNL     1       2.532   5.545  18.159  0.00  0.00    +0.000 C 
ENDROOT
TORSDOF 0
ENDMDL
MODEL 4
REMARK VINA RESULT:      -5.0      2.450      3.380
REMARK  Name = 
REMARK  4 active torsions:
REMARK  status: ('A' for Active; 'I' for Inactive)
REMARK    1  A    between atoms: C_1  and  C_2
REMARK    2  A    between atoms: C_2  and  C_3
REMARK    3  A    between atoms: C_8  and  C_9
REMARK    4  A    between atoms: C_8  and  C_10
REMARK                            x       y       z     vdW  Elec       q    Type
REMARK                         _______ _______ _______ _____ _____    ______ ____
ROOT
ATOM      1  C   UNL     1       2.426   3.766  17.461  0.00  0.00    +0.000 C 
ATOM      2  C   UNL     1       3.566   4.415  18.259  0.00  0.00    +0.000 C 
ATOM      3  C   UNL     1       2.940   5.451  19.220  0.00  0.00    +0.000 C 
ATOM      4  C   UNL     1       4.296   3.358  19.089  0.00  0.00    +0.000 C 
ATOM      5  O   UNL     1       5.611   3.871  19.303  0.00  0.00    +0.000 OA
ATOM      6  C   UNL     1       5.906   4.759  18.320  0.00  0.00    +0.000 C 
ATOM      7  S   UNL     1       7.450   5.357  18.249  0.00  0.00    +0.000 S 
ATOM      8  C   UNL     1       4.730   5.006  17.394  0.00  0.00    +0.000 C 
ATOM      9  C   UNL     1       4.966   4.232  16.083  0.00  0.00    +0.000 C 
ATOM     10  C   UNL     1       4.552   6.495  17.060  0.00  0.00    +0.000 C 
ENDROOT
TORSDOF 0
ENDMDL
MODEL 5
REMARK VINA RESULT:      -5.0      2.771      3.650
REMARK  Name = 
REMARK  4 active torsions:
REMARK  status: ('A' for Active; 'I' for Inactive)
REMARK    1  A    between atoms: C_1  and  C_2
REMARK    2  A    between atoms: C_2  and  C_3
REMARK    3  A    between atoms: C_8  and  C_9
REMARK    4  A    between atoms: C_8  and  C_10
REMARK                            x       y       z     vdW  Elec       q    Type
REMARK                         _______ _______ _______ _____ _____    ______ ____
ROOT
ATOM      1  C   UNL     1       4.906   6.303  16.407  0.00  0.00    +0.000 C 
ATOM      2  C   UNL     1       5.089   4.936  17.082  0.00  0.00    +0.000 C 
ATOM      3  C   UNL     1       5.584   3.941  16.008  0.00  0.00    +0.000 C 
ATOM      4  C   UNL     1       6.147   5.031  18.183  0.00  0.00    +0.000 C 
ATOM      5  O   UNL     1       5.848   3.980  19.101  0.00  0.00    +0.000 OA
ATOM      6  C   UNL     1       4.535   3.655  18.992  0.00  0.00    +0.000 C 
ATOM      7  S   UNL     1       3.905   2.580  20.085  0.00  0.00    +0.000 S 
ATOM      8  C   UNL     1       3.844   4.415  17.876  0.00  0.00    +0.000 C 
ATOM      9  C   UNL     1       3.003   5.545  18.497  0.00  0.00    +0.000 C 
ATOM     10  C   UNL     1       2.919   3.514  17.042  0.00  0.00    +0.000 C 
ENDROOT
TORSDOF 0
ENDMDL
MODEL 6
REMARK VINA RESULT:      -4.9      2.078      2.776
REMARK  Name = 
REMARK  4 active torsions:
REMARK  status: ('A' for Active; 'I' for Inactive)
REMARK    1  A    between atoms: C_1  and  C_2
REMARK    2  A    between atoms: C_2  and  C_3
REMARK    3  A    between atoms: C_8  and  C_9
REMARK    4  A    between atoms: C_8  and  C_10
REMARK                            x       y       z     vdW  Elec       q    Type
REMARK                         _______ _______ _______ _____ _____    ______ ____
ROOT
ATOM      1  C   UNL     1       7.349   6.965  17.686  0.00  0.00    +0.000 C 
ATOM      2  C   UNL     1       6.637   5.607  17.772  0.00  0.00    +0.000 C 
ATOM      3  C   UNL     1       7.658   4.513  17.388  0.00  0.00    +0.000 C 
ATOM      4  C   UNL     1       6.163   5.351  19.204  0.00  0.00    +0.000 C 
ATOM      5  O   UNL     1       5.065   4.446  19.094  0.00  0.00    +0.000 OA
ATOM      6  C   UNL     1       4.517   4.559  17.858  0.00  0.00    +0.000 C 
ATOM      7  S   UNL     1       3.112   3.737  17.550  0.00  0.00    +0.000 S 
ATOM      8  C   UNL     1       5.297   5.507  16.967  0.00  0.00    +0.000 C 
ATOM      9  C   UNL     1       4.536   6.844  16.885  0.00  0.00    +0.000 C 
ATOM     10  C   UNL     1       5.477   4.956  15.544  0.00  0.00    +0.000 C 
ENDROOT
TORSDOF 0
ENDMDL
MODEL 7
REMARK VINA RESULT:      -4.9      3.815      5.095
REMARK  Name = 
REMARK  4 active torsions:
REMARK  status: ('A' for Active; 'I' for Inactive)
REMARK    1  A    between atoms: C_1  and  C_2
REMARK    2  A    between atoms: C_2  and  C_3
REMARK    3  A    between atoms: C_8  and  C_9
REMARK    4  A    between atoms: C_8  and  C_10
REMARK                            x       y       z     vdW  Elec       q    Type
REMARK                         _______ _______ _______ _____ _____    ______ ____
ROOT
ATOM      1  C   UNL     1       0.979   3.030  19.694  0.00  0.00    +0.000 C 
ATOM      2  C   UNL     1       1.996   4.011  19.094  0.00  0.00    +0.000 C 
ATOM      3  C   UNL     1       1.467   4.453  17.710  0.00  0.00    +0.000 C 
ATOM      4  C   UNL     1       2.123   5.248  19.985  0.00  0.00    +0.000 C 
ATOM      5  O   UNL     1       3.419   5.785  19.724  0.00  0.00    +0.000 OA
ATOM      6  C   UNL     1       4.222   4.798  19.253  0.00  0.00    +0.000 C 
ATOM      7  S   UNL     1       5.831   5.134  19.046  0.00  0.00    +0.000 S 
ATOM      8  C   UNL     1       3.473   3.494  19.050  0.00  0.00    +0.000 C 
ATOM      9  C   UNL     1       3.819   2.542  20.211  0.00  0.00    +0.000 C 
ATOM     10  C   UNL     1       3.844   2.808  17.726  0.00  0.00    +0.000 C 
ENDROOT
TORSDOF 0
ENDMDL
MODEL 8
REMARK VINA RESULT:      -4.9      2.583      3.410
REMARK  Name = 
REMARK  4 active torsions:
REMARK  status: ('A' for Active; 'I' for Inactive)
REMARK    1  A    between atoms: C_1  and  C_2
REMARK    2  A    between atoms: C_2  and  C_3
REMARK    3  A    between atoms: C_8  and  C_9
REMARK    4  A    between atoms: C_8  and  C_10
REMARK                            x       y       z     vdW  Elec       q    Type
REMARK                         _______ _______ _______ _____ _____    ______ ____
ROOT
ATOM      1  C   UNL     1       2.168   4.789  17.731  0.00  0.00    +0.000 C 
ATOM      2  C   UNL     1       3.417   5.560  18.180  0.00  0.00    +0.000 C 
ATOM      3  C   UNL     1       3.057   7.063  18.218  0.00  0.00    +0.000 C 
ATOM      4  C   UNL     1       3.829   5.122  19.586  0.00  0.00    +0.000 C 
ATOM      5  O   UNL     1       5.227   5.396  19.686  0.00  0.00    +0.000 OA
ATOM      6  C   UNL     1       5.765   5.418  18.440  0.00  0.00    +0.000 C 
ATOM      7  S   UNL     1       7.411   5.539  18.305  0.00  0.00    +0.000 S 
ATOM      8  C   UNL     1       4.715   5.261  17.356  0.00  0.00    +0.000 C 
ATOM      9  C   UNL     1       4.774   3.818  16.819  0.00  0.00    +0.000 C 
ATOM     10  C   UNL     1       4.935   6.230  16.185  0.00  0.00    +0.000 C 
ENDROOT
TORSDOF 0
ENDMDL
MODEL 9
REMARK VINA RESULT:      -4.9      4.132      5.246
REMARK  Name = 
REMARK  4 active torsions:
REMARK  status: ('A' for Active; 'I' for Inactive)
REMARK    1  A    between atoms: C_1  and  C_2
REMARK    2  A    between atoms: C_2  and  C_3
REMARK    3  A    between atoms: C_8  and  C_9
REMARK    4  A    between atoms: C_8  and  C_10
REMARK                            x       y       z     vdW  Elec       q    Type
REMARK                         _______ _______ _______ _____ _____    ______ ____
ROOT
ATOM      1  C   UNL     1       3.255   1.893  18.209  0.00  0.00    +0.000 C 
ATOM      2  C   UNL     1       3.328   3.067  19.195  0.00  0.00    +0.000 C 
ATOM      3  C   UNL     1       3.484   2.481  20.617  0.00  0.00    +0.000 C 
ATOM      4  C   UNL     1       4.549   3.936  18.889  0.00  0.00    +0.000 C 
ATOM      5  O   UNL     1       4.240   5.234  19.397  0.00  0.00    +0.000 OA
ATOM      6  C   UNL     1       2.892   5.378  19.457  0.00  0.00    +0.000 C 
ATOM      7  S   UNL     1       2.285   6.870  19.846  0.00  0.00    +0.000 S 
ATOM      8  C   UNL     1       2.159   4.104  19.083  0.00  0.00    +0.000 C 
ATOM      9  C   UNL     1       1.614   4.252  17.650  0.00  0.00    +0.000 C 
ATOM     10  C   UNL     1       0.984   3.807  20.028  0.00  0.00    +0.000 C 
ENDROOT
TORSDOF 0
ENDMDL
