MODEL 1
REMARK VINA RESULT:     -10.1      0.000      0.000
REMARK  Name = 
REMARK  9 active torsions:
REMARK  status: ('A' for Active; 'I' for Inactive)
REMARK    1  A    between atoms: C_1  and  C_2
REMARK    2  A    between atoms: C_5  and  C_6
REMARK    3  A    between atoms: C_11  and  C_12
REMARK    4  A    between atoms: C_12  and  C_13
REMARK    5  A    between atoms: C_12  and  C_14
REMARK    6  A    between atoms: C_12  and  C_15
REMARK    7  A    between atoms: C_19  and  N_20
REMARK    8  A    between atoms: N_20  and  C_21
REMARK    9  A    between atoms: C_28  and  C_29
REMARK                            x       y       z     vdW  Elec       q    Type
REMARK                         _______ _______ _______ _____ _____    ______ ____
ROOT
ATOM      1  C   UNL     1       2.992   7.559  17.534  0.00  0.00    +0.000 C 
ATOM      2  C   UNL     1       2.209   8.143  18.678  0.00  0.00    +0.000 A 
ATOM      3  C   UNL     1       1.588   9.383  18.459  0.00  0.00    +0.000 A 
ATOM      4  C   UNL     1       0.797   9.972  19.444  0.00  0.00    +0.000 A 
ATOM      5  C   UNL     1       0.566   9.321  20.657  0.00  0.00    +0.000 A 
ATOM      6  C   UNL     1       1.192   8.094  20.876  0.00  0.00    +0.000 A 
ATOM      7  C   UNL     1       2.086   7.523  19.940  0.00  0.00    +0.000 A 
ENDROOT
BRANCH   5   8
ATOM      8  C   UNL     1      -0.346   9.996  21.628  0.00  0.00    +0.000 C 
ATOM      9  O   UNL     1      -0.525   9.424  22.700  0.00  0.00    +0.000 OA
ATOM     10  N   UNL     1      -0.929  11.202  21.268  0.00  0.00    +0.000 N 
ATOM     11  C   UNL     1      -1.779  11.897  22.118  0.00  0.00    +0.000 A 
ATOM     12  C   UNL     1      -2.388  13.145  21.820  0.00  0.00    +0.000 A 
ATOM     13  C   UNL     1      -3.130  13.457  22.941  0.00  0.00    +0.000 A 
ATOM     14  O   UNL     1      -2.979  12.460  23.846  0.00  0.00    +0.000 OA
ATOM     15  N   UNL     1      -2.146  11.499  23.338  0.00  0.00    +0.000 NA
ATOM     16  H   UNL     1      -0.759  11.615  20.366  0.00  0.00    +0.000 HD
BRANCH  13  17
ATOM     17  C   UNL     1      -4.011  14.602  23.372  0.00  0.00    +0.000 C 
ATOM     18  C   UNL     1      -3.498  15.221  24.681  0.00  0.00    +0.000 C 
ATOM     19  C   UNL     1      -4.021  15.690  22.279  0.00  0.00    +0.000 C 
ATOM     20  C   UNL     1      -5.448  14.097  23.589  0.00  0.00    +0.000 C 
ENDBRANCH  13  17
ENDBRANCH   5   8
BRANCH   7  21
ATOM     21  N   UNL     1       2.787   6.338  20.273  0.00  0.00    +0.000 N 
ATOM     22  H   UNL     1       3.430   6.406  21.056  0.00  0.00    +0.000 HD
BRANCH  21  23
ATOM     23  C   UNL     1       2.336   4.986  20.117  0.00  0.00    +0.000 A 
ATOM     24  N   UNL     1       1.290   4.554  20.865  0.00  0.00    +0.000 NA
ATOM     25  C   UNL     1       0.806   3.342  20.603  0.00  0.00    +0.000 A 
ATOM     26  N   UNL     1       1.248   2.521  19.653  0.00  0.00    +0.000 NA
ATOM     27  C   UNL     1       2.288   2.960  18.934  0.00  0.00    +0.000 A 
ATOM     28  C   UNL     1       2.757   2.157  17.909  0.00  0.00    +0.000 A 
ATOM     29  C   UNL     1       3.819   2.565  17.106  0.00  0.00    +0.000 A 
ATOM     30  C   UNL     1       4.422   3.781  17.378  0.00  0.00    +0.000 A 
ATOM     31  N   UNL     1       3.994   4.590  18.378  0.00  0.00    +0.000 NA
ATOM     32  C   UNL     1       2.925   4.195  19.123  0.00  0.00    +0.000 A 
BRANCH  30  33
ATOM     33  C   UNL     1       5.523   4.309  16.558  0.00  0.00    +0.000 C 
ATOM     34  C   UNL     1       6.156   5.444  16.908  0.00  0.00    +0.000 C 
ATOM     35  C   UNL     1       7.208   6.098  16.065  0.00  0.00    +0.000 C 
ATOM     36  N   UNL     1       7.689   5.274  14.954  0.00  0.00    +0.000 NA
ATOM     37  C   UNL     1       6.571   4.589  14.296  0.00  0.00    +0.000 C 
ATOM     38  C   UNL     1       5.854   3.626  15.256  0.00  0.00    +0.000 C 
ATOM     39  H   UNL     1       8.329   4.577  15.329  0.00  0.00    +0.000 HD
ENDBRANCH  30  33
ENDBRANCH  21  23
ENDBRANCH   7  21
TORSDOF 5
ENDMDL
MODEL 2
REMARK VINA RESULT:     -10.0      0.302      1.137
REMARK  Name = 
REMARK  9 active torsions:
REMARK  status: ('A' for Active; 'I' for Inactive)
REMARK    1  A    between atoms: C_1  and  C_2
REMARK    2  A    between atoms: C_5  and  C_6
REMARK    3  A    between atoms: C_11  and  C_12
REMARK    4  A    between atoms: C_12  and  C_13
REMARK    5  A    between atoms: C_12  and  C_14
REMARK    6  A    between atoms: C_12  and  C_15
REMARK    7  A    between atoms: C_19  and  N_20
REMARK    8  A    between atoms: N_20  and  C_21
REMARK    9  A    between atoms: C_28  and  C_29
REMARK                            x       y       z     vdW  Elec       q    Type
REMARK                         _______ _______ _______ _____ _____    ______ ____
ROOT
ATOM      1  C   UNL     1       3.017   7.587  17.481  0.00  0.00    +0.000 C 
ATOM      2  C   UNL     1       2.228   8.156  18.629  0.00  0.00    +0.000 A 
ATOM      3  C   UNL     1       1.564   9.374  18.407  0.00  0.00    +0.000 A 
ATOM      4  C   UNL     1       0.766   9.945  19.395  0.00  0.00    +0.000 A 
ATOM      5  C   UNL     1       0.569   9.298  20.616  0.00  0.00    +0.000 A 
ATOM      6  C   UNL     1       1.236   8.093  20.839  0.00  0.00    +0.000 A 
ATOM      7  C   UNL     1       2.138   7.544  19.898  0.00  0.00    +0.000 A 
ENDROOT
BRANCH   5   8
ATOM      8  C   UNL     1      -0.354   9.952  21.591  0.00  0.00    +0.000 C 
ATOM      9  O   UNL     1      -0.684   9.282  22.566  0.00  0.00    +0.000 OA
ATOM     10  N   UNL     1      -0.779  11.248  21.341  0.00  0.00    +0.000 N 
ATOM     11  C   UNL     1      -1.628  11.928  22.204  0.00  0.00    +0.000 A 
ATOM     12  C   UNL     1      -2.081  13.263  22.018  0.00  0.00    +0.000 A 
ATOM     13  C   UNL     1      -2.885  13.521  23.109  0.00  0.00    +0.000 A 
ATOM     14  O   UNL     1      -2.915  12.416  23.891  0.00  0.00    +0.000 OA
ATOM     15  N   UNL     1      -2.140  11.435  23.333  0.00  0.00    +0.000 NA
ATOM     16  H   UNL     1      -0.490  11.742  20.513  0.00  0.00    +0.000 HD
BRANCH  13  17
ATOM     17  C   UNL     1      -3.682  14.699  23.611  0.00  0.00    +0.000 C 
ATOM     18  C   UNL     1      -5.175  14.349  23.697  0.00  0.00    +0.000 C 
ATOM     19  C   UNL     1      -3.185  15.103  25.013  0.00  0.00    +0.000 C 
ATOM     20  C   UNL     1      -3.503  15.891  22.654  0.00  0.00    +0.000 C 
ENDBRANCH  13  17
ENDBRANCH   5   8
BRANCH   7  21
ATOM     21  N   UNL     1       2.881   6.384  20.233  0.00  0.00    +0.000 N 
ATOM     22  H   UNL     1       3.567   6.494  20.973  0.00  0.00    +0.000 HD
BRANCH  21  23
ATOM     23  C   UNL     1       2.449   5.020  20.155  0.00  0.00    +0.000 A 
ATOM     24  N   UNL     1       1.481   4.590  21.003  0.00  0.00    +0.000 NA
ATOM     25  C   UNL     1       1.003   3.361  20.818  0.00  0.00    +0.000 A 
ATOM     26  N   UNL     1       1.380   2.521  19.857  0.00  0.00    +0.000 NA
ATOM     27  C   UNL     1       2.344   2.958  19.038  0.00  0.00    +0.000 A 
ATOM     28  C   UNL     1       2.740   2.135  17.999  0.00  0.00    +0.000 A 
ATOM     29  C   UNL     1       3.721   2.539  17.096  0.00  0.00    +0.000 A 
ATOM     30  C   UNL     1       4.317   3.775  17.280  0.00  0.00    +0.000 A 
ATOM     31  N   UNL     1       3.959   4.605  18.290  0.00  0.00    +0.000 NA
ATOM     32  C   UNL     1       2.967   4.211  19.136  0.00  0.00    +0.000 A 
BRANCH  30  33
ATOM     33  C   UNL     1       5.331   4.300  16.354  0.00  0.00    +0.000 C 
ATOM     34  C   UNL     1       5.446   3.804  15.108  0.00  0.00    +0.000 C 
ATOM     35  C   UNL     1       6.524   4.212  14.150  0.00  0.00    +0.000 C 
ATOM     36  N   UNL     1       7.292   5.386  14.573  0.00  0.00    +0.000 NA
ATOM     37  C   UNL     1       7.599   5.316  16.006  0.00  0.00    +0.000 C 
ATOM     38  C   UNL     1       6.319   5.321  16.858  0.00  0.00    +0.000 C 
ATOM     39  H   UNL     1       6.728   6.214  14.394  0.00  0.00    +0.000 HD
ENDBRANCH  30  33
ENDBRANCH  21  23
ENDBRANCH   7  21
TORSDOF 5
ENDMDL
MODEL 3
REMARK VINA RESULT:      -9.8      4.355      8.849
REMARK  Name = 
REMARK  9 active torsions:
REMARK  status: ('A' for Active; 'I' for Inactive)
REMARK    1  A    between atoms: C_1  and  C_2
REMARK    2  A    between atoms: C_5  and  C_6
REMARK    3  A    between atoms: C_11  and  C_12
REMARK    4  A    between atoms: C_12  and  C_13
REMARK    5  A    between atoms: C_12  and  C_14
REMARK    6  A    between atoms: C_12  and  C_15
REMARK    7  A    between atoms: C_19  and  N_20
REMARK    8  A    between atoms: N_20  and  C_21
REMARK    9  A    between atoms: C_28  and  C_29
REMARK                            x       y       z     vdW  Elec       q    Type
REMARK                         _______ _______ _______ _____ _____    ______ ____
ROOT
ATOM      1  C   UNL     1       5.147   3.569  14.022  0.00  0.00    +0.000 C 
ATOM      2  C   UNL     1       5.761   4.448  15.077  0.00  0.00    +0.000 A 
ATOM      3  C   UNL     1       7.090   4.855  14.876  0.00  0.00    +0.000 A 
ATOM      4  C   UNL     1       7.720   5.714  15.773  0.00  0.00    +0.000 A 
ATOM      5  C   UNL     1       7.030   6.229  16.873  0.00  0.00    +0.000 A 
ATOM      6  C   UNL     1       5.713   5.816  17.076  0.00  0.00    +0.000 A 
ATOM      7  C   UNL     1       5.083   4.862  16.244  0.00  0.00    +0.000 A 
ENDROOT
BRANCH   5   8
ATOM      8  C   UNL     1       7.764   7.193  17.745  0.00  0.00    +0.000 C 
ATOM      9  O   UNL     1       8.293   6.727  18.751  0.00  0.00    +0.000 OA
ATOM     10  N   UNL     1       7.800   8.530  17.380  0.00  0.00    +0.000 N 
ATOM     11  C   UNL     1       8.470   9.486  18.132  0.00  0.00    +0.000 A 
ATOM     12  C   UNL     1       8.564  10.865  17.801  0.00  0.00    +0.000 A 
ATOM     13  C   UNL     1       9.318  11.423  18.812  0.00  0.00    +0.000 A 
ATOM     14  O   UNL     1       9.648  10.447  19.691  0.00  0.00    +0.000 OA
ATOM     15  N   UNL     1       9.125   9.253  19.271  0.00  0.00    +0.000 NA
ATOM     16  H   UNL     1       7.330   8.858  16.552  0.00  0.00    +0.000 HD
BRANCH  13  17
ATOM     17  C   UNL     1       9.846  12.799  19.136  0.00  0.00    +0.000 C 
ATOM     18  C   UNL     1      11.093  13.114  18.298  0.00  0.00    +0.000 C 
ATOM     19  C   UNL     1       8.764  13.855  18.832  0.00  0.00    +0.000 C 
ATOM     20  C   UNL     1      10.214  12.874  20.628  0.00  0.00    +0.000 C 
ENDBRANCH  13  17
ENDBRANCH   5   8
BRANCH   7  21
ATOM     21  N   UNL     1       3.788   4.389  16.575  0.00  0.00    +0.000 N 
ATOM     22  H   UNL     1       3.178   4.178  15.792  0.00  0.00    +0.000 HD
BRANCH  21  23
ATOM     23  C   UNL     1       3.410   3.617  17.721  0.00  0.00    +0.000 A 
ATOM     24  N   UNL     1       3.709   2.293  17.747  0.00  0.00    +0.000 NA
ATOM     25  C   UNL     1       3.470   1.631  18.877  0.00  0.00    +0.000 A 
ATOM     26  N   UNL     1       2.979   2.160  19.995  0.00  0.00    +0.000 NA
ATOM     27  C   UNL     1       2.679   3.464  19.947  0.00  0.00    +0.000 A 
ATOM     28  C   UNL     1       2.203   4.067  21.097  0.00  0.00    +0.000 A 
ATOM     29  C   UNL     1       1.894   5.424  21.121  0.00  0.00    +0.000 A 
ATOM     30  C   UNL     1       2.043   6.155  19.955  0.00  0.00    +0.000 A 
ATOM     31  N   UNL     1       2.501   5.597  18.808  0.00  0.00    +0.000 NA
ATOM     32  C   UNL     1       2.839   4.278  18.816  0.00  0.00    +0.000 A 
BRANCH  30  33
ATOM     33  C   UNL     1       1.781   7.601  19.899  0.00  0.00    +0.000 C 
ATOM     34  C   UNL     1       1.235   8.242  20.949  0.00  0.00    +0.000 C 
ATOM     35  C   UNL     1       0.839   9.687  20.923  0.00  0.00    +0.000 C 
ATOM     36  N   UNL     1       1.330  10.425  19.757  0.00  0.00    +0.000 NA
ATOM     37  C   UNL     1       1.185   9.623  18.537  0.00  0.00    +0.000 C 
ATOM     38  C   UNL     1       2.023   8.335  18.605  0.00  0.00    +0.000 C 
ATOM     39  H   UNL     1       2.316  10.630  19.904  0.00  0.00    +0.000 HD
ENDBRANCH  30  33
ENDBRANCH  21  23
ENDBRANCH   7  21
TORSDOF 5
ENDMDL
MODEL 4
REMARK VINA RESULT:      -9.7      2.972     11.517
REMARK  Name = 
REMARK  9 active torsions:
REMARK  status: ('A' for Active; 'I' for Inactive)
REMARK    1  A    between atoms: C_1  and  C_2
REMARK    2  A    between atoms: C_5  and  C_6
REMARK    3  A    between atoms: C_11  and  C_12
REMARK    4  A    between atoms: C_12  and  C_13
REMARK    5  A    between atoms: C_12  and  C_14
REMARK    6  A    between atoms: C_12  and  C_15
REMARK    7  A    between atoms: C_19  and  N_20
REMARK    8  A    between atoms: N_20  and  C_21
REMARK    9  A    between atoms: C_28  and  C_29
REMARK                            x       y       z     vdW  Elec       q    Type
REMARK                         _______ _______ _______ _____ _____    ______ ____
ROOT
ATOM      1  C   UNL     1      -1.857  12.108  22.880  0.00  0.00    +0.000 C 
ATOM      2  C   UNL     1      -0.997  11.082  22.195  0.00  0.00    +0.000 A 
ATOM      3  C   UNL     1      -0.361  10.133  23.012  0.00  0.00    +0.000 A 
ATOM      4  C   UNL     1       0.410   9.113  22.459  0.00  0.00    +0.000 A 
ATOM      5  C   UNL     1       0.533   8.982  21.074  0.00  0.00    +0.000 A 
ATOM      6  C   UNL     1      -0.091   9.931  20.264  0.00  0.00    +0.000 A 
ATOM      7  C   UNL     1      -0.789  11.039  20.798  0.00  0.00    +0.000 A 
ENDROOT
BRANCH   5   8
ATOM      8  C   UNL     1       1.326   7.822  20.569  0.00  0.00    +0.000 C 
ATOM      9  O   UNL     1       1.193   6.762  21.176  0.00  0.00    +0.000 OA
ATOM     10  N   UNL     1       2.151   8.006  19.470  0.00  0.00    +0.000 N 
ATOM     11  C   UNL     1       2.912   6.976  18.934  0.00  0.00    +0.000 A 
ATOM     12  C   UNL     1       3.758   7.093  17.798  0.00  0.00    +0.000 A 
ATOM     13  C   UNL     1       4.299   5.836  17.626  0.00  0.00    +0.000 A 
ATOM     14  O   UNL     1       3.815   5.023  18.595  0.00  0.00    +0.000 OA
ATOM     15  N   UNL     1       2.959   5.727  19.401  0.00  0.00    +0.000 NA
ATOM     16  H   UNL     1       2.234   8.905  19.024  0.00  0.00    +0.000 HD
BRANCH  13  17
ATOM     17  C   UNL     1       5.245   5.189  16.645  0.00  0.00    +0.000 C 
ATOM     18  C   UNL     1       5.278   5.972  15.323  0.00  0.00    +0.000 C 
ATOM     19  C   UNL     1       6.668   5.158  17.238  0.00  0.00    +0.000 C 
ATOM     20  C   UNL     1       4.789   3.747  16.360  0.00  0.00    +0.000 C 
ENDBRANCH  13  17
ENDBRANCH   5   8
BRANCH   7  21
ATOM     21  N   UNL     1      -1.295  12.036  19.928  0.00  0.00    +0.000 N 
ATOM     22  H   UNL     1      -0.666  12.806  19.722  0.00  0.00    +0.000 HD
BRANCH  21  23
ATOM     23  C   UNL     1      -2.237  11.865  18.862  0.00  0.00    +0.000 A 
ATOM     24  N   UNL     1      -1.787  11.459  17.648  0.00  0.00    +0.000 NA
ATOM     25  C   UNL     1      -2.697  11.177  16.718  0.00  0.00    +0.000 A 
ATOM     26  N   UNL     1      -4.016  11.241  16.881  0.00  0.00    +0.000 NA
ATOM     27  C   UNL     1      -4.441  11.655  18.081  0.00  0.00    +0.000 A 
ATOM     28  C   UNL     1      -5.804  11.700  18.311  0.00  0.00    +0.000 A 
ATOM     29  C   UNL     1      -6.312  12.098  19.545  0.00  0.00    +0.000 A 
ATOM     30  C   UNL     1      -5.421  12.483  20.532  0.00  0.00    +0.000 A 
ATOM     31  N   UNL     1      -4.079  12.458  20.340  0.00  0.00    +0.000 NA
ATOM     32  C   UNL     1      -3.600  12.024  19.142  0.00  0.00    +0.000 A 
BRANCH  30  33
ATOM     33  C   UNL     1      -5.865  12.879  21.877  0.00  0.00    +0.000 C 
ATOM     34  C   UNL     1      -7.004  12.386  22.397  0.00  0.00    +0.000 C 
ATOM     35  C   UNL     1      -7.573  12.828  23.710  0.00  0.00    +0.000 C 
ATOM     36  N   UNL     1      -6.664  13.646  24.517  0.00  0.00    +0.000 NA
ATOM     37  C   UNL     1      -5.965  14.624  23.676  0.00  0.00    +0.000 C 
ATOM     38  C   UNL     1      -5.087  13.936  22.619  0.00  0.00    +0.000 C 
ATOM     39  H   UNL     1      -5.979  13.028  24.946  0.00  0.00    +0.000 HD
ENDBRANCH  30  33
ENDBRANCH  21  23
ENDBRANCH   7  21
TORSDOF 5
ENDMDL
MODEL 5
REMARK VINA RESULT:      -9.3      3.548     11.420
REMARK  Name = 
REMARK  9 active torsions:
REMARK  status: ('A' for Active; 'I' for Inactive)
REMARK    1  A    between atoms: C_1  and  C_2
REMARK    2  A    between atoms: C_5  and  C_6
REMARK    3  A    between atoms: C_11  and  C_12
REMARK    4  A    between atoms: C_12  and  C_13
REMARK    5  A    between atoms: C_12  and  C_14
REMARK    6  A    between atoms: C_12  and  C_15
REMARK    7  A    between atoms: C_19  and  N_20
REMARK    8  A    between atoms: N_20  and  C_21
REMARK    9  A    between atoms: C_28  and  C_29
REMARK                            x       y       z     vdW  Elec       q    Type
REMARK                         _______ _______ _______ _____ _____    ______ ____
ROOT
ATOM      1  C   UNL     1       0.186  14.016  19.012  0.00  0.00    +0.000 C 
ATOM      2  C   UNL     1       0.593  12.598  18.714  0.00  0.00    +0.000 A 
ATOM      3  C   UNL     1       1.923  12.385  18.317  0.00  0.00    +0.000 A 
ATOM      4  C   UNL     1       2.401  11.099  18.074  0.00  0.00    +0.000 A 
ATOM      5  C   UNL     1       1.581   9.985  18.265  0.00  0.00    +0.000 A 
ATOM      6  C   UNL     1       0.257  10.199  18.650  0.00  0.00    +0.000 A 
ATOM      7  C   UNL     1      -0.287  11.496  18.798  0.00  0.00    +0.000 A 
ENDROOT
BRANCH   5   8
ATOM      8  C   UNL     1       2.196   8.643  18.044  0.00  0.00    +0.000 C 
ATOM      9  O   UNL     1       2.981   8.548  17.103  0.00  0.00    +0.000 OA
ATOM     10  N   UNL     1       1.848   7.602  18.892  0.00  0.00    +0.000 N 
ATOM     11  C   UNL     1       2.384   6.327  18.759  0.00  0.00    +0.000 A 
ATOM     12  C   UNL     1       2.087   5.226  19.607  0.00  0.00    +0.000 A 
ATOM     13  C   UNL     1       2.842   4.182  19.111  0.00  0.00    +0.000 A 
ATOM     14  O   UNL     1       3.538   4.627  18.037  0.00  0.00    +0.000 OA
ATOM     15  N   UNL     1       3.254   5.950  17.821  0.00  0.00    +0.000 NA
ATOM     16  H   UNL     1       1.183   7.734  19.636  0.00  0.00    +0.000 HD
BRANCH  13  17
ATOM     17  C   UNL     1       3.069   2.739  19.485  0.00  0.00    +0.000 C 
ATOM     18  C   UNL     1       4.463   2.549  20.101  0.00  0.00    +0.000 C 
ATOM     19  C   UNL     1       2.008   2.294  20.511  0.00  0.00    +0.000 C 
ATOM     20  C   UNL     1       2.953   1.856  18.230  0.00  0.00    +0.000 C 
ENDBRANCH  13  17
ENDBRANCH   5   8
BRANCH   7  21
ATOM     21  N   UNL     1      -1.669  11.651  19.068  0.00  0.00    +0.000 N 
ATOM     22  H   UNL     1      -1.905  12.256  19.848  0.00  0.00    +0.000 HD
BRANCH  21  23
ATOM     23  C   UNL     1      -2.750  11.608  18.128  0.00  0.00    +0.000 A 
ATOM     24  N   UNL     1      -2.490  11.244  16.846  0.00  0.00    +0.000 NA
ATOM     25  C   UNL     1      -3.529  11.080  16.031  0.00  0.00    +0.000 A 
ATOM     26  N   UNL     1      -4.808  11.224  16.369  0.00  0.00    +0.000 NA
ATOM     27  C   UNL     1      -5.044  11.595  17.633  0.00  0.00    +0.000 A 
ATOM     28  C   UNL     1      -6.360  11.719  18.042  0.00  0.00    +0.000 A 
ATOM     29  C   UNL     1      -6.676  12.077  19.350  0.00  0.00    +0.000 A 
ATOM     30  C   UNL     1      -5.640  12.341  20.229  0.00  0.00    +0.000 A 
ATOM     31  N   UNL     1      -4.339  12.237  19.862  0.00  0.00    +0.000 NA
ATOM     32  C   UNL     1      -4.050  11.842  18.592  0.00  0.00    +0.000 A 
BRANCH  30  33
ATOM     33  C   UNL     1      -5.878  12.686  21.638  0.00  0.00    +0.000 C 
ATOM     34  C   UNL     1      -4.852  12.992  22.454  0.00  0.00    +0.000 C 
ATOM     35  C   UNL     1      -5.009  13.244  23.923  0.00  0.00    +0.000 C 
ATOM     36  N   UNL     1      -6.398  13.394  24.363  0.00  0.00    +0.000 NA
ATOM     37  C   UNL     1      -7.258  12.399  23.714  0.00  0.00    +0.000 C 
ATOM     38  C   UNL     1      -7.278  12.578  22.188  0.00  0.00    +0.000 C 
ATOM     39  H   UNL     1      -6.714  14.326  24.102  0.00  0.00    +0.000 HD
ENDBRANCH  30  33
ENDBRANCH  21  23
ENDBRANCH   7  21
TORSDOF 5
ENDMDL
MODEL 6
REMARK VINA RESULT:      -9.0      1.172      1.662
REMARK  Name = 
REMARK  9 active torsions:
REMARK  status: ('A' for Active; 'I' for Inactive)
REMARK    1  A    between atoms: C_1  and  C_2
REMARK    2  A    between atoms: C_5  and  C_6
REMARK    3  A    between atoms: C_11  and  C_12
REMARK    4  A    between atoms: C_12  and  C_13
REMARK    5  A    between atoms: C_12  and  C_14
REMARK    6  A    between atoms: C_12  and  C_15
REMARK    7  A    between atoms: C_19  and  N_20
REMARK    8  A    between atoms: N_20  and  C_21
REMARK    9  A    between atoms: C_28  and  C_29
REMARK                            x       y       z     vdW  Elec       q    Type
REMARK                         _______ _______ _______ _____ _____    ______ ____
ROOT
ATOM      1  C   UNL     1       3.889   7.432  17.438  0.00  0.00    +0.000 C 
ATOM      2  C   UNL     1       2.788   8.171  18.148  0.00  0.00    +0.000 A 
ATOM      3  C   UNL     1       2.352   9.376  17.572  0.00  0.00    +0.000 A 
ATOM      4  C   UNL     1       1.301  10.099  18.130  0.00  0.00    +0.000 A 
ATOM      5  C   UNL     1       0.622   9.619  19.252  0.00  0.00    +0.000 A 
ATOM      6  C   UNL     1       1.062   8.428  19.829  0.00  0.00    +0.000 A 
ATOM      7  C   UNL     1       2.194   7.729  19.350  0.00  0.00    +0.000 A 
ENDROOT
BRANCH   5   8
ATOM      8  C   UNL     1      -0.533  10.426  19.745  0.00  0.00    +0.000 C 
ATOM      9  O   UNL     1      -1.466  10.583  18.960  0.00  0.00    +0.000 OA
ATOM     10  N   UNL     1      -0.485  10.946  21.030  0.00  0.00    +0.000 N 
ATOM     11  C   UNL     1      -1.523  11.698  21.564  0.00  0.00    +0.000 A 
ATOM     12  C   UNL     1      -1.545  12.238  22.879  0.00  0.00    +0.000 A 
ATOM     13  C   UNL     1      -2.756  12.892  22.975  0.00  0.00    +0.000 A 
ATOM     14  O   UNL     1      -3.412  12.757  21.796  0.00  0.00    +0.000 OA
ATOM     15  N   UNL     1      -2.650  12.021  20.928  0.00  0.00    +0.000 NA
ATOM     16  H   UNL     1       0.316  10.801  21.622  0.00  0.00    +0.000 HD
BRANCH  13  17
ATOM     17  C   UNL     1      -3.486  13.667  24.042  0.00  0.00    +0.000 C 
ATOM     18  C   UNL     1      -4.513  14.623  23.416  0.00  0.00    +0.000 C 
ATOM     19  C   UNL     1      -4.224  12.691  24.981  0.00  0.00    +0.000 C 
ATOM     20  C   UNL     1      -2.478  14.488  24.866  0.00  0.00    +0.000 C 
ENDBRANCH  13  17
ENDBRANCH   5   8
BRANCH   7  21
ATOM     21  N   UNL     1       2.667   6.593  20.054  0.00  0.00    +0.000 N 
ATOM     22  H   UNL     1       3.059   6.771  20.973  0.00  0.00    +0.000 HD
BRANCH  21  23
ATOM     23  C   UNL     1       2.170   5.251  19.976  0.00  0.00    +0.000 A 
ATOM     24  N   UNL     1       1.115   4.897  20.753  0.00  0.00    +0.000 NA
ATOM     25  C   UNL     1       0.589   3.689  20.562  0.00  0.00    +0.000 A 
ATOM     26  N   UNL     1       0.996   2.802  19.657  0.00  0.00    +0.000 NA
ATOM     27  C   UNL     1       2.045   3.165  18.908  0.00  0.00    +0.000 A 
ATOM     28  C   UNL     1       2.479   2.291  17.927  0.00  0.00    +0.000 A 
ATOM     29  C   UNL     1       3.549   2.617  17.097  0.00  0.00    +0.000 A 
ATOM     30  C   UNL     1       4.194   3.825  17.297  0.00  0.00    +0.000 A 
ATOM     31  N   UNL     1       3.801   4.703  18.252  0.00  0.00    +0.000 NA
ATOM     32  C   UNL     1       2.725   4.386  19.025  0.00  0.00    +0.000 A 
BRANCH  30  33
ATOM     33  C   UNL     1       5.306   4.269  16.443  0.00  0.00    +0.000 C 
ATOM     34  C   UNL     1       5.290   4.036  15.117  0.00  0.00    +0.000 C 
ATOM     35  C   UNL     1       6.434   4.360  14.206  0.00  0.00    +0.000 C 
ATOM     36  N   UNL     1       7.473   5.193  14.816  0.00  0.00    +0.000 NA
ATOM     37  C   UNL     1       7.755   4.748  16.186  0.00  0.00    +0.000 C 
ATOM     38  C   UNL     1       6.520   4.886  17.090  0.00  0.00    +0.000 C 
ATOM     39  H   UNL     1       7.136   6.153  14.842  0.00  0.00    +0.000 HD
ENDBRANCH  30  33
ENDBRANCH  21  23
ENDBRANCH   7  21
TORSDOF 5
ENDMDL
MODEL 7
REMARK VINA RESULT:      -8.9      1.161      1.279
REMARK  Name = 
REMARK  9 active torsions:
REMARK  status: ('A' for Active; 'I' for Inactive)
REMARK    1  A    between atoms: C_1  and  C_2
REMARK    2  A    between atoms: C_5  and  C_6
REMARK    3  A    between atoms: C_11  and  C_12
REMARK    4  A    between atoms: C_12  and  C_13
REMARK    5  A    between atoms: C_12  and  C_14
REMARK    6  A    between atoms: C_12  and  C_15
REMARK    7  A    between atoms: C_19  and  N_20
REMARK    8  A    between atoms: N_20  and  C_21
REMARK    9  A    between atoms: C_28  and  C_29
REMARK                            x       y       z     vdW  Elec       q    Type
REMARK                         _______ _______ _______ _____ _____    ______ ____
ROOT
ATOM      1  C   UNL     1       3.836   7.357  17.401  0.00  0.00    +0.000 C 
ATOM      2  C   UNL     1       2.751   8.124  18.107  0.00  0.00    +0.000 A 
ATOM      3  C   UNL     1       2.308   9.310  17.500  0.00  0.00    +0.000 A 
ATOM      4  C   UNL     1       1.270  10.055  18.054  0.00  0.00    +0.000 A 
ATOM      5  C   UNL     1       0.612   9.616  19.205  0.00  0.00    +0.000 A 
ATOM      6  C   UNL     1       1.060   8.443  19.813  0.00  0.00    +0.000 A 
ATOM      7  C   UNL     1       2.180   7.725  19.335  0.00  0.00    +0.000 A 
ENDROOT
BRANCH   5   8
ATOM      8  C   UNL     1      -0.531  10.444  19.692  0.00  0.00    +0.000 C 
ATOM      9  O   UNL     1      -1.426  10.674  18.882  0.00  0.00    +0.000 OA
ATOM     10  N   UNL     1      -0.514  10.899  21.002  0.00  0.00    +0.000 N 
ATOM     11  C   UNL     1      -1.544  11.665  21.534  0.00  0.00    +0.000 A 
ATOM     12  C   UNL     1      -1.598  12.142  22.871  0.00  0.00    +0.000 A 
ATOM     13  C   UNL     1      -2.786  12.838  22.953  0.00  0.00    +0.000 A 
ATOM     14  O   UNL     1      -3.399  12.786  21.746  0.00  0.00    +0.000 OA
ATOM     15  N   UNL     1      -2.632  12.062  20.872  0.00  0.00    +0.000 NA
ATOM     16  H   UNL     1       0.257  10.695  21.616  0.00  0.00    +0.000 HD
BRANCH  13  17
ATOM     17  C   UNL     1      -3.528  13.590  24.030  0.00  0.00    +0.000 C 
ATOM     18  C   UNL     1      -2.561  14.446  24.862  0.00  0.00    +0.000 C 
ATOM     19  C   UNL     1      -4.580  14.515  23.386  0.00  0.00    +0.000 C 
ATOM     20  C   UNL     1      -4.240  12.593  24.960  0.00  0.00    +0.000 C 
ENDBRANCH  13  17
ENDBRANCH   5   8
BRANCH   7  21
ATOM     21  N   UNL     1       2.664   6.612  20.067  0.00  0.00    +0.000 N 
ATOM     22  H   UNL     1       3.035   6.814  20.991  0.00  0.00    +0.000 HD
BRANCH  21  23
ATOM     23  C   UNL     1       2.196   5.259  20.005  0.00  0.00    +0.000 A 
ATOM     24  N   UNL     1       1.118   4.903  20.749  0.00  0.00    +0.000 NA
ATOM     25  C   UNL     1       0.623   3.680  20.569  0.00  0.00    +0.000 A 
ATOM     26  N   UNL     1       1.083   2.779  19.704  0.00  0.00    +0.000 NA
ATOM     27  C   UNL     1       2.153   3.144  18.988  0.00  0.00    +0.000 A 
ATOM     28  C   UNL     1       2.643   2.254  18.048  0.00  0.00    +0.000 A 
ATOM     29  C   UNL     1       3.738   2.581  17.252  0.00  0.00    +0.000 A 
ATOM     30  C   UNL     1       4.352   3.806  17.446  0.00  0.00    +0.000 A 
ATOM     31  N   UNL     1       3.904   4.700  18.362  0.00  0.00    +0.000 NA
ATOM     32  C   UNL     1       2.804   4.381  19.099  0.00  0.00    +0.000 A 
BRANCH  30  33
ATOM     33  C   UNL     1       5.488   4.251  16.625  0.00  0.00    +0.000 C 
ATOM     34  C   UNL     1       6.447   5.038  17.148  0.00  0.00    +0.000 C 
ATOM     35  C   UNL     1       7.570   5.618  16.344  0.00  0.00    +0.000 C 
ATOM     36  N   UNL     1       7.702   5.054  14.998  0.00  0.00    +0.000 NA
ATOM     37  C   UNL     1       6.385   4.895  14.372  0.00  0.00    +0.000 C 
ATOM     38  C   UNL     1       5.502   3.911  15.156  0.00  0.00    +0.000 C 
ATOM     39  H   UNL     1       8.144   4.141  15.079  0.00  0.00    +0.000 HD
ENDBRANCH  30  33
ENDBRANCH  21  23
ENDBRANCH   7  21
TORSDOF 5
ENDMDL
MODEL 8
REMARK VINA RESULT:      -8.9      3.529     11.429
REMARK  Name = 
REMARK  9 active torsions:
REMARK  status: ('A' for Active; 'I' for Inactive)
REMARK    1  A    between atoms: C_1  and  C_2
REMARK    2  A    between atoms: C_5  and  C_6
REMARK    3  A    between atoms: C_11  and  C_12
REMARK    4  A    between atoms: C_12  and  C_13
REMARK    5  A    between atoms: C_12  and  C_14
REMARK    6  A    between atoms: C_12  and  C_15
REMARK    7  A    between atoms: C_19  and  N_20
REMARK    8  A    between atoms: N_20  and  C_21
REMARK    9  A    between atoms: C_28  and  C_29
REMARK                            x       y       z     vdW  Elec       q    Type
REMARK                         _______ _______ _______ _____ _____    ______ ____
ROOT
ATOM      1  C   UNL     1       0.371  14.020  18.997  0.00  0.00    +0.000 C 
ATOM      2  C   UNL     1       0.724  12.592  18.680  0.00  0.00    +0.000 A 
ATOM      3  C   UNL     1       2.045  12.333  18.281  0.00  0.00    +0.000 A 
ATOM      4  C   UNL     1       2.474  11.034  18.021  0.00  0.00    +0.000 A 
ATOM      5  C   UNL     1       1.612   9.949  18.195  0.00  0.00    +0.000 A 
ATOM      6  C   UNL     1       0.297  10.208  18.582  0.00  0.00    +0.000 A 
ATOM      7  C   UNL     1      -0.197  11.523  18.747  0.00  0.00    +0.000 A 
ENDROOT
BRANCH   5   8
ATOM      8  C   UNL     1       2.175   8.588  17.956  0.00  0.00    +0.000 C 
ATOM      9  O   UNL     1       2.908   8.462  16.978  0.00  0.00    +0.000 OA
ATOM     10  N   UNL     1       1.840   7.564  18.830  0.00  0.00    +0.000 N 
ATOM     11  C   UNL     1       2.330   6.273  18.681  0.00  0.00    +0.000 A 
ATOM     12  C   UNL     1       2.045   5.188  19.553  0.00  0.00    +0.000 A 
ATOM     13  C   UNL     1       2.742   4.118  19.031  0.00  0.00    +0.000 A 
ATOM     14  O   UNL     1       3.396   4.534  17.919  0.00  0.00    +0.000 OA
ATOM     15  N   UNL     1       3.142   5.862  17.705  0.00  0.00    +0.000 NA
ATOM     16  H   UNL     1       1.217   7.722  19.605  0.00  0.00    +0.000 HD
BRANCH  13  17
ATOM     17  C   UNL     1       2.946   2.672  19.405  0.00  0.00    +0.000 C 
ATOM     18  C   UNL     1       3.571   1.890  18.240  0.00  0.00    +0.000 C 
ATOM     19  C   UNL     1       3.884   2.578  20.625  0.00  0.00    +0.000 C 
ATOM     20  C   UNL     1       1.592   2.035  19.765  0.00  0.00    +0.000 C 
ENDBRANCH  13  17
ENDBRANCH   5   8
BRANCH   7  21
ATOM     21  N   UNL     1      -1.573  11.727  19.018  0.00  0.00    +0.000 N 
ATOM     22  H   UNL     1      -1.788  12.404  19.744  0.00  0.00    +0.000 HD
BRANCH  21  23
ATOM     23  C   UNL     1      -2.667  11.620  18.098  0.00  0.00    +0.000 A 
ATOM     24  N   UNL     1      -2.414  11.235  16.821  0.00  0.00    +0.000 NA
ATOM     25  C   UNL     1      -3.459  11.013  16.028  0.00  0.00    +0.000 A 
ATOM     26  N   UNL     1      -4.737  11.116  16.384  0.00  0.00    +0.000 NA
ATOM     27  C   UNL     1      -4.967  11.508  17.644  0.00  0.00    +0.000 A 
ATOM     28  C   UNL     1      -6.280  11.591  18.072  0.00  0.00    +0.000 A 
ATOM     29  C   UNL     1      -6.587  11.969  19.376  0.00  0.00    +0.000 A 
ATOM     30  C   UNL     1      -5.548  12.294  20.231  0.00  0.00    +0.000 A 
ATOM     31  N   UNL     1      -4.250  12.230  19.845  0.00  0.00    +0.000 NA
ATOM     32  C   UNL     1      -3.967  11.816  18.579  0.00  0.00    +0.000 A 
BRANCH  30  33
ATOM     33  C   UNL     1      -5.777  12.664  21.636  0.00  0.00    +0.000 C 
ATOM     34  C   UNL     1      -6.887  12.261  22.281  0.00  0.00    +0.000 C 
ATOM     35  C   UNL     1      -7.238  12.690  23.672  0.00  0.00    +0.000 C 
ATOM     36  N   UNL     1      -6.155  13.373  24.383  0.00  0.00    +0.000 NA
ATOM     37  C   UNL     1      -5.468  14.318  23.497  0.00  0.00    +0.000 C 
ATOM     38  C   UNL     1      -4.806  13.600  22.309  0.00  0.00    +0.000 C 
ATOM     39  H   UNL     1      -5.489  12.670  24.698  0.00  0.00    +0.000 HD
ENDBRANCH  30  33
ENDBRANCH  21  23
ENDBRANCH   7  21
TORSDOF 5
ENDMDL
MODEL 9
REMARK VINA RESULT:      -8.8      3.730     10.471
REMARK  Name = 
REMARK  9 active torsions:
REMARK  status: ('A' for Active; 'I' for Inactive)
REMARK    1  A    between atoms: C_1  and  C_2
REMARK    2  A    between atoms: C_5  and  C_6
REMARK    3  A    between atoms: C_11  and  C_12
REMARK    4  A    between atoms: C_12  and  C_13
REMARK    5  A    between atoms: C_12  and  C_14
REMARK    6  A    between atoms: C_12  and  C_15
REMARK    7  A    between atoms: C_19  and  N_20
REMARK    8  A    between atoms: N_20  and  C_21
REMARK    9  A    between atoms: C_28  and  C_29
REMARK                            x       y       z     vdW  Elec       q    Type
REMARK                         _______ _______ _______ _____ _____    ______ ____
ROOT
ATOM      1  C   UNL     1      -3.423  12.956  24.179  0.00  0.00    +0.000 C 
ATOM      2  C   UNL     1      -2.537  12.482  23.060  0.00  0.00    +0.000 A 
ATOM      3  C   UNL     1      -1.536  11.552  23.388  0.00  0.00    +0.000 A 
ATOM      4  C   UNL     1      -0.705  11.018  22.406  0.00  0.00    +0.000 A 
ATOM      5  C   UNL     1      -0.876  11.358  21.063  0.00  0.00    +0.000 A 
ATOM      6  C   UNL     1      -1.864  12.289  20.740  0.00  0.00    +0.000 A 
ATOM      7  C   UNL     1      -2.650  12.930  21.726  0.00  0.00    +0.000 A 
ENDROOT
BRANCH   5   8
ATOM      8  C   UNL     1       0.017  10.688  20.072  0.00  0.00    +0.000 C 
ATOM      9  O   UNL     1       0.242  11.304  19.033  0.00  0.00    +0.000 OA
ATOM     10  N   UNL     1       0.527   9.434  20.374  0.00  0.00    +0.000 N 
ATOM     11  C   UNL     1       1.372   8.750  19.511  0.00  0.00    +0.000 A 
ATOM     12  C   UNL     1       1.946   7.476  19.771  0.00  0.00    +0.000 A 
ATOM     13  C   UNL     1       2.710   7.196  18.657  0.00  0.00    +0.000 A 
ATOM     14  O   UNL     1       2.598   8.229  17.788  0.00  0.00    +0.000 OA
ATOM     15  N   UNL     1       1.773   9.187  18.315  0.00  0.00    +0.000 NA
ATOM     16  H   UNL     1       0.292   8.969  21.236  0.00  0.00    +0.000 HD
BRANCH  13  17
ATOM     17  C   UNL     1       3.610   6.068  18.217  0.00  0.00    +0.000 C 
ATOM     18  C   UNL     1       4.583   6.541  17.127  0.00  0.00    +0.000 C 
ATOM     19  C   UNL     1       4.424   5.553  19.421  0.00  0.00    +0.000 C 
ATOM     20  C   UNL     1       2.758   4.914  17.660  0.00  0.00    +0.000 C 
ENDBRANCH  13  17
ENDBRANCH   5   8
BRANCH   7  21
ATOM     21  N   UNL     1      -3.550  13.957  21.347  0.00  0.00    +0.000 N 
ATOM     22  H   UNL     1      -3.166  14.690  20.759  0.00  0.00    +0.000 HD
BRANCH  21  23
ATOM     23  C   UNL     1      -4.963  13.844  21.141  0.00  0.00    +0.000 A 
ATOM     24  N   UNL     1      -5.800  14.559  21.936  0.00  0.00    +0.000 NA
ATOM     25  C   UNL     1      -7.097  14.542  21.636  0.00  0.00    +0.000 A 
ATOM     26  N   UNL     1      -7.645  13.898  20.608  0.00  0.00    +0.000 NA
ATOM     27  C   UNL     1      -6.806  13.189  19.843  0.00  0.00    +0.000 A 
ATOM     28  C   UNL     1      -7.324  12.535  18.739  0.00  0.00    +0.000 A 
ATOM     29  C   UNL     1      -6.502  11.800  17.889  0.00  0.00    +0.000 A 
ATOM     30  C   UNL     1      -5.154  11.710  18.190  0.00  0.00    +0.000 A 
ATOM     31  N   UNL     1      -4.612  12.332  19.266  0.00  0.00    +0.000 NA
ATOM     32  C   UNL     1      -5.424  13.082  20.061  0.00  0.00    +0.000 A 
BRANCH  30  33
ATOM     33  C   UNL     1      -4.205  10.991  17.326  0.00  0.00    +0.000 C 
ATOM     34  C   UNL     1      -3.106  10.412  17.845  0.00  0.00    +0.000 C 
ATOM     35  C   UNL     1      -2.043   9.761  17.014  0.00  0.00    +0.000 C 
ATOM     36  N   UNL     1      -2.412   9.564  15.610  0.00  0.00    +0.000 NA
ATOM     37  C   UNL     1      -3.103  10.747  15.086  0.00  0.00    +0.000 C 
ATOM     38  C   UNL     1      -4.419  11.011  15.834  0.00  0.00    +0.000 C 
ATOM     39  H   UNL     1      -3.038   8.763  15.556  0.00  0.00    +0.000 HD
ENDBRANCH  30  33
ENDBRANCH  21  23
ENDBRANCH   7  21
TORSDOF 5
ENDMDL
