MODEL 1
REMARK VINA RESULT:      -6.2      0.000      0.000
REMARK  Name = 
REMARK  7 active torsions:
REMARK  status: ('A' for Active; 'I' for Inactive)
REMARK    1  A    between atoms: C_1  and  C_2
REMARK    2  A    between atoms: N_4  and  C_5
REMARK    3  A    between atoms: C_7  and  C_8
REMARK    4  A    between atoms: C_8  and  O_9
REMARK    5  A    between atoms: C_10  and  O_11
REMARK    6  A    between atoms: C_12  and  O_13
REMARK    7  A    between atoms: C_14  and  O_15
REMARK                            x       y       z     vdW  Elec       q    Type
REMARK                         _______ _______ _______ _____ _____    ______ ____
ROOT
ATOM      1  C   UNL     1       4.449   5.088  17.716  0.00  0.00    +0.000 C 
ATOM      2  C   UNL     1       4.974   4.586  16.354  0.00  0.00    +0.000 C 
ATOM      3  C   UNL     1       6.155   5.448  15.860  0.00  0.00    +0.000 C 
ATOM      4  C   UNL     1       7.294   5.440  16.893  0.00  0.00    +0.000 C 
ATOM      5  C   UNL     1       6.784   5.955  18.255  0.00  0.00    +0.000 C 
ATOM      6  C   UNL     1       5.597   5.108  18.764  0.00  0.00    +0.000 C 
ENDROOT
BRANCH   1  10
ATOM      7  C   UNL     1       2.345   8.259  17.855  0.00  0.00    +0.000 C 
ATOM      8  C   UNL     1       2.852   6.924  18.329  0.00  0.00    +0.000 C 
ATOM      9  O   UNL     1       2.447   6.379  19.345  0.00  0.00    +0.000 OA
ATOM     10  N   UNL     1       3.818   6.397  17.497  0.00  0.00    +0.000 N 
ATOM     11  H   UNL     1       3.799   6.743  16.546  0.00  0.00    +0.000 HD
ENDBRANCH   1  10
BRANCH   4  12
ATOM     12  O   UNL     1       7.779   4.095  17.066  0.00  0.00    +0.000 OA
ATOM     13  H   UNL     1       8.532   4.152  17.683  0.00  0.00    +0.000 HD
ENDBRANCH   4  12
BRANCH   5  14
ATOM     14  O   UNL     1       7.861   5.927  19.197  0.00  0.00    +0.000 OA
ATOM     15  H   UNL     1       7.512   5.476  19.989  0.00  0.00    +0.000 HD
ENDBRANCH   5  14
BRANCH   6  16
ATOM     16  O   UNL     1       6.027   3.757  19.038  0.00  0.00    +0.000 OA
ATOM     17  H   UNL     1       6.335   3.731  19.969  0.00  0.00    +0.000 HD
ENDBRANCH   6  16
BRANCH   3  18
ATOM     18  C   UNL     1       6.609   4.995  14.473  0.00  0.00    +0.000 C 
BRANCH  18  19
ATOM     19  O   UNL     1       7.932   5.450  14.221  0.00  0.00    +0.000 OA
ATOM     20  H   UNL     1       7.878   6.354  13.865  0.00  0.00    +0.000 HD
ENDBRANCH  18  19
ENDBRANCH   3  18
TORSDOF 6
ENDMDL
MODEL 2
REMARK VINA RESULT:      -6.1      2.124      3.894
REMARK  Name = 
REMARK  7 active torsions:
REMARK  status: ('A' for Active; 'I' for Inactive)
REMARK    1  A    between atoms: C_1  and  C_2
REMARK    2  A    between atoms: N_4  and  C_5
REMARK    3  A    between atoms: C_7  and  C_8
REMARK    4  A    between atoms: C_8  and  O_9
REMARK    5  A    between atoms: C_10  and  O_11
REMARK    6  A    between atoms: C_12  and  O_13
REMARK    7  A    between atoms: C_14  and  O_15
REMARK                            x       y       z     vdW  Elec       q    Type
REMARK                         _______ _______ _______ _____ _____    ______ ____
ROOT
ATOM      1  C   UNL     1       4.564   5.081  17.239  0.00  0.00    +0.000 C 
ATOM      2  C   UNL     1       5.498   5.847  18.200  0.00  0.00    +0.000 C 
ATOM      3  C   UNL     1       6.924   5.256  18.181  0.00  0.00    +0.000 C 
ATOM      4  C   UNL     1       7.500   5.291  16.756  0.00  0.00    +0.000 C 
ATOM      5  C   UNL     1       6.581   4.514  15.790  0.00  0.00    +0.000 C 
ATOM      6  C   UNL     1       5.148   5.087  15.799  0.00  0.00    +0.000 C 
ENDROOT
BRANCH   1  10
ATOM      7  C   UNL     1       3.221   1.698  18.361  0.00  0.00    +0.000 C 
ATOM      8  C   UNL     1       3.179   3.033  17.668  0.00  0.00    +0.000 C 
ATOM      9  O   UNL     1       2.200   3.436  17.056  0.00  0.00    +0.000 OA
ATOM     10  N   UNL     1       4.359   3.736  17.794  0.00  0.00    +0.000 N 
ATOM     11  H   UNL     1       4.927   3.477  18.591  0.00  0.00    +0.000 HD
ENDBRANCH   1  10
BRANCH   4  12
ATOM     12  O   UNL     1       7.587   6.656  16.304  0.00  0.00    +0.000 OA
ATOM     13  H   UNL     1       8.528   6.817  16.100  0.00  0.00    +0.000 HD
ENDBRANCH   4  12
BRANCH   5  14
ATOM     14  O   UNL     1       7.137   4.571  14.472  0.00  0.00    +0.000 OA
ATOM     15  H   UNL     1       6.570   5.187  13.969  0.00  0.00    +0.000 HD
ENDBRANCH   5  14
BRANCH   6  16
ATOM     16  O   UNL     1       5.143   6.435  15.280  0.00  0.00    +0.000 OA
ATOM     17  H   UNL     1       4.881   7.030  16.015  0.00  0.00    +0.000 HD
ENDBRANCH   6  16
BRANCH   3  18
ATOM     18  C   UNL     1       7.816   5.968  19.198  0.00  0.00    +0.000 C 
BRANCH  18  19
ATOM     19  O   UNL     1       7.770   5.289  20.446  0.00  0.00    +0.000 OA
ATOM     20  H   UNL     1       6.836   5.128  20.668  0.00  0.00    +0.000 HD
ENDBRANCH  18  19
ENDBRANCH   3  18
TORSDOF 6
ENDMDL
MODEL 3
REMARK VINA RESULT:      -5.9      1.558      4.592
REMARK  Name = 
REMARK  7 active torsions:
REMARK  status: ('A' for Active; 'I' for Inactive)
REMARK    1  A    between atoms: C_1  and  C_2
REMARK    2  A    between atoms: N_4  and  C_5
REMARK    3  A    between atoms: C_7  and  C_8
REMARK    4  A    between atoms: C_8  and  O_9
REMARK    5  A    between atoms: C_10  and  O_11
REMARK    6  A    between atoms: C_12  and  O_13
REMARK    7  A    between atoms: C_14  and  O_15
REMARK                            x       y       z     vdW  Elec       q    Type
REMARK                         _______ _______ _______ _____ _____    ______ ____
ROOT
ATOM      1  C   UNL     1       5.948   5.432  17.230  0.00  0.00    +0.000 C 
ATOM      2  C   UNL     1       4.733   6.350  17.487  0.00  0.00    +0.000 C 
ATOM      3  C   UNL     1       3.457   5.524  17.755  0.00  0.00    +0.000 C 
ATOM      4  C   UNL     1       3.667   4.588  18.957  0.00  0.00    +0.000 C 
ATOM      5  C   UNL     1       4.870   3.655  18.704  0.00  0.00    +0.000 C 
ATOM      6  C   UNL     1       6.156   4.464  18.428  0.00  0.00    +0.000 C 
ENDROOT
BRANCH   1  10
ATOM      7  C   UNL     1       6.150   4.051  13.687  0.00  0.00    +0.000 C 
ATOM      8  C   UNL     1       6.633   4.796  14.901  0.00  0.00    +0.000 C 
ATOM      9  O   UNL     1       7.712   5.367  14.947  0.00  0.00    +0.000 OA
ATOM     10  N   UNL     1       5.731   4.754  15.945  0.00  0.00    +0.000 N 
ATOM     11  H   UNL     1       4.772   4.581  15.673  0.00  0.00    +0.000 HD
ENDBRANCH   1  10
BRANCH   4  12
ATOM     12  O   UNL     1       3.936   5.370  20.136  0.00  0.00    +0.000 OA
ATOM     13  H   UNL     1       4.860   5.179  20.387  0.00  0.00    +0.000 HD
ENDBRANCH   4  12
BRANCH   5  14
ATOM     14  O   UNL     1       5.046   2.804  19.841  0.00  0.00    +0.000 OA
ATOM     15  H   UNL     1       6.006   2.632  19.900  0.00  0.00    +0.000 HD
ENDBRANCH   5  14
BRANCH   6  16
ATOM     16  O   UNL     1       6.536   5.217  19.599  0.00  0.00    +0.000 OA
ATOM     17  H   UNL     1       6.418   4.629  20.376  0.00  0.00    +0.000 HD
ENDBRANCH   6  16
BRANCH   3  18
ATOM     18  C   UNL     1       2.247   6.441  17.922  0.00  0.00    +0.000 C 
BRANCH  18  19
ATOM     19  O   UNL     1       2.582   7.543  18.755  0.00  0.00    +0.000 OA
ATOM     20  H   UNL     1       3.221   7.236  19.421  0.00  0.00    +0.000 HD
ENDBRANCH  18  19
ENDBRANCH   3  18
TORSDOF 6
ENDMDL
MODEL 4
REMARK VINA RESULT:      -5.9      2.161      5.161
REMARK  Name = 
REMARK  7 active torsions:
REMARK  status: ('A' for Active; 'I' for Inactive)
REMARK    1  A    between atoms: C_1  and  C_2
REMARK    2  A    between atoms: N_4  and  C_5
REMARK    3  A    between atoms: C_7  and  C_8
REMARK    4  A    between atoms: C_8  and  O_9
REMARK    5  A    between atoms: C_10  and  O_11
REMARK    6  A    between atoms: C_12  and  O_13
REMARK    7  A    between atoms: C_14  and  O_15
REMARK                            x       y       z     vdW  Elec       q    Type
REMARK                         _______ _______ _______ _____ _____    ______ ____
ROOT
ATOM      1  C   UNL     1       5.089   3.890  18.247  0.00  0.00    +0.000 C 
ATOM      2  C   UNL     1       4.469   5.192  18.797  0.00  0.00    +0.000 C 
ATOM      3  C   UNL     1       3.147   5.529  18.074  0.00  0.00    +0.000 C 
ATOM      4  C   UNL     1       2.145   4.372  18.221  0.00  0.00    +0.000 C 
ATOM      5  C   UNL     1       2.750   3.068  17.660  0.00  0.00    +0.000 C 
ATOM      6  C   UNL     1       4.076   2.717  18.368  0.00  0.00    +0.000 C 
ENDROOT
BRANCH   1  10
ATOM      7  C   UNL     1       7.020   4.721  15.071  0.00  0.00    +0.000 C 
ATOM      8  C   UNL     1       6.840   4.458  16.542  0.00  0.00    +0.000 C 
ATOM      9  O   UNL     1       7.760   4.506  17.346  0.00  0.00    +0.000 OA
ATOM     10  N   UNL     1       5.536   4.154  16.872  0.00  0.00    +0.000 N 
ATOM     11  H   UNL     1       4.840   4.494  16.221  0.00  0.00    +0.000 HD
ENDBRANCH   1  10
BRANCH   4  12
ATOM     12  O   UNL     1       1.842   4.172  19.615  0.00  0.00    +0.000 OA
ATOM     13  H   UNL     1       2.197   3.293  19.849  0.00  0.00    +0.000 HD
ENDBRANCH   4  12
BRANCH   5  14
ATOM     14  O   UNL     1       1.800   2.009  17.819  0.00  0.00    +0.000 OA
ATOM     15  H   UNL     1       1.220   2.050  17.034  0.00  0.00    +0.000 HD
ENDBRANCH   5  14
BRANCH   6  16
ATOM     16  O   UNL     1       3.840   2.422  19.761  0.00  0.00    +0.000 OA
ATOM     17  H   UNL     1       2.872   2.304  19.875  0.00  0.00    +0.000 HD
ENDBRANCH   6  16
BRANCH   3  18
ATOM     18  C   UNL     1       2.588   6.863  18.567  0.00  0.00    +0.000 C 
BRANCH  18  19
ATOM     19  O   UNL     1       2.614   6.907  19.987  0.00  0.00    +0.000 OA
ATOM     20  H   UNL     1       1.882   7.476  20.285  0.00  0.00    +0.000 HD
ENDBRANCH  18  19
ENDBRANCH   3  18
TORSDOF 6
ENDMDL
MODEL 5
REMARK VINA RESULT:      -5.9      2.217      4.048
REMARK  Name = 
REMARK  7 active torsions:
REMARK  status: ('A' for Active; 'I' for Inactive)
REMARK    1  A    between atoms: C_1  and  C_2
REMARK    2  A    between atoms: N_4  and  C_5
REMARK    3  A    between atoms: C_7  and  C_8
REMARK    4  A    between atoms: C_8  and  O_9
REMARK    5  A    between atoms: C_10  and  O_11
REMARK    6  A    between atoms: C_12  and  O_13
REMARK    7  A    between atoms: C_14  and  O_15
REMARK                            x       y       z     vdW  Elec       q    Type
REMARK                         _______ _______ _______ _____ _____    ______ ____
ROOT
ATOM      1  C   UNL     1       3.981   5.460  19.022  0.00  0.00    +0.000 C 
ATOM      2  C   UNL     1       2.885   4.440  19.397  0.00  0.00    +0.000 C 
ATOM      3  C   UNL     1       2.355   3.706  18.147  0.00  0.00    +0.000 C 
ATOM      4  C   UNL     1       3.505   2.991  17.418  0.00  0.00    +0.000 C 
ATOM      5  C   UNL     1       4.599   4.005  17.024  0.00  0.00    +0.000 C 
ATOM      6  C   UNL     1       5.139   4.755  18.262  0.00  0.00    +0.000 C 
ENDROOT
BRANCH   1  10
ATOM      7  C   UNL     1       1.950   8.452  17.828  0.00  0.00    +0.000 C 
ATOM      8  C   UNL     1       2.500   7.477  18.833  0.00  0.00    +0.000 C 
ATOM      9  O   UNL     1       2.227   7.521  20.023  0.00  0.00    +0.000 OA
ATOM     10  N   UNL     1       3.342   6.544  18.264  0.00  0.00    +0.000 N 
ATOM     11  H   UNL     1       3.200   6.389  17.273  0.00  0.00    +0.000 HD
ENDBRANCH   1  10
BRANCH   4  12
ATOM     12  O   UNL     1       4.090   2.004  18.288  0.00  0.00    +0.000 OA
ATOM     13  H   UNL     1       4.998   2.308  18.476  0.00  0.00    +0.000 HD
ENDBRANCH   4  12
BRANCH   5  14
ATOM     14  O   UNL     1       5.659   3.312  16.356  0.00  0.00    +0.000 OA
ATOM     15  H   UNL     1       6.365   3.198  17.021  0.00  0.00    +0.000 HD
ENDBRANCH   5  14
BRANCH   6  16
ATOM     16  O   UNL     1       5.813   3.837  19.149  0.00  0.00    +0.000 OA
ATOM     17  H   UNL     1       6.526   4.338  19.602  0.00  0.00    +0.000 HD
ENDBRANCH   6  16
BRANCH   3  18
ATOM     18  C   UNL     1       1.213   2.762  18.520  0.00  0.00    +0.000 C 
BRANCH  18  19
ATOM     19  O   UNL     1       1.521   2.078  19.728  0.00  0.00    +0.000 OA
ATOM     20  H   UNL     1       0.731   2.097  20.295  0.00  0.00    +0.000 HD
ENDBRANCH  18  19
ENDBRANCH   3  18
TORSDOF 6
ENDMDL
MODEL 6
REMARK VINA RESULT:      -5.8      1.516      1.597
REMARK  Name = 
REMARK  7 active torsions:
REMARK  status: ('A' for Active; 'I' for Inactive)
REMARK    1  A    between atoms: C_1  and  C_2
REMARK    2  A    between atoms: N_4  and  C_5
REMARK    3  A    between atoms: C_7  and  C_8
REMARK    4  A    between atoms: C_8  and  O_9
REMARK    5  A    between atoms: C_10  and  O_11
REMARK    6  A    between atoms: C_12  and  O_13
REMARK    7  A    between atoms: C_14  and  O_15
REMARK                            x       y       z     vdW  Elec       q    Type
REMARK                         _______ _______ _______ _____ _____    ______ ____
ROOT
ATOM      1  C   UNL     1       3.712   4.862  18.709  0.00  0.00    +0.000 C 
ATOM      2  C   UNL     1       4.037   4.835  17.200  0.00  0.00    +0.000 C 
ATOM      3  C   UNL     1       5.200   5.792  16.864  0.00  0.00    +0.000 C 
ATOM      4  C   UNL     1       6.453   5.419  17.674  0.00  0.00    +0.000 C 
ATOM      5  C   UNL     1       6.143   5.457  19.185  0.00  0.00    +0.000 C 
ATOM      6  C   UNL     1       4.977   4.509  19.541  0.00  0.00    +0.000 C 
ENDROOT
BRANCH   1  10
ATOM      7  C   UNL     1       1.769   7.825  20.106  0.00  0.00    +0.000 C 
ATOM      8  C   UNL     1       2.221   6.392  20.026  0.00  0.00    +0.000 C 
ATOM      9  O   UNL     1       1.814   5.521  20.781  0.00  0.00    +0.000 OA
ATOM     10  N   UNL     1       3.140   6.179  19.020  0.00  0.00    +0.000 N 
ATOM     11  H   UNL     1       3.116   6.857  18.268  0.00  0.00    +0.000 HD
ENDBRANCH   1  10
BRANCH   4  12
ATOM     12  O   UNL     1       6.871   4.084  17.328  0.00  0.00    +0.000 OA
ATOM     13  H   UNL     1       7.573   3.844  17.962  0.00  0.00    +0.000 HD
ENDBRANCH   4  12
BRANCH   5  14
ATOM     14  O   UNL     1       7.322   5.097  19.912  0.00  0.00    +0.000 OA
ATOM     15  H   UNL     1       7.471   4.150  19.727  0.00  0.00    +0.000 HD
ENDBRANCH   5  14
BRANCH   6  16
ATOM     16  O   UNL     1       5.352   3.137  19.294  0.00  0.00    +0.000 OA
ATOM     17  H   UNL     1       6.205   3.150  18.809  0.00  0.00    +0.000 HD
ENDBRANCH   6  16
BRANCH   3  18
ATOM     18  C   UNL     1       5.456   5.821  15.358  0.00  0.00    +0.000 C 
BRANCH  18  19
ATOM     19  O   UNL     1       5.429   4.501  14.833  0.00  0.00    +0.000 OA
ATOM     20  H   UNL     1       6.347   4.223  14.667  0.00  0.00    +0.000 HD
ENDBRANCH  18  19
ENDBRANCH   3  18
TORSDOF 6
ENDMDL
MODEL 7
REMARK VINA RESULT:      -5.8      1.935      3.622
REMARK  Name = 
REMARK  7 active torsions:
REMARK  status: ('A' for Active; 'I' for Inactive)
REMARK    1  A    between atoms: C_1  and  C_2
REMARK    2  A    between atoms: N_4  and  C_5
REMARK    3  A    between atoms: C_7  and  C_8
REMARK    4  A    between atoms: C_8  and  O_9
REMARK    5  A    between atoms: C_10  and  O_11
REMARK    6  A    between atoms: C_12  and  O_13
REMARK    7  A    between atoms: C_14  and  O_15
REMARK                            x       y       z     vdW  Elec       q    Type
REMARK                         _______ _______ _______ _____ _____    ______ ____
ROOT
ATOM      1  C   UNL     1       4.435   5.130  17.559  0.00  0.00    +0.000 C 
ATOM      2  C   UNL     1       5.578   5.877  18.280  0.00  0.00    +0.000 C 
ATOM      3  C   UNL     1       6.876   5.043  18.279  0.00  0.00    +0.000 C 
ATOM      4  C   UNL     1       7.299   4.710  16.839  0.00  0.00    +0.000 C 
ATOM      5  C   UNL     1       6.169   3.949  16.114  0.00  0.00    +0.000 C 
ATOM      6  C   UNL     1       4.859   4.765  16.109  0.00  0.00    +0.000 C 
ENDROOT
BRANCH   1  10
ATOM      7  C   UNL     1       2.921   2.688  20.059  0.00  0.00    +0.000 C 
ATOM      8  C   UNL     1       3.064   3.996  19.328  0.00  0.00    +0.000 C 
ATOM      9  O   UNL     1       2.355   4.966  19.552  0.00  0.00    +0.000 OA
ATOM     10  N   UNL     1       4.069   3.971  18.384  0.00  0.00    +0.000 N 
ATOM     11  H   UNL     1       4.788   3.276  18.544  0.00  0.00    +0.000 HD
ENDBRANCH   1  10
BRANCH   4  12
ATOM     12  O   UNL     1       7.563   5.929  16.119  0.00  0.00    +0.000 OA
ATOM     13  H   UNL     1       7.101   5.847  15.263  0.00  0.00    +0.000 HD
ENDBRANCH   4  12
BRANCH   5  14
ATOM     14  O   UNL     1       6.586   3.660  14.775  0.00  0.00    +0.000 OA
ATOM     15  H   UNL     1       7.488   3.292  14.850  0.00  0.00    +0.000 HD
ENDBRANCH   5  14
BRANCH   6  16
ATOM     16  O   UNL     1       5.023   5.972  15.333  0.00  0.00    +0.000 OA
ATOM     17  H   UNL     1       4.139   6.391  15.253  0.00  0.00    +0.000 HD
ENDBRANCH   6  16
BRANCH   3  18
ATOM     18  C   UNL     1       7.974   5.755  19.069  0.00  0.00    +0.000 C 
BRANCH  18  19
ATOM     19  O   UNL     1       7.880   5.418  20.446  0.00  0.00    +0.000 OA
ATOM     20  H   UNL     1       8.773   5.200  20.766  0.00  0.00    +0.000 HD
ENDBRANCH  18  19
ENDBRANCH   3  18
TORSDOF 6
ENDMDL
MODEL 8
REMARK VINA RESULT:      -5.8      2.059      4.793
REMARK  Name = 
REMARK  7 active torsions:
REMARK  status: ('A' for Active; 'I' for Inactive)
REMARK    1  A    between atoms: C_1  and  C_2
REMARK    2  A    between atoms: N_4  and  C_5
REMARK    3  A    between atoms: C_7  and  C_8
REMARK    4  A    between atoms: C_8  and  O_9
REMARK    5  A    between atoms: C_10  and  O_11
REMARK    6  A    between atoms: C_12  and  O_13
REMARK    7  A    between atoms: C_14  and  O_15
REMARK                            x       y       z     vdW  Elec       q    Type
REMARK                         _______ _______ _______ _____ _____    ______ ____
ROOT
ATOM      1  C   UNL     1       5.065   5.271  17.393  0.00  0.00    +0.000 C 
ATOM      2  C   UNL     1       3.540   5.488  17.496  0.00  0.00    +0.000 C 
ATOM      3  C   UNL     1       2.792   4.143  17.609  0.00  0.00    +0.000 C 
ATOM      4  C   UNL     1       3.290   3.354  18.831  0.00  0.00    +0.000 C 
ATOM      5  C   UNL     1       4.811   3.117  18.730  0.00  0.00    +0.000 C 
ATOM      6  C   UNL     1       5.578   4.452  18.610  0.00  0.00    +0.000 C 
ENDROOT
BRANCH   1  10
ATOM      7  C   UNL     1       6.481   4.165  14.035  0.00  0.00    +0.000 C 
ATOM      8  C   UNL     1       6.465   4.911  15.341  0.00  0.00    +0.000 C 
ATOM      9  O   UNL     1       7.361   5.665  15.690  0.00  0.00    +0.000 OA
ATOM     10  N   UNL     1       5.339   4.643  16.093  0.00  0.00    +0.000 N 
ATOM     11  H   UNL     1       4.541   4.315  15.564  0.00  0.00    +0.000 HD
ENDBRANCH   1  10
BRANCH   4  12
ATOM     12  O   UNL     1       3.023   4.104  20.032  0.00  0.00    +0.000 OA
ATOM     13  H   UNL     1       3.224   5.036  19.822  0.00  0.00    +0.000 HD
ENDBRANCH   4  12
BRANCH   5  14
ATOM     14  O   UNL     1       5.247   2.390  19.883  0.00  0.00    +0.000 OA
ATOM     15  H   UNL     1       6.009   1.854  19.588  0.00  0.00    +0.000 HD
ENDBRANCH   5  14
BRANCH   6  16
ATOM     16  O   UNL     1       5.423   5.230  19.817  0.00  0.00    +0.000 OA
ATOM     17  H   UNL     1       4.788   5.952  19.620  0.00  0.00    +0.000 HD
ENDBRANCH   6  16
BRANCH   3  18
ATOM     18  C   UNL     1       1.280   4.367  17.624  0.00  0.00    +0.000 C 
BRANCH  18  19
ATOM     19  O   UNL     1       0.627   3.243  18.197  0.00  0.00    +0.000 OA
ATOM     20  H   UNL     1      -0.023   3.568  18.845  0.00  0.00    +0.000 HD
ENDBRANCH  18  19
ENDBRANCH   3  18
TORSDOF 6
ENDMDL
MODEL 9
REMARK VINA RESULT:      -5.7      3.337      5.986
REMARK  Name = 
REMARK  7 active torsions:
REMARK  status: ('A' for Active; 'I' for Inactive)
REMARK    1  A    between atoms: C_1  and  C_2
REMARK    2  A    between atoms: N_4  and  C_5
REMARK    3  A    between atoms: C_7  and  C_8
REMARK    4  A    between atoms: C_8  and  O_9
REMARK    5  A    between atoms: C_10  and  O_11
REMARK    6  A    between atoms: C_12  and  O_13
REMARK    7  A    between atoms: C_14  and  O_15
REMARK                            x       y       z     vdW  Elec       q    Type
REMARK                         _______ _______ _______ _____ _____    ______ ____
ROOT
ATOM      1  C   UNL     1       4.089   2.811  18.470  0.00  0.00    +0.000 C 
ATOM      2  C   UNL     1       3.572   2.614  19.912  0.00  0.00    +0.000 C 
ATOM      3  C   UNL     1       2.687   3.798  20.353  0.00  0.00    +0.000 C 
ATOM      4  C   UNL     1       1.498   3.966  19.392  0.00  0.00    +0.000 C 
ATOM      5  C   UNL     1       2.004   4.180  17.950  0.00  0.00    +0.000 C 
ATOM      6  C   UNL     1       2.898   3.007  17.492  0.00  0.00    +0.000 C 
ENDROOT
BRANCH   1  10
ATOM      7  C   UNL     1       6.708   5.463  17.686  0.00  0.00    +0.000 C 
ATOM      8  C   UNL     1       5.784   4.313  17.389  0.00  0.00    +0.000 C 
ATOM      9  O   UNL     1       5.707   3.786  16.289  0.00  0.00    +0.000 OA
ATOM     10  N   UNL     1       5.040   3.931  18.486  0.00  0.00    +0.000 N 
ATOM     11  H   UNL     1       5.440   4.180  19.382  0.00  0.00    +0.000 HD
ENDBRANCH   1  10
BRANCH   4  12
ATOM     12  O   UNL     1       0.684   2.778  19.419  0.00  0.00    +0.000 OA
ATOM     13  H   UNL     1       1.166   2.128  19.963  0.00  0.00    +0.000 HD
ENDBRANCH   4  12
BRANCH   5  14
ATOM     14  O   UNL     1       0.878   4.324  17.078  0.00  0.00    +0.000 OA
ATOM     15  H   UNL     1       1.172   4.915  16.358  0.00  0.00    +0.000 HD
ENDBRANCH   5  14
BRANCH   6  16
ATOM     16  O   UNL     1       2.127   1.789  17.416  0.00  0.00    +0.000 OA
ATOM     17  H   UNL     1       1.345   1.901  17.998  0.00  0.00    +0.000 HD
ENDBRANCH   6  16
BRANCH   3  18
ATOM     18  C   UNL     1       2.252   3.632  21.809  0.00  0.00    +0.000 C 
BRANCH  18  19
ATOM     19  O   UNL     1       1.803   2.303  22.035  0.00  0.00    +0.000 OA
ATOM     20  H   UNL     1       1.926   2.099  22.979  0.00  0.00    +0.000 HD
ENDBRANCH  18  19
ENDBRANCH   3  18
TORSDOF 6
ENDMDL
