MODEL 1
REMARK VINA RESULT:      -7.6      0.000      0.000
REMARK  Name = 
REMARK  11 active torsions:
REMARK  status: ('A' for Active; 'I' for Inactive)
REMARK    1  A    between atoms: C_1  and  C_2
REMARK    2  A    between atoms: C_2  and  O_3
REMARK    3  A    between atoms: O_3  and  C_4
REMARK    4  A    between atoms: C_4  and  C_6
REMARK    5  A    between atoms: C_10  and  C_11
REMARK    6  A    between atoms: C_11  and  N_12
REMARK    7  A    between atoms: C_16  and  C_17
REMARK    8  A    between atoms: C_17  and  C_19
REMARK    9  A    between atoms: C_22  and  O_23
REMARK   10  A    between atoms: O_23  and  C_24
REMARK   11  A    between atoms: C_26  and  C_27
REMARK                            x       y       z     vdW  Elec       q    Type
REMARK                         _______ _______ _______ _____ _____    ______ ____
ROOT
ATOM      1  N   UNL     1       3.814   3.663  17.088  0.00  0.00    +0.000 NA
ATOM      2  C   UNL     1       2.848   2.678  17.533  0.00  0.00    +0.000 C 
ATOM      3  C   UNL     1       1.500   3.243  17.956  0.00  0.00    +0.000 C 
ATOM      4  C   UNL     1       1.671   4.488  18.808  0.00  0.00    +0.000 C 
ATOM      5  C   UNL     1       2.418   5.610  18.054  0.00  0.00    +0.000 C 
ATOM      6  C   UNL     1       3.712   5.078  17.421  0.00  0.00    +0.000 C 
ENDROOT
BRANCH   5   7
ATOM      7  C   UNL     1       2.716   6.754  19.048  0.00  0.00    +0.000 C 
ATOM      8  O   UNL     1       3.574   6.560  19.924  0.00  0.00    +0.000 OA
BRANCH   7   9
ATOM      9  C   UNL     1       2.041   8.111  19.013  0.00  0.00    +0.000 A 
ATOM     10  C   UNL     1       2.154   8.940  17.879  0.00  0.00    +0.000 A 
ATOM     11  C   UNL     1       1.553  10.216  17.835  0.00  0.00    +0.000 A 
ATOM     12  C   UNL     1       0.840  10.709  18.923  0.00  0.00    +0.000 A 
ATOM     13  C   UNL     1       0.678   9.888  20.028  0.00  0.00    +0.000 A 
ATOM     14  C   UNL     1       1.270   8.606  20.104  0.00  0.00    +0.000 A 
ATOM     15  C   UNL     1       0.906   7.871  21.372  0.00  0.00    +0.000 C 
BRANCH  12  16
ATOM     16  O   UNL     1       0.311  11.967  18.814  0.00  0.00    +0.000 OA
ATOM     17  C   UNL     1       1.263  13.033  18.752  0.00  0.00    +0.000 C 
ENDBRANCH  12  16
ENDBRANCH   7   9
ENDBRANCH   5   7
BRANCH   1  18
ATOM     18  C   UNL     1       5.175   3.176  16.870  0.00  0.00    +0.000 C 
BRANCH  18  23
ATOM     19  C   UNL     1       6.856   5.218  16.303  0.00  0.00    +0.000 A 
ATOM     20  N   UNL     1       7.245   5.617  15.044  0.00  0.00    +0.000 N 
ATOM     21  N   UNL     1       6.928   4.794  14.046  0.00  0.00    +0.000 NA
ATOM     22  C   UNL     1       6.222   3.848  14.662  0.00  0.00    +0.000 A 
ATOM     23  C   UNL     1       6.085   4.063  16.072  0.00  0.00    +0.000 A 
ATOM     24  H   UNL     1       7.745   6.480  14.824  0.00  0.00    +0.000 HD
BRANCH  19  25
ATOM     25  C   UNL     1       7.297   6.105  17.360  0.00  0.00    +0.000 C 
ATOM     26  O   UNL     1       7.122   5.822  18.539  0.00  0.00    +0.000 OA
BRANCH  25  27
ATOM     27  O   UNL     1       7.892   7.257  16.952  0.00  0.00    +0.000 OA
BRANCH  27  29
ATOM     28  C   UNL     1       8.530   9.373  18.140  0.00  0.00    +0.000 C 
ATOM     29  C   UNL     1       7.426   8.440  17.648  0.00  0.00    +0.000 C 
ENDBRANCH  27  29
ENDBRANCH  25  27
ENDBRANCH  19  25
ENDBRANCH  18  23
ENDBRANCH   1  18
TORSDOF 8
ENDMDL
MODEL 2
REMARK VINA RESULT:      -7.5      2.805      6.665
REMARK  Name = 
REMARK  11 active torsions:
REMARK  status: ('A' for Active; 'I' for Inactive)
REMARK    1  A    between atoms: C_1  and  C_2
REMARK    2  A    between atoms: C_2  and  O_3
REMARK    3  A    between atoms: O_3  and  C_4
REMARK    4  A    between atoms: C_4  and  C_6
REMARK    5  A    between atoms: C_10  and  C_11
REMARK    6  A    between atoms: C_11  and  N_12
REMARK    7  A    between atoms: C_16  and  C_17
REMARK    8  A    between atoms: C_17  and  C_19
REMARK    9  A    between atoms: C_22  and  O_23
REMARK   10  A    between atoms: O_23  and  C_24
REMARK   11  A    between atoms: C_26  and  C_27
REMARK                            x       y       z     vdW  Elec       q    Type
REMARK                         _______ _______ _______ _____ _____    ______ ____
ROOT
ATOM      1  N   UNL     1       2.455   4.433  19.970  0.00  0.00    +0.000 NA
ATOM      2  C   UNL     1       1.260   3.877  19.366  0.00  0.00    +0.000 C 
ATOM      3  C   UNL     1       1.509   2.803  18.317  0.00  0.00    +0.000 C 
ATOM      4  C   UNL     1       2.642   3.197  17.387  0.00  0.00    +0.000 C 
ATOM      5  C   UNL     1       3.970   3.407  18.147  0.00  0.00    +0.000 C 
ATOM      6  C   UNL     1       3.772   4.336  19.353  0.00  0.00    +0.000 C 
ENDROOT
BRANCH   5   7
ATOM      7  C   UNL     1       5.011   3.988  17.165  0.00  0.00    +0.000 C 
ATOM      8  O   UNL     1       5.056   3.523  16.015  0.00  0.00    +0.000 OA
BRANCH   7   9
ATOM      9  C   UNL     1       5.975   5.107  17.508  0.00  0.00    +0.000 A 
ATOM     10  C   UNL     1       7.009   4.901  18.443  0.00  0.00    +0.000 A 
ATOM     11  C   UNL     1       7.902   5.936  18.795  0.00  0.00    +0.000 A 
ATOM     12  C   UNL     1       7.779   7.206  18.241  0.00  0.00    +0.000 A 
ATOM     13  C   UNL     1       6.798   7.414  17.285  0.00  0.00    +0.000 A 
ATOM     14  C   UNL     1       5.886   6.398  16.913  0.00  0.00    +0.000 A 
ATOM     15  C   UNL     1       4.949   6.834  15.812  0.00  0.00    +0.000 C 
BRANCH  12  16
ATOM     16  O   UNL     1       8.666   8.164  18.654  0.00  0.00    +0.000 OA
ATOM     17  C   UNL     1       8.435   9.480  18.141  0.00  0.00    +0.000 C 
ENDBRANCH  12  16
ENDBRANCH   7   9
ENDBRANCH   5   7
BRANCH   1  18
ATOM     18  C   UNL     1       2.257   5.601  20.827  0.00  0.00    +0.000 C 
BRANCH  18  23
ATOM     19  C   UNL     1       1.594   8.195  20.443  0.00  0.00    +0.000 A 
ATOM     20  N   UNL     1       1.582   8.855  19.234  0.00  0.00    +0.000 N 
ATOM     21  N   UNL     1       2.146   8.212  18.212  0.00  0.00    +0.000 NA
ATOM     22  C   UNL     1       2.469   7.038  18.750  0.00  0.00    +0.000 A 
ATOM     23  C   UNL     1       2.112   6.924  20.133  0.00  0.00    +0.000 A 
ATOM     24  H   UNL     1       1.180   9.779  19.067  0.00  0.00    +0.000 HD
BRANCH  19  25
ATOM     25  C   UNL     1       1.045   8.971  21.537  0.00  0.00    +0.000 C 
ATOM     26  O   UNL     1       1.735   9.282  22.501  0.00  0.00    +0.000 OA
BRANCH  25  27
ATOM     27  O   UNL     1      -0.267   9.304  21.422  0.00  0.00    +0.000 OA
BRANCH  27  29
ATOM     28  C   UNL     1      -1.224  11.102  22.888  0.00  0.00    +0.000 C 
ATOM     29  C   UNL     1      -0.532  10.720  21.582  0.00  0.00    +0.000 C 
ENDBRANCH  27  29
ENDBRANCH  25  27
ENDBRANCH  19  25
ENDBRANCH  18  23
ENDBRANCH   1  18
TORSDOF 8
ENDMDL
MODEL 3
REMARK VINA RESULT:      -7.3      2.089      3.120
REMARK  Name = 
REMARK  11 active torsions:
REMARK  status: ('A' for Active; 'I' for Inactive)
REMARK    1  A    between atoms: C_1  and  C_2
REMARK    2  A    between atoms: C_2  and  O_3
REMARK    3  A    between atoms: O_3  and  C_4
REMARK    4  A    between atoms: C_4  and  C_6
REMARK    5  A    between atoms: C_10  and  C_11
REMARK    6  A    between atoms: C_11  and  N_12
REMARK    7  A    between atoms: C_16  and  C_17
REMARK    8  A    between atoms: C_17  and  C_19
REMARK    9  A    between atoms: C_22  and  O_23
REMARK   10  A    between atoms: O_23  and  C_24
REMARK   11  A    between atoms: C_26  and  C_27
REMARK                            x       y       z     vdW  Elec       q    Type
REMARK                         _______ _______ _______ _____ _____    ______ ____
ROOT
ATOM      1  N   UNL     1       3.319   3.803  17.897  0.00  0.00    +0.000 NA
ATOM      2  C   UNL     1       3.206   3.208  19.214  0.00  0.00    +0.000 C 
ATOM      3  C   UNL     1       2.233   3.905  20.154  0.00  0.00    +0.000 C 
ATOM      4  C   UNL     1       2.385   5.413  20.080  0.00  0.00    +0.000 C 
ATOM      5  C   UNL     1       2.113   5.955  18.660  0.00  0.00    +0.000 C 
ATOM      6  C   UNL     1       2.915   5.173  17.611  0.00  0.00    +0.000 C 
ENDROOT
BRANCH   5   7
ATOM      7  C   UNL     1       2.475   7.456  18.630  0.00  0.00    +0.000 C 
ATOM      8  O   UNL     1       3.636   7.773  18.323  0.00  0.00    +0.000 OA
BRANCH   7   9
ATOM      9  C   UNL     1       1.499   8.575  18.935  0.00  0.00    +0.000 A 
ATOM     10  C   UNL     1       0.908   9.316  17.892  0.00  0.00    +0.000 A 
ATOM     11  C   UNL     1       0.015  10.377  18.155  0.00  0.00    +0.000 A 
ATOM     12  C   UNL     1      -0.299  10.742  19.459  0.00  0.00    +0.000 A 
ATOM     13  C   UNL     1       0.236   9.994  20.497  0.00  0.00    +0.000 A 
ATOM     14  C   UNL     1       1.136   8.927  20.267  0.00  0.00    +0.000 A 
ATOM     15  C   UNL     1       1.538   8.221  21.540  0.00  0.00    +0.000 C 
BRANCH  12  16
ATOM     16  O   UNL     1      -1.150  11.800  19.633  0.00  0.00    +0.000 OA
ATOM     17  C   UNL     1      -1.253  12.697  18.523  0.00  0.00    +0.000 C 
ENDBRANCH  12  16
ENDBRANCH   7   9
ENDBRANCH   5   7
BRANCH   1  18
ATOM     18  C   UNL     1       4.388   3.282  17.046  0.00  0.00    +0.000 C 
BRANCH  18  23
ATOM     19  C   UNL     1       6.532   4.518  15.955  0.00  0.00    +0.000 A 
ATOM     20  N   UNL     1       7.589   5.064  16.650  0.00  0.00    +0.000 N 
ATOM     21  N   UNL     1       7.429   5.172  17.968  0.00  0.00    +0.000 NA
ATOM     22  C   UNL     1       6.247   4.592  18.166  0.00  0.00    +0.000 A 
ATOM     23  C   UNL     1       5.639   4.108  16.962  0.00  0.00    +0.000 A 
ATOM     24  H   UNL     1       8.467   5.384  16.238  0.00  0.00    +0.000 HD
BRANCH  19  25
ATOM     25  C   UNL     1       6.723   4.502  14.519  0.00  0.00    +0.000 C 
ATOM     26  O   UNL     1       7.246   5.446  13.939  0.00  0.00    +0.000 OA
BRANCH  25  27
ATOM     27  O   UNL     1       6.273   3.392  13.878  0.00  0.00    +0.000 OA
BRANCH  27  29
ATOM     28  C   UNL     1       4.867   3.272  11.803  0.00  0.00    +0.000 C 
ATOM     29  C   UNL     1       6.235   3.520  12.434  0.00  0.00    +0.000 C 
ENDBRANCH  27  29
ENDBRANCH  25  27
ENDBRANCH  19  25
ENDBRANCH  18  23
ENDBRANCH   1  18
TORSDOF 8
ENDMDL
MODEL 4
REMARK VINA RESULT:      -7.3      0.960      1.159
REMARK  Name = 
REMARK  11 active torsions:
REMARK  status: ('A' for Active; 'I' for Inactive)
REMARK    1  A    between atoms: C_1  and  C_2
REMARK    2  A    between atoms: C_2  and  O_3
REMARK    3  A    between atoms: O_3  and  C_4
REMARK    4  A    between atoms: C_4  and  C_6
REMARK    5  A    between atoms: C_10  and  C_11
REMARK    6  A    between atoms: C_11  and  N_12
REMARK    7  A    between atoms: C_16  and  C_17
REMARK    8  A    between atoms: C_17  and  C_19
REMARK    9  A    between atoms: C_22  and  O_23
REMARK   10  A    between atoms: O_23  and  C_24
REMARK   11  A    between atoms: C_26  and  C_27
REMARK                            x       y       z     vdW  Elec       q    Type
REMARK                         _______ _______ _______ _____ _____    ______ ____
ROOT
ATOM      1  N   UNL     1       3.611   3.636  17.507  0.00  0.00    +0.000 NA
ATOM      2  C   UNL     1       2.793   2.500  17.885  0.00  0.00    +0.000 C 
ATOM      3  C   UNL     1       1.376   2.844  18.321  0.00  0.00    +0.000 C 
ATOM      4  C   UNL     1       1.364   4.050  19.242  0.00  0.00    +0.000 C 
ATOM      5  C   UNL     1       1.948   5.307  18.561  0.00  0.00    +0.000 C 
ATOM      6  C   UNL     1       3.307   5.001  17.917  0.00  0.00    +0.000 C 
ENDROOT
BRANCH   5   7
ATOM      7  C   UNL     1       2.075   6.425  19.620  0.00  0.00    +0.000 C 
ATOM      8  O   UNL     1       2.440   6.109  20.764  0.00  0.00    +0.000 OA
BRANCH   7   9
ATOM      9  C   UNL     1       1.800   7.891  19.349  0.00  0.00    +0.000 A 
ATOM     10  C   UNL     1       2.236   8.493  18.152  0.00  0.00    +0.000 A 
ATOM     11  C   UNL     1       2.011   9.862  17.891  0.00  0.00    +0.000 A 
ATOM     12  C   UNL     1       1.366  10.671  18.820  0.00  0.00    +0.000 A 
ATOM     13  C   UNL     1       0.888  10.086  19.982  0.00  0.00    +0.000 A 
ATOM     14  C   UNL     1       1.100   8.718  20.274  0.00  0.00    +0.000 A 
ATOM     15  C   UNL     1       0.439   8.289  21.562  0.00  0.00    +0.000 C 
BRANCH  12  16
ATOM     16  O   UNL     1       1.211  11.995  18.506  0.00  0.00    +0.000 OA
ATOM     17  C   UNL     1       2.424  12.730  18.317  0.00  0.00    +0.000 C 
ENDBRANCH  12  16
ENDBRANCH   7   9
ENDBRANCH   5   7
BRANCH   1  18
ATOM     18  C   UNL     1       5.029   3.359  17.281  0.00  0.00    +0.000 C 
BRANCH  18  23
ATOM     19  C   UNL     1       6.200   5.459  16.041  0.00  0.00    +0.000 A 
ATOM     20  N   UNL     1       6.465   5.554  14.693  0.00  0.00    +0.000 N 
ATOM     21  N   UNL     1       6.322   4.433  13.988  0.00  0.00    +0.000 NA
ATOM     22  C   UNL     1       5.857   3.576  14.896  0.00  0.00    +0.000 A 
ATOM     23  C   UNL     1       5.702   4.152  16.199  0.00  0.00    +0.000 A 
ATOM     24  H   UNL     1       6.756   6.403  14.205  0.00  0.00    +0.000 HD
BRANCH  19  25
ATOM     25  C   UNL     1       6.452   6.682  16.774  0.00  0.00    +0.000 C 
ATOM     26  O   UNL     1       5.530   7.409  17.128  0.00  0.00    +0.000 OA
BRANCH  25  27
ATOM     27  O   UNL     1       7.758   6.965  17.019  0.00  0.00    +0.000 OA
BRANCH  27  29
ATOM     28  C   UNL     1       7.802   5.831  19.257  0.00  0.00    +0.000 C 
ATOM     29  C   UNL     1       8.082   7.082  18.427  0.00  0.00    +0.000 C 
ENDBRANCH  27  29
ENDBRANCH  25  27
ENDBRANCH  19  25
ENDBRANCH  18  23
ENDBRANCH   1  18
TORSDOF 8
ENDMDL
MODEL 5
REMARK VINA RESULT:      -7.2      1.947      2.963
REMARK  Name = 
REMARK  11 active torsions:
REMARK  status: ('A' for Active; 'I' for Inactive)
REMARK    1  A    between atoms: C_1  and  C_2
REMARK    2  A    between atoms: C_2  and  O_3
REMARK    3  A    between atoms: O_3  and  C_4
REMARK    4  A    between atoms: C_4  and  C_6
REMARK    5  A    between atoms: C_10  and  C_11
REMARK    6  A    between atoms: C_11  and  N_12
REMARK    7  A    between atoms: C_16  and  C_17
REMARK    8  A    between atoms: C_17  and  C_19
REMARK    9  A    between atoms: C_22  and  O_23
REMARK   10  A    between atoms: O_23  and  C_24
REMARK   11  A    between atoms: C_26  and  C_27
REMARK                            x       y       z     vdW  Elec       q    Type
REMARK                         _______ _______ _______ _____ _____    ______ ____
ROOT
ATOM      1  N   UNL     1       3.040   3.420  17.251  0.00  0.00    +0.000 NA
ATOM      2  C   UNL     1       2.253   2.450  17.986  0.00  0.00    +0.000 C 
ATOM      3  C   UNL     1       1.064   3.025  18.742  0.00  0.00    +0.000 C 
ATOM      4  C   UNL     1       1.440   4.307  19.461  0.00  0.00    +0.000 C 
ATOM      5  C   UNL     1       1.929   5.399  18.484  0.00  0.00    +0.000 C 
ATOM      6  C   UNL     1       3.008   4.847  17.541  0.00  0.00    +0.000 C 
ENDROOT
BRANCH   5   7
ATOM      7  C   UNL     1       2.469   6.589  19.308  0.00  0.00    +0.000 C 
ATOM      8  O   UNL     1       3.365   6.368  20.138  0.00  0.00    +0.000 OA
BRANCH   7   9
ATOM      9  C   UNL     1       1.987   8.018  19.157  0.00  0.00    +0.000 A 
ATOM     10  C   UNL     1       2.238   8.739  17.973  0.00  0.00    +0.000 A 
ATOM     11  C   UNL     1       1.818  10.078  17.821  0.00  0.00    +0.000 A 
ATOM     12  C   UNL     1       1.157  10.741  18.849  0.00  0.00    +0.000 A 
ATOM     13  C   UNL     1       0.859  10.034  20.003  0.00  0.00    +0.000 A 
ATOM     14  C   UNL     1       1.268   8.692  20.186  0.00  0.00    +0.000 A 
ATOM     15  C   UNL     1       0.779   8.108  21.491  0.00  0.00    +0.000 C 
BRANCH  12  16
ATOM     16  O   UNL     1       0.807  12.048  18.636  0.00  0.00    +0.000 OA
ATOM     17  C   UNL     1      -0.210  12.563  19.500  0.00  0.00    +0.000 C 
ENDBRANCH  12  16
ENDBRANCH   7   9
ENDBRANCH   5   7
BRANCH   1  18
ATOM     18  C   UNL     1       4.298   2.932  16.686  0.00  0.00    +0.000 C 
BRANCH  18  23
ATOM     19  C   UNL     1       6.399   4.401  15.824  0.00  0.00    +0.000 A 
ATOM     20  N   UNL     1       7.333   5.020  16.625  0.00  0.00    +0.000 N 
ATOM     21  N   UNL     1       7.048   5.068  17.925  0.00  0.00    +0.000 NA
ATOM     22  C   UNL     1       5.915   4.373  18.001  0.00  0.00    +0.000 A 
ATOM     23  C   UNL     1       5.465   3.874  16.736  0.00  0.00    +0.000 A 
ATOM     24  H   UNL     1       8.209   5.434  16.302  0.00  0.00    +0.000 HD
BRANCH  19  25
ATOM     25  C   UNL     1       6.716   4.450  14.412  0.00  0.00    +0.000 C 
ATOM     26  O   UNL     1       7.226   5.446  13.912  0.00  0.00    +0.000 OA
BRANCH  25  27
ATOM     27  O   UNL     1       6.398   3.339  13.697  0.00  0.00    +0.000 OA
BRANCH  27  29
ATOM     28  C   UNL     1       4.771   3.384  11.787  0.00  0.00    +0.000 C 
ATOM     29  C   UNL     1       6.201   3.585  12.282  0.00  0.00    +0.000 C 
ENDBRANCH  27  29
ENDBRANCH  25  27
ENDBRANCH  19  25
ENDBRANCH  18  23
ENDBRANCH   1  18
TORSDOF 8
ENDMDL
MODEL 6
REMARK VINA RESULT:      -7.2      2.713      4.449
REMARK  Name = 
REMARK  11 active torsions:
REMARK  status: ('A' for Active; 'I' for Inactive)
REMARK    1  A    between atoms: C_1  and  C_2
REMARK    2  A    between atoms: C_2  and  O_3
REMARK    3  A    between atoms: O_3  and  C_4
REMARK    4  A    between atoms: C_4  and  C_6
REMARK    5  A    between atoms: C_10  and  C_11
REMARK    6  A    between atoms: C_11  and  N_12
REMARK    7  A    between atoms: C_16  and  C_17
REMARK    8  A    between atoms: C_17  and  C_19
REMARK    9  A    between atoms: C_22  and  O_23
REMARK   10  A    between atoms: O_23  and  C_24
REMARK   11  A    between atoms: C_26  and  C_27
REMARK                            x       y       z     vdW  Elec       q    Type
REMARK                         _______ _______ _______ _____ _____    ______ ____
ROOT
ATOM      1  N   UNL     1       3.420   6.837  17.976  0.00  0.00    +0.000 NA
ATOM      2  C   UNL     1       3.480   6.332  19.333  0.00  0.00    +0.000 C 
ATOM      3  C   UNL     1       2.232   6.579  20.168  0.00  0.00    +0.000 C 
ATOM      4  C   UNL     1       1.712   7.991  19.971  0.00  0.00    +0.000 C 
ATOM      5  C   UNL     1       1.338   8.273  18.499  0.00  0.00    +0.000 C 
ATOM      6  C   UNL     1       2.480   7.868  17.556  0.00  0.00    +0.000 C 
ENDROOT
BRANCH   5   7
ATOM      7  C   UNL     1       1.007   9.775  18.356  0.00  0.00    +0.000 C 
ATOM      8  O   UNL     1       1.946  10.569  18.187  0.00  0.00    +0.000 OA
BRANCH   7   9
ATOM      9  C   UNL     1      -0.397  10.345  18.391  0.00  0.00    +0.000 A 
ATOM     10  C   UNL     1      -1.355   9.954  17.434  0.00  0.00    +0.000 A 
ATOM     11  C   UNL     1      -2.660  10.491  17.434  0.00  0.00    +0.000 A 
ATOM     12  C   UNL     1      -3.042  11.443  18.373  0.00  0.00    +0.000 A 
ATOM     13  C   UNL     1      -2.129  11.804  19.351  0.00  0.00    +0.000 A 
ATOM     14  C   UNL     1      -0.813  11.287  19.376  0.00  0.00    +0.000 A 
ATOM     15  C   UNL     1      -0.019  11.774  20.566  0.00  0.00    +0.000 C 
BRANCH  12  16
ATOM     16  O   UNL     1      -4.317  11.937  18.291  0.00  0.00    +0.000 OA
ATOM     17  C   UNL     1      -4.947  11.805  17.013  0.00  0.00    +0.000 C 
ENDBRANCH  12  16
ENDBRANCH   7   9
ENDBRANCH   5   7
BRANCH   1  18
ATOM     18  C   UNL     1       4.671   6.796  17.219  0.00  0.00    +0.000 C 
BRANCH  18  23
ATOM     19  C   UNL     1       4.620   4.130  16.760  0.00  0.00    +0.000 A 
ATOM     20  N   UNL     1       5.640   3.387  16.210  0.00  0.00    +0.000 N 
ATOM     21  N   UNL     1       6.644   4.078  15.673  0.00  0.00    +0.000 NA
ATOM     22  C   UNL     1       6.314   5.337  15.957  0.00  0.00    +0.000 A 
ATOM     23  C   UNL     1       5.084   5.457  16.682  0.00  0.00    +0.000 A 
ATOM     24  H   UNL     1       5.684   2.366  16.186  0.00  0.00    +0.000 HD
BRANCH  19  25
ATOM     25  C   UNL     1       3.516   3.333  17.254  0.00  0.00    +0.000 C 
ATOM     26  O   UNL     1       2.366   3.549  16.891  0.00  0.00    +0.000 OA
BRANCH  25  27
ATOM     27  O   UNL     1       3.845   2.359  18.144  0.00  0.00    +0.000 OA
BRANCH  27  29
ATOM     28  C   UNL     1       2.793   2.793  20.381  0.00  0.00    +0.000 C 
ATOM     29  C   UNL     1       2.778   2.018  19.065  0.00  0.00    +0.000 C 
ENDBRANCH  27  29
ENDBRANCH  25  27
ENDBRANCH  19  25
ENDBRANCH  18  23
ENDBRANCH   1  18
TORSDOF 8
ENDMDL
MODEL 7
REMARK VINA RESULT:      -7.2      2.306      3.382
REMARK  Name = 
REMARK  11 active torsions:
REMARK  status: ('A' for Active; 'I' for Inactive)
REMARK    1  A    between atoms: C_1  and  C_2
REMARK    2  A    between atoms: C_2  and  O_3
REMARK    3  A    between atoms: O_3  and  C_4
REMARK    4  A    between atoms: C_4  and  C_6
REMARK    5  A    between atoms: C_10  and  C_11
REMARK    6  A    between atoms: C_11  and  N_12
REMARK    7  A    between atoms: C_16  and  C_17
REMARK    8  A    between atoms: C_17  and  C_19
REMARK    9  A    between atoms: C_22  and  O_23
REMARK   10  A    between atoms: O_23  and  C_24
REMARK   11  A    between atoms: C_26  and  C_27
REMARK                            x       y       z     vdW  Elec       q    Type
REMARK                         _______ _______ _______ _____ _____    ______ ____
ROOT
ATOM      1  N   UNL     1       3.054   4.128  18.608  0.00  0.00    +0.000 NA
ATOM      2  C   UNL     1       2.803   3.492  19.886  0.00  0.00    +0.000 C 
ATOM      3  C   UNL     1       1.686   4.117  20.708  0.00  0.00    +0.000 C 
ATOM      4  C   UNL     1       1.773   5.632  20.688  0.00  0.00    +0.000 C 
ATOM      5  C   UNL     1       1.658   6.202  19.257  0.00  0.00    +0.000 C 
ATOM      6  C   UNL     1       2.625   5.487  18.303  0.00  0.00    +0.000 C 
ENDROOT
BRANCH   5   7
ATOM      7  C   UNL     1       1.948   7.718  19.307  0.00  0.00    +0.000 C 
ATOM      8  O   UNL     1       2.745   8.190  18.481  0.00  0.00    +0.000 OA
BRANCH   7   9
ATOM      9  C   UNL     1       1.308   8.676  20.293  0.00  0.00    +0.000 A 
ATOM     10  C   UNL     1       1.569   8.565  21.673  0.00  0.00    +0.000 A 
ATOM     11  C   UNL     1       0.965   9.431  22.610  0.00  0.00    +0.000 A 
ATOM     12  C   UNL     1       0.072  10.416  22.202  0.00  0.00    +0.000 A 
ATOM     13  C   UNL     1      -0.160  10.571  20.844  0.00  0.00    +0.000 A 
ATOM     14  C   UNL     1       0.428   9.717  19.881  0.00  0.00    +0.000 A 
ATOM     15  C   UNL     1       0.081  10.113  18.465  0.00  0.00    +0.000 C 
BRANCH  12  16
ATOM     16  O   UNL     1      -0.494  11.198  23.173  0.00  0.00    +0.000 OA
ATOM     17  C   UNL     1      -1.903  11.416  23.045  0.00  0.00    +0.000 C 
ENDBRANCH  12  16
ENDBRANCH   7   9
ENDBRANCH   5   7
BRANCH   1  18
ATOM     18  C   UNL     1       4.248   3.681  17.891  0.00  0.00    +0.000 C 
BRANCH  18  23
ATOM     19  C   UNL     1       6.262   5.326  17.146  0.00  0.00    +0.000 A 
ATOM     20  N   UNL     1       7.358   5.657  17.911  0.00  0.00    +0.000 N 
ATOM     21  N   UNL     1       7.305   5.301  19.193  0.00  0.00    +0.000 NA
ATOM     22  C   UNL     1       6.159   4.626  19.261  0.00  0.00    +0.000 A 
ATOM     23  C   UNL     1       5.465   4.550  18.009  0.00  0.00    +0.000 A 
ATOM     24  H   UNL     1       8.191   6.143  17.574  0.00  0.00    +0.000 HD
BRANCH  19  25
ATOM     25  C   UNL     1       6.334   5.809  15.782  0.00  0.00    +0.000 C 
ATOM     26  O   UNL     1       5.434   6.489  15.303  0.00  0.00    +0.000 OA
BRANCH  25  27
ATOM     27  O   UNL     1       7.443   5.444  15.085  0.00  0.00    +0.000 OA
BRANCH  27  29
ATOM     28  C   UNL     1       7.878   5.303  12.618  0.00  0.00    +0.000 C 
ATOM     29  C   UNL     1       7.157   4.750  13.845  0.00  0.00    +0.000 C 
ENDBRANCH  27  29
ENDBRANCH  25  27
ENDBRANCH  19  25
ENDBRANCH  18  23
ENDBRANCH   1  18
TORSDOF 8
ENDMDL
MODEL 8
REMARK VINA RESULT:      -7.2      1.753      2.824
REMARK  Name = 
REMARK  11 active torsions:
REMARK  status: ('A' for Active; 'I' for Inactive)
REMARK    1  A    between atoms: C_1  and  C_2
REMARK    2  A    between atoms: C_2  and  O_3
REMARK    3  A    between atoms: O_3  and  C_4
REMARK    4  A    between atoms: C_4  and  C_6
REMARK    5  A    between atoms: C_10  and  C_11
REMARK    6  A    between atoms: C_11  and  N_12
REMARK    7  A    between atoms: C_16  and  C_17
REMARK    8  A    between atoms: C_17  and  C_19
REMARK    9  A    between atoms: C_22  and  O_23
REMARK   10  A    between atoms: O_23  and  C_24
REMARK   11  A    between atoms: C_26  and  C_27
REMARK                            x       y       z     vdW  Elec       q    Type
REMARK                         _______ _______ _______ _____ _____    ______ ____
ROOT
ATOM      1  N   UNL     1       4.057   4.067  17.838  0.00  0.00    +0.000 NA
ATOM      2  C   UNL     1       3.258   2.870  18.011  0.00  0.00    +0.000 C 
ATOM      3  C   UNL     1       1.765   3.110  18.173  0.00  0.00    +0.000 C 
ATOM      4  C   UNL     1       1.495   4.271  19.113  0.00  0.00    +0.000 C 
ATOM      5  C   UNL     1       2.114   5.589  18.600  0.00  0.00    +0.000 C 
ATOM      6  C   UNL     1       3.590   5.392  18.224  0.00  0.00    +0.000 C 
ENDROOT
BRANCH   5   7
ATOM      7  C   UNL     1       1.961   6.664  19.699  0.00  0.00    +0.000 C 
ATOM      8  O   UNL     1       2.094   6.314  20.883  0.00  0.00    +0.000 OA
BRANCH   7   9
ATOM      9  C   UNL     1       1.675   8.127  19.426  0.00  0.00    +0.000 A 
ATOM     10  C   UNL     1       2.051   8.716  18.202  0.00  0.00    +0.000 A 
ATOM     11  C   UNL     1       1.816  10.082  17.938  0.00  0.00    +0.000 A 
ATOM     12  C   UNL     1       1.217  10.902  18.888  0.00  0.00    +0.000 A 
ATOM     13  C   UNL     1       0.797  10.330  20.078  0.00  0.00    +0.000 A 
ATOM     14  C   UNL     1       1.021   8.965  20.374  0.00  0.00    +0.000 A 
ATOM     15  C   UNL     1       0.423   8.552  21.698  0.00  0.00    +0.000 C 
BRANCH  12  16
ATOM     16  O   UNL     1       1.049  12.223  18.567  0.00  0.00    +0.000 OA
ATOM     17  C   UNL     1      -0.309  12.666  18.476  0.00  0.00    +0.000 C 
ENDBRANCH  12  16
ENDBRANCH   7   9
ENDBRANCH   5   7
BRANCH   1  18
ATOM     18  C   UNL     1       5.507   3.885  17.884  0.00  0.00    +0.000 C 
BRANCH  18  23
ATOM     19  C   UNL     1       6.904   5.555  16.278  0.00  0.00    +0.000 A 
ATOM     20  N   UNL     1       7.752   6.556  16.698  0.00  0.00    +0.000 N 
ATOM     21  N   UNL     1       7.709   6.852  17.996  0.00  0.00    +0.000 NA
ATOM     22  C   UNL     1       6.857   5.947  18.473  0.00  0.00    +0.000 A 
ATOM     23  C   UNL     1       6.344   5.061  17.471  0.00  0.00    +0.000 A 
ATOM     24  H   UNL     1       8.397   7.075  16.101  0.00  0.00    +0.000 HD
BRANCH  19  25
ATOM     25  C   UNL     1       6.928   5.330  14.848  0.00  0.00    +0.000 C 
ATOM     26  O   UNL     1       7.926   5.585  14.184  0.00  0.00    +0.000 OA
BRANCH  25  27
ATOM     27  O   UNL     1       5.780   4.843  14.308  0.00  0.00    +0.000 OA
BRANCH  27  29
ATOM     28  C   UNL     1       5.955   3.390  12.270  0.00  0.00    +0.000 C 
ATOM     29  C   UNL     1       5.898   3.493  13.792  0.00  0.00    +0.000 C 
ENDBRANCH  27  29
ENDBRANCH  25  27
ENDBRANCH  19  25
ENDBRANCH  18  23
ENDBRANCH   1  18
TORSDOF 8
ENDMDL
MODEL 9
REMARK VINA RESULT:      -7.1      1.951      3.047
REMARK  Name = 
REMARK  11 active torsions:
REMARK  status: ('A' for Active; 'I' for Inactive)
REMARK    1  A    between atoms: C_1  and  C_2
REMARK    2  A    between atoms: C_2  and  O_3
REMARK    3  A    between atoms: O_3  and  C_4
REMARK    4  A    between atoms: C_4  and  C_6
REMARK    5  A    between atoms: C_10  and  C_11
REMARK    6  A    between atoms: C_11  and  N_12
REMARK    7  A    between atoms: C_16  and  C_17
REMARK    8  A    between atoms: C_17  and  C_19
REMARK    9  A    between atoms: C_22  and  O_23
REMARK   10  A    between atoms: O_23  and  C_24
REMARK   11  A    between atoms: C_26  and  C_27
REMARK                            x       y       z     vdW  Elec       q    Type
REMARK                         _______ _______ _______ _____ _____    ______ ____
ROOT
ATOM      1  N   UNL     1       2.942   3.753  17.646  0.00  0.00    +0.000 NA
ATOM      2  C   UNL     1       2.288   2.512  18.011  0.00  0.00    +0.000 C 
ATOM      3  C   UNL     1       0.976   2.673  18.764  0.00  0.00    +0.000 C 
ATOM      4  C   UNL     1       1.087   3.744  19.835  0.00  0.00    +0.000 C 
ATOM      5  C   UNL     1       1.443   5.124  19.241  0.00  0.00    +0.000 C 
ATOM      6  C   UNL     1       2.653   5.022  18.301  0.00  0.00    +0.000 C 
ENDROOT
BRANCH   5   7
ATOM      7  C   UNL     1       1.724   6.101  20.403  0.00  0.00    +0.000 C 
ATOM      8  O   UNL     1       2.367   5.681  21.379  0.00  0.00    +0.000 OA
BRANCH   7   9
ATOM      9  C   UNL     1       1.281   7.551  20.425  0.00  0.00    +0.000 A 
ATOM     10  C   UNL     1       0.527   8.055  21.503  0.00  0.00    +0.000 A 
ATOM     11  C   UNL     1       0.084   9.394  21.532  0.00  0.00    +0.000 A 
ATOM     12  C   UNL     1       0.362  10.262  20.481  0.00  0.00    +0.000 A 
ATOM     13  C   UNL     1       1.143   9.798  19.434  0.00  0.00    +0.000 A 
ATOM     14  C   UNL     1       1.599   8.460  19.375  0.00  0.00    +0.000 A 
ATOM     15  C   UNL     1       2.482   8.199  18.178  0.00  0.00    +0.000 C 
BRANCH  12  16
ATOM     16  O   UNL     1      -0.127  11.538  20.569  0.00  0.00    +0.000 OA
ATOM     17  C   UNL     1      -1.295  11.697  21.380  0.00  0.00    +0.000 C 
ENDBRANCH  12  16
ENDBRANCH   7   9
ENDBRANCH   5   7
BRANCH   1  18
ATOM     18  C   UNL     1       4.295   3.631  17.105  0.00  0.00    +0.000 C 
BRANCH  18  23
ATOM     19  C   UNL     1       6.388   5.315  17.420  0.00  0.00    +0.000 A 
ATOM     20  N   UNL     1       7.139   5.463  18.565  0.00  0.00    +0.000 N 
ATOM     21  N   UNL     1       6.656   4.880  19.661  0.00  0.00    +0.000 NA
ATOM     22  C   UNL     1       5.580   4.244  19.202  0.00  0.00    +0.000 A 
ATOM     23  C   UNL     1       5.367   4.422  17.796  0.00  0.00    +0.000 A 
ATOM     24  H   UNL     1       8.021   5.975  18.633  0.00  0.00    +0.000 HD
BRANCH  19  25
ATOM     25  C   UNL     1       6.913   6.037  16.279  0.00  0.00    +0.000 C 
ATOM     26  O   UNL     1       7.800   6.873  16.413  0.00  0.00    +0.000 OA
BRANCH  25  27
ATOM     27  O   UNL     1       6.349   5.736  15.081  0.00  0.00    +0.000 OA
BRANCH  27  29
ATOM     28  C   UNL     1       5.931   3.794  13.546  0.00  0.00    +0.000 C 
ATOM     29  C   UNL     1       6.901   4.552  14.451  0.00  0.00    +0.000 C 
ENDBRANCH  27  29
ENDBRANCH  25  27
ENDBRANCH  19  25
ENDBRANCH  18  23
ENDBRANCH   1  18
TORSDOF 8
ENDMDL
