MODEL 1
REMARK VINA RESULT:      -7.0      0.000      0.000
REMARK  Name = 
REMARK  7 active torsions:
REMARK  status: ('A' for Active; 'I' for Inactive)
REMARK    1  A    between atoms: C_1  and  C_2
REMARK    2  A    between atoms: C_2  and  C_3
REMARK    3  A    between atoms: C_7  and  C_8
REMARK    4  A    between atoms: C_9  and  N_10
REMARK    5  A    between atoms: C_11  and  C_13
REMARK    6  A    between atoms: C_15  and  C_16
REMARK    7  A    between atoms: C_16  and  N_17
REMARK                            x       y       z     vdW  Elec       q    Type
REMARK                         _______ _______ _______ _____ _____    ______ ____
ROOT
ATOM      1  N   UNL     1       4.434   4.157  18.299  0.00  0.00    +0.000 N 
ATOM      2  C   UNL     1       5.469   5.009  18.618  0.00  0.00    +0.000 C 
ATOM      3  O   UNL     1       5.627   5.564  19.701  0.00  0.00    +0.000 OA
ATOM      4  H   UNL     1       4.258   4.116  17.296  0.00  0.00    +0.000 HD
ENDROOT
BRANCH   1  11
ATOM      5  C   UNL     1       2.169   4.706  19.151  0.00  0.00    +0.000 A 
ATOM      6  C   UNL     1       1.165   4.432  20.088  0.00  0.00    +0.000 A 
ATOM      7  C   UNL     1       1.306   3.415  21.027  0.00  0.00    +0.000 A 
ATOM      8  C   UNL     1       2.473   2.644  21.046  0.00  0.00    +0.000 A 
ATOM      9  C   UNL     1       3.494   2.884  20.124  0.00  0.00    +0.000 A 
ATOM     10  C   UNL     1       4.713   1.996  20.163  0.00  0.00    +0.000 C 
ATOM     11  C   UNL     1       3.344   3.906  19.158  0.00  0.00    +0.000 A 
BRANCH   5  13
ATOM     12  C   UNL     1       2.516   7.259  18.983  0.00  0.00    +0.000 C 
ATOM     13  C   UNL     1       2.016   5.978  18.323  0.00  0.00    +0.000 C 
ENDBRANCH   5  13
ENDBRANCH   1  11
BRANCH   2  14
ATOM     14  C   UNL     1       6.453   5.161  17.530  0.00  0.00    +0.000 A 
ATOM     15  C   UNL     1       6.758   4.209  16.528  0.00  0.00    +0.000 A 
ATOM     16  C   UNL     1       7.136   5.003  15.468  0.00  0.00    +0.000 A 
ATOM     17  O   UNL     1       7.437   6.247  15.937  0.00  0.00    +0.000 OA
ATOM     18  N   UNL     1       7.046   6.339  17.265  0.00  0.00    +0.000 NA
BRANCH  16  19
ATOM     19  C   UNL     1       6.960   4.839  13.997  0.00  0.00    +0.000 C 
BRANCH  19  20
ATOM     20  N   UNL     1       6.424   3.592  13.462  0.00  0.00    +0.000 NA
ATOM     21  C   UNL     1       6.944   3.213  12.152  0.00  0.00    +0.000 C 
ATOM     22  C   UNL     1       5.917   3.722  11.165  0.00  0.00    +0.000 C 
ATOM     23  C   UNL     1       4.598   3.592  11.909  0.00  0.00    +0.000 C 
ATOM     24  C   UNL     1       4.965   3.535  13.387  0.00  0.00    +0.000 C 
ENDBRANCH  19  20
ENDBRANCH  16  19
ENDBRANCH   2  14
TORSDOF 5
ENDMDL
MODEL 2
REMARK VINA RESULT:      -7.0      0.741      2.275
REMARK  Name = 
REMARK  7 active torsions:
REMARK  status: ('A' for Active; 'I' for Inactive)
REMARK    1  A    between atoms: C_1  and  C_2
REMARK    2  A    between atoms: C_2  and  C_3
REMARK    3  A    between atoms: C_7  and  C_8
REMARK    4  A    between atoms: C_9  and  N_10
REMARK    5  A    between atoms: C_11  and  C_13
REMARK    6  A    between atoms: C_15  and  C_16
REMARK    7  A    between atoms: C_16  and  N_17
REMARK                            x       y       z     vdW  Elec       q    Type
REMARK                         _______ _______ _______ _____ _____    ______ ____
ROOT
ATOM      1  N   UNL     1       4.713   4.661  18.288  0.00  0.00    +0.000 N 
ATOM      2  C   UNL     1       6.005   5.053  18.566  0.00  0.00    +0.000 C 
ATOM      3  O   UNL     1       6.468   5.235  19.688  0.00  0.00    +0.000 OA
ATOM      4  H   UNL     1       4.416   4.936  17.353  0.00  0.00    +0.000 HD
ENDROOT
BRANCH   1  11
ATOM      5  C   UNL     1       3.506   3.326  19.996  0.00  0.00    +0.000 A 
ATOM      6  C   UNL     1       2.443   3.263  20.904  0.00  0.00    +0.000 A 
ATOM      7  C   UNL     1       1.584   4.340  21.094  0.00  0.00    +0.000 A 
ATOM      8  C   UNL     1       1.776   5.518  20.364  0.00  0.00    +0.000 A 
ATOM      9  C   UNL     1       2.828   5.622  19.453  0.00  0.00    +0.000 A 
ATOM     10  C   UNL     1       3.014   6.929  18.724  0.00  0.00    +0.000 C 
ATOM     11  C   UNL     1       3.713   4.533  19.273  0.00  0.00    +0.000 A 
BRANCH   5  13
ATOM     12  C   UNL     1       3.757   1.258  18.471  0.00  0.00    +0.000 C 
ATOM     13  C   UNL     1       4.243   2.025  19.697  0.00  0.00    +0.000 C 
ENDBRANCH   5  13
ENDBRANCH   1  11
BRANCH   2  14
ATOM     14  C   UNL     1       6.847   5.181  17.361  0.00  0.00    +0.000 A 
ATOM     15  C   UNL     1       7.019   4.212  16.344  0.00  0.00    +0.000 A 
ATOM     16  C   UNL     1       7.265   4.987  15.233  0.00  0.00    +0.000 A 
ATOM     17  O   UNL     1       7.629   6.235  15.641  0.00  0.00    +0.000 OA
ATOM     18  N   UNL     1       7.408   6.350  17.006  0.00  0.00    +0.000 NA
BRANCH  16  19
ATOM     19  C   UNL     1       6.905   4.802  13.798  0.00  0.00    +0.000 C 
BRANCH  19  20
ATOM     20  N   UNL     1       6.330   3.539  13.348  0.00  0.00    +0.000 NA
ATOM     21  C   UNL     1       6.824   3.065  12.059  0.00  0.00    +0.000 C 
ATOM     22  C   UNL     1       5.799   3.539  11.053  0.00  0.00    +0.000 C 
ATOM     23  C   UNL     1       4.486   3.493  11.817  0.00  0.00    +0.000 C 
ATOM     24  C   UNL     1       4.869   3.518  13.292  0.00  0.00    +0.000 C 
ENDBRANCH  19  20
ENDBRANCH  16  19
ENDBRANCH   2  14
TORSDOF 5
ENDMDL
MODEL 3
REMARK VINA RESULT:      -6.9      4.242      6.194
REMARK  Name = 
REMARK  7 active torsions:
REMARK  status: ('A' for Active; 'I' for Inactive)
REMARK    1  A    between atoms: C_1  and  C_2
REMARK    2  A    between atoms: C_2  and  C_3
REMARK    3  A    between atoms: C_7  and  C_8
REMARK    4  A    between atoms: C_9  and  N_10
REMARK    5  A    between atoms: C_11  and  C_13
REMARK    6  A    between atoms: C_15  and  C_16
REMARK    7  A    between atoms: C_16  and  N_17
REMARK                            x       y       z     vdW  Elec       q    Type
REMARK                         _______ _______ _______ _____ _____    ______ ____
ROOT
ATOM      1  N   UNL     1       5.199   6.067  18.015  0.00  0.00    +0.000 N 
ATOM      2  C   UNL     1       5.876   6.751  17.029  0.00  0.00    +0.000 C 
ATOM      3  O   UNL     1       5.464   6.953  15.891  0.00  0.00    +0.000 OA
ATOM      4  H   UNL     1       5.825   5.677  18.718  0.00  0.00    +0.000 HD
ENDROOT
BRANCH   1  11
ATOM      5  C   UNL     1       2.720   5.998  18.091  0.00  0.00    +0.000 A 
ATOM      6  C   UNL     1       1.558   5.238  17.913  0.00  0.00    +0.000 A 
ATOM      7  C   UNL     1       1.612   3.918  17.477  0.00  0.00    +0.000 A 
ATOM      8  C   UNL     1       2.851   3.326  17.210  0.00  0.00    +0.000 A 
ATOM      9  C   UNL     1       4.032   4.053  17.371  0.00  0.00    +0.000 A 
ATOM     10  C   UNL     1       5.337   3.378  17.029  0.00  0.00    +0.000 C 
ATOM     11  C   UNL     1       3.976   5.400  17.797  0.00  0.00    +0.000 A 
BRANCH   5  13
ATOM     12  C   UNL     1       2.195   8.517  17.878  0.00  0.00    +0.000 C 
ATOM     13  C   UNL     1       2.567   7.348  18.785  0.00  0.00    +0.000 C 
ENDBRANCH   5  13
ENDBRANCH   1  11
BRANCH   2  14
ATOM     14  C   UNL     1       7.165   7.304  17.484  0.00  0.00    +0.000 A 
ATOM     15  C   UNL     1       7.655   8.611  17.248  0.00  0.00    +0.000 A 
ATOM     16  C   UNL     1       8.442   8.839  18.354  0.00  0.00    +0.000 A 
ATOM     17  O   UNL     1       8.727   7.644  18.944  0.00  0.00    +0.000 OA
ATOM     18  N   UNL     1       7.949   6.653  18.361  0.00  0.00    +0.000 NA
BRANCH  16  19
ATOM     19  C   UNL     1       8.723  10.080  19.130  0.00  0.00    +0.000 C 
BRANCH  19  20
ATOM     20  N   UNL     1       9.238  11.264  18.450  0.00  0.00    +0.000 NA
ATOM     21  C   UNL     1      10.548  11.094  17.829  0.00  0.00    +0.000 C 
ATOM     22  C   UNL     1      11.532  11.626  18.848  0.00  0.00    +0.000 C 
ATOM     23  C   UNL     1      10.775  12.748  19.538  0.00  0.00    +0.000 C 
ATOM     24  C   UNL     1       9.299  12.467  19.279  0.00  0.00    +0.000 C 
ENDBRANCH  19  20
ENDBRANCH  16  19
ENDBRANCH   2  14
TORSDOF 5
ENDMDL
MODEL 4
REMARK VINA RESULT:      -6.9      1.089      1.138
REMARK  Name = 
REMARK  7 active torsions:
REMARK  status: ('A' for Active; 'I' for Inactive)
REMARK    1  A    between atoms: C_1  and  C_2
REMARK    2  A    between atoms: C_2  and  C_3
REMARK    3  A    between atoms: C_7  and  C_8
REMARK    4  A    between atoms: C_9  and  N_10
REMARK    5  A    between atoms: C_11  and  C_13
REMARK    6  A    between atoms: C_15  and  C_16
REMARK    7  A    between atoms: C_16  and  N_17
REMARK                            x       y       z     vdW  Elec       q    Type
REMARK                         _______ _______ _______ _____ _____    ______ ____
ROOT
ATOM      1  N   UNL     1       3.751   4.558  17.900  0.00  0.00    +0.000 N 
ATOM      2  C   UNL     1       5.107   4.652  18.134  0.00  0.00    +0.000 C 
ATOM      3  O   UNL     1       5.682   4.275  19.150  0.00  0.00    +0.000 OA
ATOM      4  H   UNL     1       3.425   5.243  17.220  0.00  0.00    +0.000 HD
ENDROOT
BRANCH   1  11
ATOM      5  C   UNL     1       2.178   5.008  19.764  0.00  0.00    +0.000 A 
ATOM      6  C   UNL     1       1.329   4.476  20.743  0.00  0.00    +0.000 A 
ATOM      7  C   UNL     1       1.130   3.105  20.864  0.00  0.00    +0.000 A 
ATOM      8  C   UNL     1       1.787   2.228  19.995  0.00  0.00    +0.000 A 
ATOM      9  C   UNL     1       2.637   2.720  19.003  0.00  0.00    +0.000 A 
ATOM     10  C   UNL     1       3.288   1.733  18.066  0.00  0.00    +0.000 C 
ATOM     11  C   UNL     1       2.827   4.116  18.868  0.00  0.00    +0.000 A 
BRANCH   5  13
ATOM     12  C   UNL     1       1.526   7.331  20.682  0.00  0.00    +0.000 C 
ATOM     13  C   UNL     1       2.504   6.495  19.862  0.00  0.00    +0.000 C 
ENDBRANCH   5  13
ENDBRANCH   1  11
BRANCH   2  14
ATOM     14  C   UNL     1       5.857   5.206  16.991  0.00  0.00    +0.000 A 
ATOM     15  C   UNL     1       6.905   4.572  16.281  0.00  0.00    +0.000 A 
ATOM     16  C   UNL     1       6.779   5.112  15.020  0.00  0.00    +0.000 A 
ATOM     17  O   UNL     1       6.031   6.248  15.102  0.00  0.00    +0.000 OA
ATOM     18  N   UNL     1       5.478   6.338  16.372  0.00  0.00    +0.000 NA
BRANCH  16  19
ATOM     19  C   UNL     1       7.016   4.532  13.668  0.00  0.00    +0.000 C 
BRANCH  19  20
ATOM     20  N   UNL     1       6.291   3.337  13.250  0.00  0.00    +0.000 NA
ATOM     21  C   UNL     1       6.681   2.807  11.947  0.00  0.00    +0.000 C 
ATOM     22  C   UNL     1       5.676   3.385  10.976  0.00  0.00    +0.000 C 
ATOM     23  C   UNL     1       4.396   3.486  11.789  0.00  0.00    +0.000 C 
ATOM     24  C   UNL     1       4.835   3.475  13.249  0.00  0.00    +0.000 C 
ENDBRANCH  19  20
ENDBRANCH  16  19
ENDBRANCH   2  14
TORSDOF 5
ENDMDL
MODEL 5
REMARK VINA RESULT:      -6.8      1.224      1.510
REMARK  Name = 
REMARK  7 active torsions:
REMARK  status: ('A' for Active; 'I' for Inactive)
REMARK    1  A    between atoms: C_1  and  C_2
REMARK    2  A    between atoms: C_2  and  C_3
REMARK    3  A    between atoms: C_7  and  C_8
REMARK    4  A    between atoms: C_9  and  N_10
REMARK    5  A    between atoms: C_11  and  C_13
REMARK    6  A    between atoms: C_15  and  C_16
REMARK    7  A    between atoms: C_16  and  N_17
REMARK                            x       y       z     vdW  Elec       q    Type
REMARK                         _______ _______ _______ _____ _____    ______ ____
ROOT
ATOM      1  N   UNL     1       3.927   4.647  18.224  0.00  0.00    +0.000 N 
ATOM      2  C   UNL     1       5.206   4.559  18.731  0.00  0.00    +0.000 C 
ATOM      3  O   UNL     1       5.525   3.979  19.764  0.00  0.00    +0.000 OA
ATOM      4  H   UNL     1       3.805   5.455  17.616  0.00  0.00    +0.000 HD
ENDROOT
BRANCH   1  11
ATOM      5  C   UNL     1       2.009   5.004  19.756  0.00  0.00    +0.000 A 
ATOM      6  C   UNL     1       0.937   4.433  20.453  0.00  0.00    +0.000 A 
ATOM      7  C   UNL     1       0.640   3.078  20.346  0.00  0.00    +0.000 A 
ATOM      8  C   UNL     1       1.424   2.258  19.528  0.00  0.00    +0.000 A 
ATOM      9  C   UNL     1       2.497   2.792  18.812  0.00  0.00    +0.000 A 
ATOM     10  C   UNL     1       3.283   1.871  17.912  0.00  0.00    +0.000 C 
ATOM     11  C   UNL     1       2.789   4.172  18.907  0.00  0.00    +0.000 A 
BRANCH   5  13
ATOM     12  C   UNL     1       2.214   7.465  19.004  0.00  0.00    +0.000 C 
ATOM     13  C   UNL     1       2.387   6.437  20.118  0.00  0.00    +0.000 C 
ENDBRANCH   5  13
ENDBRANCH   1  11
BRANCH   2  14
ATOM     14  C   UNL     1       6.220   5.188  17.864  0.00  0.00    +0.000 A 
ATOM     15  C   UNL     1       7.276   4.533  17.186  0.00  0.00    +0.000 A 
ATOM     16  C   UNL     1       7.457   5.328  16.076  0.00  0.00    +0.000 A 
ATOM     17  O   UNL     1       6.876   6.539  16.305  0.00  0.00    +0.000 OA
ATOM     18  N   UNL     1       6.123   6.470  17.470  0.00  0.00    +0.000 NA
BRANCH  16  19
ATOM     19  C   UNL     1       7.846   4.998  14.676  0.00  0.00    +0.000 C 
BRANCH  19  20
ATOM     20  N   UNL     1       6.881   5.160  13.594  0.00  0.00    +0.000 NA
ATOM     21  C   UNL     1       5.675   4.348  13.720  0.00  0.00    +0.000 C 
ATOM     22  C   UNL     1       5.946   3.118  12.883  0.00  0.00    +0.000 C 
ATOM     23  C   UNL     1       6.819   3.631  11.749  0.00  0.00    +0.000 C 
ATOM     24  C   UNL     1       7.422   4.936  12.253  0.00  0.00    +0.000 C 
ENDBRANCH  19  20
ENDBRANCH  16  19
ENDBRANCH   2  14
TORSDOF 5
ENDMDL
MODEL 6
REMARK VINA RESULT:      -6.7      4.252      7.441
REMARK  Name = 
REMARK  7 active torsions:
REMARK  status: ('A' for Active; 'I' for Inactive)
REMARK    1  A    between atoms: C_1  and  C_2
REMARK    2  A    between atoms: C_2  and  C_3
REMARK    3  A    between atoms: C_7  and  C_8
REMARK    4  A    between atoms: C_9  and  N_10
REMARK    5  A    between atoms: C_11  and  C_13
REMARK    6  A    between atoms: C_15  and  C_16
REMARK    7  A    between atoms: C_16  and  N_17
REMARK                            x       y       z     vdW  Elec       q    Type
REMARK                         _______ _______ _______ _____ _____    ______ ____
ROOT
ATOM      1  N   UNL     1       0.578   9.265  19.136  0.00  0.00    +0.000 N 
ATOM      2  C   UNL     1       1.682   9.256  18.310  0.00  0.00    +0.000 C 
ATOM      3  O   UNL     1       2.075  10.204  17.638  0.00  0.00    +0.000 OA
ATOM      4  H   UNL     1       0.199   8.331  19.288  0.00  0.00    +0.000 HD
ENDROOT
BRANCH   1  11
ATOM      5  C   UNL     1      -1.374  10.539  18.286  0.00  0.00    +0.000 A 
ATOM      6  C   UNL     1      -2.173  11.683  18.401  0.00  0.00    +0.000 A 
ATOM      7  C   UNL     1      -1.941  12.636  19.388  0.00  0.00    +0.000 A 
ATOM      8  C   UNL     1      -0.888  12.457  20.291  0.00  0.00    +0.000 A 
ATOM      9  C   UNL     1      -0.073  11.327  20.213  0.00  0.00    +0.000 A 
ATOM     10  C   UNL     1       1.023  11.164  21.237  0.00  0.00    +0.000 C 
ATOM     11  C   UNL     1      -0.319  10.349  19.220  0.00  0.00    +0.000 A 
BRANCH   5  13
ATOM     12  C   UNL     1      -2.661  10.143  16.084  0.00  0.00    +0.000 C 
ATOM     13  C   UNL     1      -1.566   9.680  17.041  0.00  0.00    +0.000 C 
ENDBRANCH   5  13
ENDBRANCH   1  11
BRANCH   2  14
ATOM     14  C   UNL     1       2.425   7.983  18.346  0.00  0.00    +0.000 A 
ATOM     15  C   UNL     1       2.033   6.794  19.007  0.00  0.00    +0.000 A 
ATOM     16  C   UNL     1       2.609   5.816  18.227  0.00  0.00    +0.000 A 
ATOM     17  O   UNL     1       3.583   6.383  17.461  0.00  0.00    +0.000 OA
ATOM     18  N   UNL     1       3.501   7.764  17.569  0.00  0.00    +0.000 NA
BRANCH  16  19
ATOM     19  C   UNL     1       2.158   4.441  17.871  0.00  0.00    +0.000 C 
BRANCH  19  20
ATOM     20  N   UNL     1       2.498   3.315  18.735  0.00  0.00    +0.000 NA
ATOM     21  C   UNL     1       1.358   2.528  19.195  0.00  0.00    +0.000 C 
ATOM     22  C   UNL     1       1.030   3.084  20.563  0.00  0.00    +0.000 C 
ATOM     23  C   UNL     1       2.379   3.504  21.122  0.00  0.00    +0.000 C 
ATOM     24  C   UNL     1       3.292   3.666  19.912  0.00  0.00    +0.000 C 
ENDBRANCH  19  20
ENDBRANCH  16  19
ENDBRANCH   2  14
TORSDOF 5
ENDMDL
MODEL 7
REMARK VINA RESULT:      -6.7      4.259      7.435
REMARK  Name = 
REMARK  7 active torsions:
REMARK  status: ('A' for Active; 'I' for Inactive)
REMARK    1  A    between atoms: C_1  and  C_2
REMARK    2  A    between atoms: C_2  and  C_3
REMARK    3  A    between atoms: C_7  and  C_8
REMARK    4  A    between atoms: C_9  and  N_10
REMARK    5  A    between atoms: C_11  and  C_13
REMARK    6  A    between atoms: C_15  and  C_16
REMARK    7  A    between atoms: C_16  and  N_17
REMARK                            x       y       z     vdW  Elec       q    Type
REMARK                         _______ _______ _______ _____ _____    ______ ____
ROOT
ATOM      1  N   UNL     1       2.745   6.302  19.957  0.00  0.00    +0.000 N 
ATOM      2  C   UNL     1       2.303   7.027  18.871  0.00  0.00    +0.000 C 
ATOM      3  O   UNL     1       2.210   6.605  17.723  0.00  0.00    +0.000 OA
ATOM      4  H   UNL     1       3.113   6.896  20.698  0.00  0.00    +0.000 HD
ENDROOT
BRANCH   1  11
ATOM      5  C   UNL     1       4.590   4.736  19.409  0.00  0.00    +0.000 A 
ATOM      6  C   UNL     1       5.002   3.405  19.269  0.00  0.00    +0.000 A 
ATOM      7  C   UNL     1       4.140   2.346  19.537  0.00  0.00    +0.000 A 
ATOM      8  C   UNL     1       2.831   2.605  19.955  0.00  0.00    +0.000 A 
ATOM      9  C   UNL     1       2.385   3.918  20.112  0.00  0.00    +0.000 A 
ATOM     10  C   UNL     1       0.977   4.140  20.605  0.00  0.00    +0.000 C 
ATOM     11  C   UNL     1       3.266   4.995  19.856  0.00  0.00    +0.000 A 
BRANCH   5  13
ATOM     12  C   UNL     1       7.017   5.560  19.098  0.00  0.00    +0.000 C 
ATOM     13  C   UNL     1       5.529   5.812  18.874  0.00  0.00    +0.000 C 
ENDBRANCH   5  13
ENDBRANCH   1  11
BRANCH   2  14
ATOM     14  C   UNL     1       1.870   8.392  19.221  0.00  0.00    +0.000 A 
ATOM     15  C   UNL     1       1.652   9.466  18.324  0.00  0.00    +0.000 A 
ATOM     16  C   UNL     1       0.677  10.197  18.965  0.00  0.00    +0.000 A 
ATOM     17  O   UNL     1       0.647   9.832  20.278  0.00  0.00    +0.000 OA
ATOM     18  N   UNL     1       1.443   8.709  20.456  0.00  0.00    +0.000 NA
BRANCH  16  19
ATOM     19  C   UNL     1      -0.467  10.995  18.440  0.00  0.00    +0.000 C 
BRANCH  19  20
ATOM     20  N   UNL     1      -1.775  10.371  18.273  0.00  0.00    +0.000 NA
ATOM     21  C   UNL     1      -1.953   9.642  17.022  0.00  0.00    +0.000 C 
ATOM     22  C   UNL     1      -2.642  10.621  16.097  0.00  0.00    +0.000 C 
ATOM     23  C   UNL     1      -3.514  11.451  17.025  0.00  0.00    +0.000 C 
ATOM     24  C   UNL     1      -2.910  11.283  18.415  0.00  0.00    +0.000 C 
ENDBRANCH  19  20
ENDBRANCH  16  19
ENDBRANCH   2  14
TORSDOF 5
ENDMDL
MODEL 8
REMARK VINA RESULT:      -6.7      4.417      6.851
REMARK  Name = 
REMARK  7 active torsions:
REMARK  status: ('A' for Active; 'I' for Inactive)
REMARK    1  A    between atoms: C_1  and  C_2
REMARK    2  A    between atoms: C_2  and  C_3
REMARK    3  A    between atoms: C_7  and  C_8
REMARK    4  A    between atoms: C_9  and  N_10
REMARK    5  A    between atoms: C_11  and  C_13
REMARK    6  A    between atoms: C_15  and  C_16
REMARK    7  A    between atoms: C_16  and  N_17
REMARK                            x       y       z     vdW  Elec       q    Type
REMARK                         _______ _______ _______ _____ _____    ______ ____
ROOT
ATOM      1  N   UNL     1       5.582   5.874  18.131  0.00  0.00    +0.000 N 
ATOM      2  C   UNL     1       6.048   6.796  17.218  0.00  0.00    +0.000 C 
ATOM      3  O   UNL     1       5.477   7.124  16.183  0.00  0.00    +0.000 OA
ATOM      4  H   UNL     1       6.332   5.463  18.685  0.00  0.00    +0.000 HD
ENDROOT
BRANCH   1  11
ATOM      5  C   UNL     1       4.435   3.921  17.119  0.00  0.00    +0.000 A 
ATOM      6  C   UNL     1       3.227   3.246  16.907  0.00  0.00    +0.000 A 
ATOM      7  C   UNL     1       2.031   3.709  17.446  0.00  0.00    +0.000 A 
ATOM      8  C   UNL     1       2.023   4.875  18.218  0.00  0.00    +0.000 A 
ATOM      9  C   UNL     1       3.208   5.574  18.457  0.00  0.00    +0.000 A 
ATOM     10  C   UNL     1       3.149   6.802  19.331  0.00  0.00    +0.000 C 
ATOM     11  C   UNL     1       4.427   5.093  17.924  0.00  0.00    +0.000 A 
BRANCH   5  13
ATOM     12  C   UNL     1       5.723   4.019  14.884  0.00  0.00    +0.000 C 
ATOM     13  C   UNL     1       5.639   3.463  16.303  0.00  0.00    +0.000 C 
ENDBRANCH   5  13
ENDBRANCH   1  11
BRANCH   2  14
ATOM     14  C   UNL     1       7.311   7.436  17.630  0.00  0.00    +0.000 A 
ATOM     15  C   UNL     1       7.794   8.699  17.212  0.00  0.00    +0.000 A 
ATOM     16  C   UNL     1       8.534   9.111  18.298  0.00  0.00    +0.000 A 
ATOM     17  O   UNL     1       8.808   8.027  19.077  0.00  0.00    +0.000 OA
ATOM     18  N   UNL     1       8.067   6.944  18.628  0.00  0.00    +0.000 NA
BRANCH  16  19
ATOM     19  C   UNL     1       8.768  10.462  18.880  0.00  0.00    +0.000 C 
BRANCH  19  20
ATOM     20  N   UNL     1       9.861  10.670  19.825  0.00  0.00    +0.000 NA
ATOM     21  C   UNL     1       9.467  11.267  21.097  0.00  0.00    +0.000 C 
ATOM     22  C   UNL     1       9.736  12.746  20.932  0.00  0.00    +0.000 C 
ATOM     23  C   UNL     1      10.947  12.798  20.016  0.00  0.00    +0.000 C 
ATOM     24  C   UNL     1      10.981  11.452  19.302  0.00  0.00    +0.000 C 
ENDBRANCH  19  20
ENDBRANCH  16  19
ENDBRANCH   2  14
TORSDOF 5
ENDMDL
MODEL 9
REMARK VINA RESULT:      -6.6      3.990      5.930
REMARK  Name = 
REMARK  7 active torsions:
REMARK  status: ('A' for Active; 'I' for Inactive)
REMARK    1  A    between atoms: C_1  and  C_2
REMARK    2  A    between atoms: C_2  and  C_3
REMARK    3  A    between atoms: C_7  and  C_8
REMARK    4  A    between atoms: C_9  and  N_10
REMARK    5  A    between atoms: C_11  and  C_13
REMARK    6  A    between atoms: C_15  and  C_16
REMARK    7  A    between atoms: C_16  and  N_17
REMARK                            x       y       z     vdW  Elec       q    Type
REMARK                         _______ _______ _______ _____ _____    ______ ____
ROOT
ATOM      1  N   UNL     1       5.000   5.836  17.682  0.00  0.00    +0.000 N 
ATOM      2  C   UNL     1       6.047   5.577  18.541  0.00  0.00    +0.000 C 
ATOM      3  O   UNL     1       6.077   4.679  19.376  0.00  0.00    +0.000 OA
ATOM      4  H   UNL     1       4.990   6.803  17.362  0.00  0.00    +0.000 HD
ENDROOT
BRANCH   1  11
ATOM      5  C   UNL     1       2.670   5.639  18.511  0.00  0.00    +0.000 A 
ATOM      6  C   UNL     1       1.503   4.867  18.571  0.00  0.00    +0.000 A 
ATOM      7  C   UNL     1       1.406   3.645  17.914  0.00  0.00    +0.000 A 
ATOM      8  C   UNL     1       2.493   3.166  17.175  0.00  0.00    +0.000 A 
ATOM      9  C   UNL     1       3.671   3.909  17.086  0.00  0.00    +0.000 A 
ATOM     10  C   UNL     1       4.797   3.364  16.242  0.00  0.00    +0.000 C 
ATOM     11  C   UNL     1       3.764   5.160  17.740  0.00  0.00    +0.000 A 
BRANCH   5  13
ATOM     12  C   UNL     1       1.712   6.887  20.557  0.00  0.00    +0.000 C 
ATOM     13  C   UNL     1       2.755   6.842  19.444  0.00  0.00    +0.000 C 
ENDBRANCH   5  13
ENDBRANCH   1  11
BRANCH   2  14
ATOM     14  C   UNL     1       7.208   6.461  18.327  0.00  0.00    +0.000 A 
ATOM     15  C   UNL     1       7.277   7.565  17.444  0.00  0.00    +0.000 A 
ATOM     16  C   UNL     1       8.180   8.393  18.073  0.00  0.00    +0.000 A 
ATOM     17  O   UNL     1       8.881   7.664  18.986  0.00  0.00    +0.000 OA
ATOM     18  N   UNL     1       8.294   6.414  19.118  0.00  0.00    +0.000 NA
BRANCH  16  19
ATOM     19  C   UNL     1       8.270   9.878  18.153  0.00  0.00    +0.000 C 
BRANCH  19  20
ATOM     20  N   UNL     1       9.469  10.508  18.698  0.00  0.00    +0.000 NA
ATOM     21  C   UNL     1       9.281  11.177  19.981  0.00  0.00    +0.000 C 
ATOM     22  C   UNL     1       9.048  12.630  19.631  0.00  0.00    +0.000 C 
ATOM     23  C   UNL     1       9.893  12.846  18.386  0.00  0.00    +0.000 C 
ATOM     24  C   UNL     1      10.123  11.458  17.799  0.00  0.00    +0.000 C 
ENDBRANCH  19  20
ENDBRANCH  16  19
ENDBRANCH   2  14
TORSDOF 5
ENDMDL
