MODEL 1
REMARK VINA RESULT:      -6.8      0.000      0.000
REMARK  Name = 
REMARK  10 active torsions:
REMARK  status: ('A' for Active; 'I' for Inactive)
REMARK    1  A    between atoms: C_1  and  C_2
REMARK    2  A    between atoms: C_2  and  C_3
REMARK    3  A    between atoms: C_3  and  C_4
REMARK    4  A    between atoms: C_8  and  S_9
REMARK    5  A    between atoms: S_9  and  C_10
REMARK    6  A    between atoms: C_10  and  C_11
REMARK    7  A    between atoms: N_13  and  C_14
REMARK    8  A    between atoms: C_17  and  O_18
REMARK    9  A    between atoms: O_18  and  C_19
REMARK   10  A    between atoms: C_25  and  C_26
REMARK                            x       y       z     vdW  Elec       q    Type
REMARK                         _______ _______ _______ _____ _____    ______ ____
ROOT
ATOM      1  C   UNL     1       0.217  10.012  20.527  0.00  0.00    +0.000 A 
ATOM      2  S   UNL     1      -0.023   8.709  21.617  0.00  0.00    +0.000 S 
ATOM      3  C   UNL     1       1.038   7.684  20.759  0.00  0.00    +0.000 A 
ATOM      4  N   UNL     1       1.307   6.417  21.166  0.00  0.00    +0.000 NA
ATOM      5  C   UNL     1       2.133   5.762  20.403  0.00  0.00    +0.000 A 
ATOM      6  N   UNL     1       2.733   6.289  19.243  0.00  0.00    +0.000 N 
ATOM      7  C   UNL     1       2.497   7.613  18.841  0.00  0.00    +0.000 A 
ATOM      8  O   UNL     1       3.028   8.136  17.863  0.00  0.00    +0.000 OA
ATOM      9  C   UNL     1       1.565   8.330  19.672  0.00  0.00    +0.000 A 
ATOM     10  C   UNL     1       1.081   9.675  19.495  0.00  0.00    +0.000 A 
ATOM     11  C   UNL     1       1.436  10.598  18.368  0.00  0.00    +0.000 C 
ENDROOT
BRANCH   6  12
ATOM     12  C   UNL     1       3.624   5.555  18.415  0.00  0.00    +0.000 A 
ATOM     13  C   UNL     1       3.115   4.648  17.476  0.00  0.00    +0.000 A 
ATOM     14  C   UNL     1       3.975   3.988  16.606  0.00  0.00    +0.000 A 
ATOM     15  C   UNL     1       5.341   4.230  16.668  0.00  0.00    +0.000 A 
ATOM     16  C   UNL     1       5.862   5.040  17.685  0.00  0.00    +0.000 A 
ATOM     17  C   UNL     1       5.005   5.698  18.563  0.00  0.00    +0.000 A 
BRANCH  15  18
ATOM     18  O   UNL     1       6.107   3.603  15.722  0.00  0.00    +0.000 OA
ATOM     19  C   UNL     1       6.793   4.492  14.845  0.00  0.00    +0.000 C 
ENDBRANCH  15  18
ENDBRANCH   6  12
BRANCH   1  20
ATOM     20  C   UNL     1      -0.501  11.326  20.720  0.00  0.00    +0.000 C 
BRANCH  20  22
ATOM     21  C   UNL     1      -1.936  11.868  22.719  0.00  0.00    +0.000 C 
ATOM     22  C   UNL     1      -0.517  11.779  22.177  0.00  0.00    +0.000 C 
ENDBRANCH  20  22
ENDBRANCH   1  20
BRANCH   5  23
ATOM     23  S   UNL     1       2.671   4.166  20.941  0.00  0.00    +0.000 S 
BRANCH  23  24
ATOM     24  C   UNL     1       1.162   3.169  20.900  0.00  0.00    +0.000 C 
BRANCH  24  25
ATOM     25  C   UNL     1       0.777   2.695  19.565  0.00  0.00    +0.000 C 
ATOM     26  N   UNL     1       0.450   2.298  18.524  0.00  0.00    +0.000 NA
ENDBRANCH  24  25
ENDBRANCH  23  24
ENDBRANCH   5  23
TORSDOF 7
ENDMDL
MODEL 2
REMARK VINA RESULT:      -6.5      0.380      1.004
REMARK  Name = 
REMARK  10 active torsions:
REMARK  status: ('A' for Active; 'I' for Inactive)
REMARK    1  A    between atoms: C_1  and  C_2
REMARK    2  A    between atoms: C_2  and  C_3
REMARK    3  A    between atoms: C_3  and  C_4
REMARK    4  A    between atoms: C_8  and  S_9
REMARK    5  A    between atoms: S_9  and  C_10
REMARK    6  A    between atoms: C_10  and  C_11
REMARK    7  A    between atoms: N_13  and  C_14
REMARK    8  A    between atoms: C_17  and  O_18
REMARK    9  A    between atoms: O_18  and  C_19
REMARK   10  A    between atoms: C_25  and  C_26
REMARK                            x       y       z     vdW  Elec       q    Type
REMARK                         _______ _______ _______ _____ _____    ______ ____
ROOT
ATOM      1  C   UNL     1       0.244  10.143  20.759  0.00  0.00    +0.000 A 
ATOM      2  S   UNL     1       0.092   8.806  21.823  0.00  0.00    +0.000 S 
ATOM      3  C   UNL     1       1.068   7.806  20.843  0.00  0.00    +0.000 A 
ATOM      4  N   UNL     1       1.365   6.526  21.183  0.00  0.00    +0.000 NA
ATOM      5  C   UNL     1       2.118   5.894  20.330  0.00  0.00    +0.000 A 
ATOM      6  N   UNL     1       2.617   6.457  19.141  0.00  0.00    +0.000 N 
ATOM      7  C   UNL     1       2.355   7.794  18.804  0.00  0.00    +0.000 A 
ATOM      8  O   UNL     1       2.802   8.348  17.801  0.00  0.00    +0.000 OA
ATOM      9  C   UNL     1       1.503   8.486  19.735  0.00  0.00    +0.000 A 
ATOM     10  C   UNL     1       1.013   9.838  19.645  0.00  0.00    +0.000 A 
ATOM     11  C   UNL     1       1.273  10.796  18.522  0.00  0.00    +0.000 C 
ENDROOT
BRANCH   6  12
ATOM     12  C   UNL     1       3.428   5.748  18.215  0.00  0.00    +0.000 A 
ATOM     13  C   UNL     1       4.757   6.143  18.006  0.00  0.00    +0.000 A 
ATOM     14  C   UNL     1       5.581   5.404  17.165  0.00  0.00    +0.000 A 
ATOM     15  C   UNL     1       5.086   4.271  16.533  0.00  0.00    +0.000 A 
ATOM     16  C   UNL     1       3.729   3.946  16.643  0.00  0.00    +0.000 A 
ATOM     17  C   UNL     1       2.897   4.686  17.479  0.00  0.00    +0.000 A 
BRANCH  15  18
ATOM     18  O   UNL     1       5.986   3.556  15.790  0.00  0.00    +0.000 OA
ATOM     19  C   UNL     1       6.128   4.014  14.448  0.00  0.00    +0.000 C 
ENDBRANCH  15  18
ENDBRANCH   6  12
BRANCH   1  20
ATOM     20  C   UNL     1      -0.447  11.452  21.056  0.00  0.00    +0.000 C 
BRANCH  20  22
ATOM     21  C   UNL     1      -2.279  12.336  22.544  0.00  0.00    +0.000 C 
ATOM     22  C   UNL     1      -1.000  11.515  22.478  0.00  0.00    +0.000 C 
ENDBRANCH  20  22
ENDBRANCH   1  20
BRANCH   5  23
ATOM     23  S   UNL     1       2.691   4.280  20.768  0.00  0.00    +0.000 S 
BRANCH  23  24
ATOM     24  C   UNL     1       1.180   3.287  20.820  0.00  0.00    +0.000 C 
BRANCH  24  25
ATOM     25  C   UNL     1       0.800   2.683  19.537  0.00  0.00    +0.000 C 
ATOM     26  N   UNL     1       0.466   2.214  18.529  0.00  0.00    +0.000 NA
ENDBRANCH  24  25
ENDBRANCH  23  24
ENDBRANCH   5  23
TORSDOF 7
ENDMDL
MODEL 3
REMARK VINA RESULT:      -6.5      1.488      1.899
REMARK  Name = 
REMARK  10 active torsions:
REMARK  status: ('A' for Active; 'I' for Inactive)
REMARK    1  A    between atoms: C_1  and  C_2
REMARK    2  A    between atoms: C_2  and  C_3
REMARK    3  A    between atoms: C_3  and  C_4
REMARK    4  A    between atoms: C_8  and  S_9
REMARK    5  A    between atoms: S_9  and  C_10
REMARK    6  A    between atoms: C_10  and  C_11
REMARK    7  A    between atoms: N_13  and  C_14
REMARK    8  A    between atoms: C_17  and  O_18
REMARK    9  A    between atoms: O_18  and  C_19
REMARK   10  A    between atoms: C_25  and  C_26
REMARK                            x       y       z     vdW  Elec       q    Type
REMARK                         _______ _______ _______ _____ _____    ______ ____
ROOT
ATOM      1  C   UNL     1       0.946   8.617  20.180  0.00  0.00    +0.000 A 
ATOM      2  S   UNL     1       1.058   7.150  21.064  0.00  0.00    +0.000 S 
ATOM      3  C   UNL     1       2.187   6.480  19.973  0.00  0.00    +0.000 A 
ATOM      4  N   UNL     1       2.719   5.244  20.150  0.00  0.00    +0.000 NA
ATOM      5  C   UNL     1       3.563   4.875  19.230  0.00  0.00    +0.000 A 
ATOM      6  N   UNL     1       3.932   5.667  18.126  0.00  0.00    +0.000 N 
ATOM      7  C   UNL     1       3.424   6.964  17.960  0.00  0.00    +0.000 A 
ATOM      8  O   UNL     1       3.746   7.714  17.040  0.00  0.00    +0.000 OA
ATOM      9  C   UNL     1       2.473   7.363  18.965  0.00  0.00    +0.000 A 
ATOM     10  C   UNL     1       1.741   8.602  19.043  0.00  0.00    +0.000 A 
ATOM     11  C   UNL     1       1.804   9.726  18.054  0.00  0.00    +0.000 C 
ENDROOT
BRANCH   6  12
ATOM     12  C   UNL     1       4.846   5.243  17.125  0.00  0.00    +0.000 A 
ATOM     13  C   UNL     1       4.389   4.482  16.041  0.00  0.00    +0.000 A 
ATOM     14  C   UNL     1       5.261   4.134  15.015  0.00  0.00    +0.000 A 
ATOM     15  C   UNL     1       6.587   4.544  15.066  0.00  0.00    +0.000 A 
ATOM     16  C   UNL     1       7.074   5.196  16.205  0.00  0.00    +0.000 A 
ATOM     17  C   UNL     1       6.206   5.541  17.238  0.00  0.00    +0.000 A 
BRANCH  15  18
ATOM     18  O   UNL     1       7.355   4.230  13.977  0.00  0.00    +0.000 OA
ATOM     19  C   UNL     1       6.606   3.853  12.825  0.00  0.00    +0.000 C 
ENDBRANCH  15  18
ENDBRANCH   6  12
BRANCH   1  20
ATOM     20  C   UNL     1       0.030   9.727  20.635  0.00  0.00    +0.000 C 
BRANCH  20  22
ATOM     21  C   UNL     1      -0.534  10.251  23.035  0.00  0.00    +0.000 C 
ATOM     22  C   UNL     1       0.502  10.385  21.930  0.00  0.00    +0.000 C 
ENDBRANCH  20  22
ENDBRANCH   1  20
BRANCH   5  23
ATOM     23  S   UNL     1       4.430   3.352  19.463  0.00  0.00    +0.000 S 
BRANCH  23  24
ATOM     24  C   UNL     1       3.501   2.171  18.456  0.00  0.00    +0.000 C 
BRANCH  24  25
ATOM     25  C   UNL     1       2.047   2.209  18.652  0.00  0.00    +0.000 C 
ATOM     26  N   UNL     1       0.894   2.208  18.790  0.00  0.00    +0.000 NA
ENDBRANCH  24  25
ENDBRANCH  23  24
ENDBRANCH   5  23
TORSDOF 7
ENDMDL
MODEL 4
REMARK VINA RESULT:      -6.4      1.780      2.187
REMARK  Name = 
REMARK  10 active torsions:
REMARK  status: ('A' for Active; 'I' for Inactive)
REMARK    1  A    between atoms: C_1  and  C_2
REMARK    2  A    between atoms: C_2  and  C_3
REMARK    3  A    between atoms: C_3  and  C_4
REMARK    4  A    between atoms: C_8  and  S_9
REMARK    5  A    between atoms: S_9  and  C_10
REMARK    6  A    between atoms: C_10  and  C_11
REMARK    7  A    between atoms: N_13  and  C_14
REMARK    8  A    between atoms: C_17  and  O_18
REMARK    9  A    between atoms: O_18  and  C_19
REMARK   10  A    between atoms: C_25  and  C_26
REMARK                            x       y       z     vdW  Elec       q    Type
REMARK                         _______ _______ _______ _____ _____    ______ ____
ROOT
ATOM      1  C   UNL     1       0.971   8.829  20.030  0.00  0.00    +0.000 A 
ATOM      2  S   UNL     1       1.248   7.439  20.997  0.00  0.00    +0.000 S 
ATOM      3  C   UNL     1       2.352   6.775  19.877  0.00  0.00    +0.000 A 
ATOM      4  N   UNL     1       2.984   5.594  20.096  0.00  0.00    +0.000 NA
ATOM      5  C   UNL     1       3.793   5.222  19.146  0.00  0.00    +0.000 A 
ATOM      6  N   UNL     1       4.031   5.960  17.971  0.00  0.00    +0.000 N 
ATOM      7  C   UNL     1       3.418   7.204  17.757  0.00  0.00    +0.000 A 
ATOM      8  O   UNL     1       3.625   7.909  16.771  0.00  0.00    +0.000 OA
ATOM      9  C   UNL     1       2.507   7.604  18.797  0.00  0.00    +0.000 A 
ATOM     10  C   UNL     1       1.691   8.791  18.845  0.00  0.00    +0.000 A 
ATOM     11  C   UNL     1       1.608   9.846  17.783  0.00  0.00    +0.000 C 
ENDROOT
BRANCH   6  12
ATOM     12  C   UNL     1       4.908   5.532  16.939  0.00  0.00    +0.000 A 
ATOM     13  C   UNL     1       4.450   4.641  15.959  0.00  0.00    +0.000 A 
ATOM     14  C   UNL     1       5.277   4.283  14.900  0.00  0.00    +0.000 A 
ATOM     15  C   UNL     1       6.558   4.812  14.813  0.00  0.00    +0.000 A 
ATOM     16  C   UNL     1       7.059   5.603  15.853  0.00  0.00    +0.000 A 
ATOM     17  C   UNL     1       6.238   5.959  16.920  0.00  0.00    +0.000 A 
BRANCH  15  18
ATOM     18  O   UNL     1       7.273   4.473  13.696  0.00  0.00    +0.000 OA
ATOM     19  C   UNL     1       6.532   3.729  12.733  0.00  0.00    +0.000 C 
ENDBRANCH  15  18
ENDBRANCH   6  12
BRANCH   1  20
ATOM     20  C   UNL     1       0.007   9.902  20.475  0.00  0.00    +0.000 C 
BRANCH  20  22
ATOM     21  C   UNL     1       0.626  12.344  20.411  0.00  0.00    +0.000 C 
ATOM     22  C   UNL     1       0.699  11.049  21.206  0.00  0.00    +0.000 C 
ENDBRANCH  20  22
ENDBRANCH   1  20
BRANCH   5  23
ATOM     23  S   UNL     1       4.783   3.783  19.417  0.00  0.00    +0.000 S 
BRANCH  23  24
ATOM     24  C   UNL     1       3.570   2.485  19.755  0.00  0.00    +0.000 C 
BRANCH  24  25
ATOM     25  C   UNL     1       2.918   2.581  21.066  0.00  0.00    +0.000 C 
ATOM     26  N   UNL     1       2.393   2.624  22.101  0.00  0.00    +0.000 NA
ENDBRANCH  24  25
ENDBRANCH  23  24
ENDBRANCH   5  23
TORSDOF 7
ENDMDL
MODEL 5
REMARK VINA RESULT:      -6.2      1.435      1.813
REMARK  Name = 
REMARK  10 active torsions:
REMARK  status: ('A' for Active; 'I' for Inactive)
REMARK    1  A    between atoms: C_1  and  C_2
REMARK    2  A    between atoms: C_2  and  C_3
REMARK    3  A    between atoms: C_3  and  C_4
REMARK    4  A    between atoms: C_8  and  S_9
REMARK    5  A    between atoms: S_9  and  C_10
REMARK    6  A    between atoms: C_10  and  C_11
REMARK    7  A    between atoms: N_13  and  C_14
REMARK    8  A    between atoms: C_17  and  O_18
REMARK    9  A    between atoms: O_18  and  C_19
REMARK   10  A    between atoms: C_25  and  C_26
REMARK                            x       y       z     vdW  Elec       q    Type
REMARK                         _______ _______ _______ _____ _____    ______ ____
ROOT
ATOM      1  C   UNL     1       0.471   9.330  20.316  0.00  0.00    +0.000 A 
ATOM      2  S   UNL     1       0.672   7.929  21.286  0.00  0.00    +0.000 S 
ATOM      3  C   UNL     1       1.830   7.258  20.228  0.00  0.00    +0.000 A 
ATOM      4  N   UNL     1       2.432   6.067  20.474  0.00  0.00    +0.000 NA
ATOM      5  C   UNL     1       3.290   5.689  19.570  0.00  0.00    +0.000 A 
ATOM      6  N   UNL     1       3.607   6.432  18.417  0.00  0.00    +0.000 N 
ATOM      7  C   UNL     1       3.025   7.686  18.177  0.00  0.00    +0.000 A 
ATOM      8  O   UNL     1       3.298   8.395  17.210  0.00  0.00    +0.000 OA
ATOM      9  C   UNL     1       2.059   8.092  19.165  0.00  0.00    +0.000 A 
ATOM     10  C   UNL     1       1.259   9.290  19.175  0.00  0.00    +0.000 A 
ATOM     11  C   UNL     1       1.252  10.354  18.118  0.00  0.00    +0.000 C 
ENDROOT
BRANCH   6  12
ATOM     12  C   UNL     1       4.537   5.999  17.434  0.00  0.00    +0.000 A 
ATOM     13  C   UNL     1       5.815   6.573  17.383  0.00  0.00    +0.000 A 
ATOM     14  C   UNL     1       6.758   6.097  16.479  0.00  0.00    +0.000 A 
ATOM     15  C   UNL     1       6.432   5.049  15.628  0.00  0.00    +0.000 A 
ATOM     16  C   UNL     1       5.121   4.559  15.592  0.00  0.00    +0.000 A 
ATOM     17  C   UNL     1       4.171   5.037  16.490  0.00  0.00    +0.000 A 
BRANCH  15  18
ATOM     18  O   UNL     1       7.443   4.587  14.829  0.00  0.00    +0.000 OA
ATOM     19  C   UNL     1       7.031   4.239  13.510  0.00  0.00    +0.000 C 
ENDBRANCH  15  18
ENDBRANCH   6  12
BRANCH   1  20
ATOM     20  C   UNL     1      -0.503  10.413  20.712  0.00  0.00    +0.000 C 
BRANCH  20  22
ATOM     21  C   UNL     1      -1.145  10.763  23.124  0.00  0.00    +0.000 C 
ATOM     22  C   UNL     1      -0.133  11.082  22.034  0.00  0.00    +0.000 C 
ENDBRANCH  20  22
ENDBRANCH   1  20
BRANCH   5  23
ATOM     23  S   UNL     1       4.243   4.235  19.887  0.00  0.00    +0.000 S 
BRANCH  23  24
ATOM     24  C   UNL     1       3.018   2.905  19.857  0.00  0.00    +0.000 C 
BRANCH  24  25
ATOM     25  C   UNL     1       2.281   2.722  21.114  0.00  0.00    +0.000 C 
ATOM     26  N   UNL     1       1.678   2.607  22.100  0.00  0.00    +0.000 NA
ENDBRANCH  24  25
ENDBRANCH  23  24
ENDBRANCH   5  23
TORSDOF 7
ENDMDL
MODEL 6
REMARK VINA RESULT:      -6.1      2.204      2.684
REMARK  Name = 
REMARK  10 active torsions:
REMARK  status: ('A' for Active; 'I' for Inactive)
REMARK    1  A    between atoms: C_1  and  C_2
REMARK    2  A    between atoms: C_2  and  C_3
REMARK    3  A    between atoms: C_3  and  C_4
REMARK    4  A    between atoms: C_8  and  S_9
REMARK    5  A    between atoms: S_9  and  C_10
REMARK    6  A    between atoms: C_10  and  C_11
REMARK    7  A    between atoms: N_13  and  C_14
REMARK    8  A    between atoms: C_17  and  O_18
REMARK    9  A    between atoms: O_18  and  C_19
REMARK   10  A    between atoms: C_25  and  C_26
REMARK                            x       y       z     vdW  Elec       q    Type
REMARK                         _______ _______ _______ _____ _____    ______ ____
ROOT
ATOM      1  C   UNL     1       1.205   8.447  20.141  0.00  0.00    +0.000 A 
ATOM      2  S   UNL     1       1.508   6.987  20.991  0.00  0.00    +0.000 S 
ATOM      3  C   UNL     1       2.564   6.404  19.783  0.00  0.00    +0.000 A 
ATOM      4  N   UNL     1       3.196   5.207  19.889  0.00  0.00    +0.000 NA
ATOM      5  C   UNL     1       3.965   4.903  18.884  0.00  0.00    +0.000 A 
ATOM      6  N   UNL     1       4.164   5.725  17.758  0.00  0.00    +0.000 N 
ATOM      7  C   UNL     1       3.552   6.985  17.661  0.00  0.00    +0.000 A 
ATOM      8  O   UNL     1       3.726   7.760  16.723  0.00  0.00    +0.000 OA
ATOM      9  C   UNL     1       2.683   7.310  18.762  0.00  0.00    +0.000 A 
ATOM     10  C   UNL     1       1.879   8.494  18.930  0.00  0.00    +0.000 A 
ATOM     11  C   UNL     1       1.763   9.626  17.953  0.00  0.00    +0.000 C 
ENDROOT
BRANCH   6  12
ATOM     12  C   UNL     1       4.998   5.372  16.665  0.00  0.00    +0.000 A 
ATOM     13  C   UNL     1       4.534   4.472  15.696  0.00  0.00    +0.000 A 
ATOM     14  C   UNL     1       5.312   4.186  14.579  0.00  0.00    +0.000 A 
ATOM     15  C   UNL     1       6.550   4.795  14.424  0.00  0.00    +0.000 A 
ATOM     16  C   UNL     1       7.067   5.597  15.449  0.00  0.00    +0.000 A 
ATOM     17  C   UNL     1       6.296   5.882  16.572  0.00  0.00    +0.000 A 
BRANCH  15  18
ATOM     18  O   UNL     1       7.212   4.522  13.258  0.00  0.00    +0.000 OA
ATOM     19  C   UNL     1       8.202   5.487  12.911  0.00  0.00    +0.000 C 
ENDBRANCH  15  18
ENDBRANCH   6  12
BRANCH   1  20
ATOM     20  C   UNL     1       0.266   9.487  20.701  0.00  0.00    +0.000 C 
BRANCH  20  22
ATOM     21  C   UNL     1      -0.724  10.449  22.810  0.00  0.00    +0.000 C 
ATOM     22  C   UNL     1      -0.104   9.222  22.159  0.00  0.00    +0.000 C 
ENDBRANCH  20  22
ENDBRANCH   1  20
BRANCH   5  23
ATOM     23  S   UNL     1       4.955   3.444  19.009  0.00  0.00    +0.000 S 
BRANCH  23  24
ATOM     24  C   UNL     1       4.097   2.450  20.253  0.00  0.00    +0.000 C 
BRANCH  24  25
ATOM     25  C   UNL     1       4.976   1.619  21.085  0.00  0.00    +0.000 C 
ATOM     26  N   UNL     1       5.674   0.988  21.766  0.00  0.00    +0.000 NA
ENDBRANCH  24  25
ENDBRANCH  23  24
ENDBRANCH   5  23
TORSDOF 7
ENDMDL
MODEL 7
REMARK VINA RESULT:      -6.0      1.602      2.183
REMARK  Name = 
REMARK  10 active torsions:
REMARK  status: ('A' for Active; 'I' for Inactive)
REMARK    1  A    between atoms: C_1  and  C_2
REMARK    2  A    between atoms: C_2  and  C_3
REMARK    3  A    between atoms: C_3  and  C_4
REMARK    4  A    between atoms: C_8  and  S_9
REMARK    5  A    between atoms: S_9  and  C_10
REMARK    6  A    between atoms: C_10  and  C_11
REMARK    7  A    between atoms: N_13  and  C_14
REMARK    8  A    between atoms: C_17  and  O_18
REMARK    9  A    between atoms: O_18  and  C_19
REMARK   10  A    between atoms: C_25  and  C_26
REMARK                            x       y       z     vdW  Elec       q    Type
REMARK                         _______ _______ _______ _____ _____    ______ ____
ROOT
ATOM      1  C   UNL     1       0.972   8.750  20.189  0.00  0.00    +0.000 A 
ATOM      2  S   UNL     1       1.309   7.348  21.121  0.00  0.00    +0.000 S 
ATOM      3  C   UNL     1       2.379   6.722  19.947  0.00  0.00    +0.000 A 
ATOM      4  N   UNL     1       3.038   5.548  20.121  0.00  0.00    +0.000 NA
ATOM      5  C   UNL     1       3.815   5.205  19.134  0.00  0.00    +0.000 A 
ATOM      6  N   UNL     1       3.995   5.966  17.963  0.00  0.00    +0.000 N 
ATOM      7  C   UNL     1       3.354   7.203  17.794  0.00  0.00    +0.000 A 
ATOM      8  O   UNL     1       3.510   7.927  16.813  0.00  0.00    +0.000 OA
ATOM      9  C   UNL     1       2.477   7.571  18.876  0.00  0.00    +0.000 A 
ATOM     10  C   UNL     1       1.645   8.743  18.976  0.00  0.00    +0.000 A 
ATOM     11  C   UNL     1       1.503   9.814  17.936  0.00  0.00    +0.000 C 
ENDROOT
BRANCH   6  12
ATOM     12  C   UNL     1       4.837   5.570  16.891  0.00  0.00    +0.000 A 
ATOM     13  C   UNL     1       6.064   6.218  16.692  0.00  0.00    +0.000 A 
ATOM     14  C   UNL     1       6.931   5.781  15.696  0.00  0.00    +0.000 A 
ATOM     15  C   UNL     1       6.579   4.699  14.899  0.00  0.00    +0.000 A 
ATOM     16  C   UNL     1       5.305   4.131  15.014  0.00  0.00    +0.000 A 
ATOM     17  C   UNL     1       4.431   4.569  16.005  0.00  0.00    +0.000 A 
BRANCH  15  18
ATOM     18  O   UNL     1       7.524   4.283  14.001  0.00  0.00    +0.000 OA
ATOM     19  C   UNL     1       7.942   5.292  13.085  0.00  0.00    +0.000 C 
ENDBRANCH  15  18
ENDBRANCH   6  12
BRANCH   1  20
ATOM     20  C   UNL     1       0.009   9.798  20.690  0.00  0.00    +0.000 C 
BRANCH  20  22
ATOM     21  C   UNL     1      -0.707  10.064  23.091  0.00  0.00    +0.000 C 
ATOM     22  C   UNL     1       0.386  10.334  22.069  0.00  0.00    +0.000 C 
ENDBRANCH  20  22
ENDBRANCH   1  20
BRANCH   5  23
ATOM     23  S   UNL     1       4.838   3.779  19.342  0.00  0.00    +0.000 S 
BRANCH  23  24
ATOM     24  C   UNL     1       3.654   2.423  19.515  0.00  0.00    +0.000 C 
BRANCH  24  25
ATOM     25  C   UNL     1       2.619   2.377  18.476  0.00  0.00    +0.000 C 
ATOM     26  N   UNL     1       1.777   2.327  17.677  0.00  0.00    +0.000 NA
ENDBRANCH  24  25
ENDBRANCH  23  24
ENDBRANCH   5  23
TORSDOF 7
ENDMDL
MODEL 8
REMARK VINA RESULT:      -6.0      1.569      1.958
REMARK  Name = 
REMARK  10 active torsions:
REMARK  status: ('A' for Active; 'I' for Inactive)
REMARK    1  A    between atoms: C_1  and  C_2
REMARK    2  A    between atoms: C_2  and  C_3
REMARK    3  A    between atoms: C_3  and  C_4
REMARK    4  A    between atoms: C_8  and  S_9
REMARK    5  A    between atoms: S_9  and  C_10
REMARK    6  A    between atoms: C_10  and  C_11
REMARK    7  A    between atoms: N_13  and  C_14
REMARK    8  A    between atoms: C_17  and  O_18
REMARK    9  A    between atoms: O_18  and  C_19
REMARK   10  A    between atoms: C_25  and  C_26
REMARK                            x       y       z     vdW  Elec       q    Type
REMARK                         _______ _______ _______ _____ _____    ______ ____
ROOT
ATOM      1  C   UNL     1       1.078   8.951  20.011  0.00  0.00    +0.000 A 
ATOM      2  S   UNL     1       1.231   7.542  20.979  0.00  0.00    +0.000 S 
ATOM      3  C   UNL     1       2.311   6.803  19.883  0.00  0.00    +0.000 A 
ATOM      4  N   UNL     1       2.851   5.579  20.113  0.00  0.00    +0.000 NA
ATOM      5  C   UNL     1       3.653   5.151  19.181  0.00  0.00    +0.000 A 
ATOM      6  N   UNL     1       3.972   5.872  18.014  0.00  0.00    +0.000 N 
ATOM      7  C   UNL     1       3.456   7.158  17.790  0.00  0.00    +0.000 A 
ATOM      8  O   UNL     1       3.736   7.848  16.812  0.00  0.00    +0.000 OA
ATOM      9  C   UNL     1       2.550   7.621  18.810  0.00  0.00    +0.000 A 
ATOM     10  C   UNL     1       1.822   8.863  18.843  0.00  0.00    +0.000 A 
ATOM     11  C   UNL     1       1.840   9.924  17.784  0.00  0.00    +0.000 C 
ENDROOT
BRANCH   6  12
ATOM     12  C   UNL     1       4.841   5.385  17.002  0.00  0.00    +0.000 A 
ATOM     13  C   UNL     1       4.378   4.429  16.086  0.00  0.00    +0.000 A 
ATOM     14  C   UNL     1       5.195   4.010  15.043  0.00  0.00    +0.000 A 
ATOM     15  C   UNL     1       6.471   4.540  14.907  0.00  0.00    +0.000 A 
ATOM     16  C   UNL     1       6.979   5.399  15.889  0.00  0.00    +0.000 A 
ATOM     17  C   UNL     1       6.167   5.818  16.940  0.00  0.00    +0.000 A 
BRANCH  15  18
ATOM     18  O   UNL     1       7.176   4.135  13.806  0.00  0.00    +0.000 OA
ATOM     19  C   UNL     1       7.763   5.201  13.065  0.00  0.00    +0.000 C 
ENDBRANCH  15  18
ENDBRANCH   6  12
BRANCH   1  20
ATOM     20  C   UNL     1       0.183  10.089  20.437  0.00  0.00    +0.000 C 
BRANCH  20  22
ATOM     21  C   UNL     1      -1.434  11.682  19.342  0.00  0.00    +0.000 C 
ATOM     22  C   UNL     1      -1.057  10.224  19.556  0.00  0.00    +0.000 C 
ENDBRANCH  20  22
ENDBRANCH   1  20
BRANCH   5  23
ATOM     23  S   UNL     1       4.531   3.644  19.470  0.00  0.00    +0.000 S 
BRANCH  23  24
ATOM     24  C   UNL     1       3.270   2.536  20.143  0.00  0.00    +0.000 C 
BRANCH  24  25
ATOM     25  C   UNL     1       2.074   2.387  19.305  0.00  0.00    +0.000 C 
ATOM     26  N   UNL     1       1.110   2.261  18.670  0.00  0.00    +0.000 NA
ENDBRANCH  24  25
ENDBRANCH  23  24
ENDBRANCH   5  23
TORSDOF 7
ENDMDL
MODEL 9
REMARK VINA RESULT:      -6.0      0.935      1.209
REMARK  Name = 
REMARK  10 active torsions:
REMARK  status: ('A' for Active; 'I' for Inactive)
REMARK    1  A    between atoms: C_1  and  C_2
REMARK    2  A    between atoms: C_2  and  C_3
REMARK    3  A    between atoms: C_3  and  C_4
REMARK    4  A    between atoms: C_8  and  S_9
REMARK    5  A    between atoms: S_9  and  C_10
REMARK    6  A    between atoms: C_10  and  C_11
REMARK    7  A    between atoms: N_13  and  C_14
REMARK    8  A    between atoms: C_17  and  O_18
REMARK    9  A    between atoms: O_18  and  C_19
REMARK   10  A    between atoms: C_25  and  C_26
REMARK                            x       y       z     vdW  Elec       q    Type
REMARK                         _______ _______ _______ _____ _____    ______ ____
ROOT
ATOM      1  C   UNL     1       0.317   9.978  20.385  0.00  0.00    +0.000 A 
ATOM      2  S   UNL     1       0.073   8.683  21.485  0.00  0.00    +0.000 S 
ATOM      3  C   UNL     1       1.161   7.662  20.656  0.00  0.00    +0.000 A 
ATOM      4  N   UNL     1       1.438   6.402  21.081  0.00  0.00    +0.000 NA
ATOM      5  C   UNL     1       2.285   5.749  20.339  0.00  0.00    +0.000 A 
ATOM      6  N   UNL     1       2.899   6.272  19.185  0.00  0.00    +0.000 N 
ATOM      7  C   UNL     1       2.655   7.588  18.764  0.00  0.00    +0.000 A 
ATOM      8  O   UNL     1       3.197   8.108  17.791  0.00  0.00    +0.000 OA
ATOM      9  C   UNL     1       1.700   8.302  19.571  0.00  0.00    +0.000 A 
ATOM     10  C   UNL     1       1.203   9.640  19.372  0.00  0.00    +0.000 A 
ATOM     11  C   UNL     1       1.567  10.555  18.242  0.00  0.00    +0.000 C 
ENDROOT
BRANCH   6  12
ATOM     12  C   UNL     1       3.813   5.540  18.380  0.00  0.00    +0.000 A 
ATOM     13  C   UNL     1       3.346   4.824  17.269  0.00  0.00    +0.000 A 
ATOM     14  C   UNL     1       4.244   4.174  16.430  0.00  0.00    +0.000 A 
ATOM     15  C   UNL     1       5.606   4.237  16.694  0.00  0.00    +0.000 A 
ATOM     16  C   UNL     1       6.064   4.845  17.868  0.00  0.00    +0.000 A 
ATOM     17  C   UNL     1       5.168   5.492  18.716  0.00  0.00    +0.000 A 
BRANCH  15  18
ATOM     18  O   UNL     1       6.424   3.640  15.772  0.00  0.00    +0.000 OA
ATOM     19  C   UNL     1       7.054   4.552  14.877  0.00  0.00    +0.000 C 
ENDBRANCH  15  18
ENDBRANCH   6  12
BRANCH   1  20
ATOM     20  C   UNL     1      -0.420  11.284  20.552  0.00  0.00    +0.000 C 
BRANCH  20  22
ATOM     21  C   UNL     1      -1.363  12.931  18.893  0.00  0.00    +0.000 C 
ATOM     22  C   UNL     1      -1.455  11.520  19.455  0.00  0.00    +0.000 C 
ENDBRANCH  20  22
ENDBRANCH   1  20
BRANCH   5  23
ATOM     23  S   UNL     1       2.832   4.165  20.904  0.00  0.00    +0.000 S 
BRANCH  23  24
ATOM     24  C   UNL     1       1.776   3.003  20.007  0.00  0.00    +0.000 C 
BRANCH  24  25
ATOM     25  C   UNL     1       2.495   2.083  19.116  0.00  0.00    +0.000 C 
ATOM     26  N   UNL     1       3.057   1.377  18.385  0.00  0.00    +0.000 NA
ENDBRANCH  24  25
ENDBRANCH  23  24
ENDBRANCH   5  23
TORSDOF 7
ENDMDL
