MODEL 1
REMARK VINA RESULT:      -7.8      0.000      0.000
REMARK  Name = 
REMARK  12 active torsions:
REMARK  status: ('A' for Active; 'I' for Inactive)
REMARK    1  A    between atoms: C_1  and  C_2
REMARK    2  A    between atoms: C_2  and  N_3
REMARK    3  A    between atoms: C_2  and  C_4
REMARK    4  A    between atoms: N_6  and  C_7
REMARK    5  A    between atoms: C_7  and  C_8
REMARK    6  A    between atoms: C_7  and  C_26
REMARK    7  A    between atoms: N_10  and  C_11
REMARK    8  A    between atoms: C_11  and  C_12
REMARK    9  A    between atoms: C_11  and  C_13
REMARK   10  A    between atoms: N_15  and  C_16
REMARK   11  A    between atoms: C_26  and  C_27
REMARK   12  A    between atoms: C_26  and  C_28
REMARK                            x       y       z     vdW  Elec       q    Type
REMARK                         _______ _______ _______ _____ _____    ______ ____
ROOT
ATOM      1  C   UNL     1      -0.148  11.156  18.714  0.00  0.00    +0.000 C 
ATOM      2  O   UNL     1       0.816  11.908  18.577  0.00  0.00    +0.000 OA
ATOM      3  N   UNL     1      -0.027   9.896  19.249  0.00  0.00    +0.000 N 
ATOM      4  H   UNL     1      -0.765   9.214  19.045  0.00  0.00    +0.000 HD
ENDROOT
BRANCH   3   5
ATOM      5  C   UNL     1       1.234   9.366  19.776  0.00  0.00    +0.000 C 
ATOM      6  C   UNL     1       0.988   8.679  21.115  0.00  0.00    +0.000 C 
BRANCH   5   7
ATOM      7  C   UNL     1       1.810   8.388  18.728  0.00  0.00    +0.000 C 
ATOM      8  O   UNL     1       1.742   8.666  17.530  0.00  0.00    +0.000 OA
ATOM      9  N   UNL     1       2.371   7.227  19.249  0.00  0.00    +0.000 N 
ATOM     10  H   UNL     1       2.194   7.026  20.222  0.00  0.00    +0.000 HD
BRANCH   9  11
ATOM     11  C   UNL     1       3.012   6.202  18.492  0.00  0.00    +0.000 A 
ATOM     12  C   UNL     1       4.115   6.513  17.683  0.00  0.00    +0.000 A 
ATOM     13  C   UNL     1       4.733   5.547  16.898  0.00  0.00    +0.000 A 
ATOM     14  C   UNL     1       4.263   4.243  16.915  0.00  0.00    +0.000 A 
ATOM     15  C   UNL     1       3.184   3.880  17.730  0.00  0.00    +0.000 A 
ATOM     16  C   UNL     1       2.743   2.548  17.713  0.00  0.00    +0.000 A 
ATOM     17  C   UNL     1       1.676   2.136  18.504  0.00  0.00    +0.000 A 
ATOM     18  C   UNL     1       1.039   3.055  19.327  0.00  0.00    +0.000 A 
ATOM     19  C   UNL     1       1.464   4.389  19.351  0.00  0.00    +0.000 A 
ATOM     20  C   UNL     1       2.545   4.849  18.553  0.00  0.00    +0.000 A 
ENDBRANCH   9  11
ENDBRANCH   5   7
ENDBRANCH   3   5
BRANCH   1  21
ATOM     21  C   UNL     1      -1.583  11.514  18.246  0.00  0.00    +0.000 C 
BRANCH  21  24
ATOM     22  C   UNL     1      -2.419  12.758  20.225  0.00  0.00    +0.000 C 
ATOM     23  O   UNL     1      -1.726  13.738  19.965  0.00  0.00    +0.000 OA
ATOM     24  N   UNL     1      -2.423  11.631  19.435  0.00  0.00    +0.000 N 
ATOM     25  H   UNL     1      -2.992  10.847  19.737  0.00  0.00    +0.000 HD
BRANCH  22  27
ATOM     26  C   UNL     1      -2.781  13.454  22.641  0.00  0.00    +0.000 C 
ATOM     27  C   UNL     1      -3.333  12.652  21.468  0.00  0.00    +0.000 C 
BRANCH  27  28
ATOM     28  N   UNL     1      -4.698  13.106  21.122  0.00  0.00    +0.000 NA
ATOM     29  H   UNL     1      -4.618  13.925  20.515  0.00  0.00    +0.000 HD
ATOM     30  H   UNL     1      -5.154  13.448  21.969  0.00  0.00    +0.000 HD
ENDBRANCH  27  28
ENDBRANCH  22  27
ENDBRANCH  21  24
BRANCH  21  31
ATOM     31  C   UNL     1      -2.131  10.458  17.261  0.00  0.00    +0.000 C 
ATOM     32  C   UNL     1      -3.292   9.658  17.864  0.00  0.00    +0.000 C 
ATOM     33  C   UNL     1      -2.618  11.118  15.962  0.00  0.00    +0.000 C 
ENDBRANCH  21  31
ENDBRANCH   1  21
TORSDOF 8
ENDMDL
MODEL 2
REMARK VINA RESULT:      -7.8      1.719      2.866
REMARK  Name = 
REMARK  12 active torsions:
REMARK  status: ('A' for Active; 'I' for Inactive)
REMARK    1  A    between atoms: C_1  and  C_2
REMARK    2  A    between atoms: C_2  and  N_3
REMARK    3  A    between atoms: C_2  and  C_4
REMARK    4  A    between atoms: N_6  and  C_7
REMARK    5  A    between atoms: C_7  and  C_8
REMARK    6  A    between atoms: C_7  and  C_26
REMARK    7  A    between atoms: N_10  and  C_11
REMARK    8  A    between atoms: C_11  and  C_12
REMARK    9  A    between atoms: C_11  and  C_13
REMARK   10  A    between atoms: N_15  and  C_16
REMARK   11  A    between atoms: C_26  and  C_27
REMARK   12  A    between atoms: C_26  and  C_28
REMARK                            x       y       z     vdW  Elec       q    Type
REMARK                         _______ _______ _______ _____ _____    ______ ____
ROOT
ATOM      1  C   UNL     1       0.244  11.541  20.798  0.00  0.00    +0.000 C 
ATOM      2  O   UNL     1       0.486  11.631  22.000  0.00  0.00    +0.000 OA
ATOM      3  N   UNL     1       0.589  10.434  20.059  0.00  0.00    +0.000 N 
ATOM      4  H   UNL     1       0.663  10.539  19.042  0.00  0.00    +0.000 HD
ENDROOT
BRANCH   3   5
ATOM      5  C   UNL     1       1.199   9.237  20.644  0.00  0.00    +0.000 C 
ATOM      6  C   UNL     1       0.186   8.522  21.533  0.00  0.00    +0.000 C 
BRANCH   5   7
ATOM      7  C   UNL     1       1.681   8.336  19.486  0.00  0.00    +0.000 C 
ATOM      8  O   UNL     1       1.545   8.713  18.321  0.00  0.00    +0.000 OA
ATOM      9  N   UNL     1       2.240   7.124  19.874  0.00  0.00    +0.000 N 
ATOM     10  H   UNL     1       2.119   6.847  20.837  0.00  0.00    +0.000 HD
BRANCH   9  11
ATOM     11  C   UNL     1       2.803   6.150  18.997  0.00  0.00    +0.000 A 
ATOM     12  C   UNL     1       3.844   6.508  18.127  0.00  0.00    +0.000 A 
ATOM     13  C   UNL     1       4.383   5.595  17.228  0.00  0.00    +0.000 A 
ATOM     14  C   UNL     1       3.895   4.298  17.188  0.00  0.00    +0.000 A 
ATOM     15  C   UNL     1       2.878   3.888  18.059  0.00  0.00    +0.000 A 
ATOM     16  C   UNL     1       2.415   2.565  17.981  0.00  0.00    +0.000 A 
ATOM     17  C   UNL     1       1.407   2.108  18.822  0.00  0.00    +0.000 A 
ATOM     18  C   UNL     1       0.851   2.971  19.757  0.00  0.00    +0.000 A 
ATOM     19  C   UNL     1       1.299   4.295  19.844  0.00  0.00    +0.000 A 
ATOM     20  C   UNL     1       2.321   4.801  18.997  0.00  0.00    +0.000 A 
ENDBRANCH   9  11
ENDBRANCH   5   7
ENDBRANCH   3   5
BRANCH   1  21
ATOM     21  C   UNL     1      -0.414  12.677  19.972  0.00  0.00    +0.000 C 
BRANCH  21  24
ATOM     22  C   UNL     1      -2.388  11.930  18.664  0.00  0.00    +0.000 C 
ATOM     23  O   UNL     1      -3.170  12.320  19.527  0.00  0.00    +0.000 OA
ATOM     24  N   UNL     1      -1.024  12.074  18.791  0.00  0.00    +0.000 N 
ATOM     25  H   UNL     1      -0.442  11.692  18.053  0.00  0.00    +0.000 HD
BRANCH  22  27
ATOM     26  C   UNL     1      -3.038   9.720  17.594  0.00  0.00    +0.000 C 
ATOM     27  C   UNL     1      -2.822  11.212  17.365  0.00  0.00    +0.000 C 
BRANCH  27  28
ATOM     28  N   UNL     1      -4.051  11.842  16.835  0.00  0.00    +0.000 NA
ATOM     29  H   UNL     1      -3.820  12.794  16.542  0.00  0.00    +0.000 HD
ATOM     30  H   UNL     1      -4.716  11.955  17.601  0.00  0.00    +0.000 HD
ENDBRANCH  27  28
ENDBRANCH  22  27
ENDBRANCH  21  24
BRANCH  21  31
ATOM     31  C   UNL     1       0.617  13.763  19.591  0.00  0.00    +0.000 C 
ATOM     32  C   UNL     1       0.006  14.848  18.698  0.00  0.00    +0.000 C 
ATOM     33  C   UNL     1       1.197  14.435  20.845  0.00  0.00    +0.000 C 
ENDBRANCH  21  31
ENDBRANCH   1  21
TORSDOF 8
ENDMDL
MODEL 3
REMARK VINA RESULT:      -7.6      1.870      3.616
REMARK  Name = 
REMARK  12 active torsions:
REMARK  status: ('A' for Active; 'I' for Inactive)
REMARK    1  A    between atoms: C_1  and  C_2
REMARK    2  A    between atoms: C_2  and  N_3
REMARK    3  A    between atoms: C_2  and  C_4
REMARK    4  A    between atoms: N_6  and  C_7
REMARK    5  A    between atoms: C_7  and  C_8
REMARK    6  A    between atoms: C_7  and  C_26
REMARK    7  A    between atoms: N_10  and  C_11
REMARK    8  A    between atoms: C_11  and  C_12
REMARK    9  A    between atoms: C_11  and  C_13
REMARK   10  A    between atoms: N_15  and  C_16
REMARK   11  A    between atoms: C_26  and  C_27
REMARK   12  A    between atoms: C_26  and  C_28
REMARK                            x       y       z     vdW  Elec       q    Type
REMARK                         _______ _______ _______ _____ _____    ______ ____
ROOT
ATOM      1  C   UNL     1       0.898  11.502  20.019  0.00  0.00    +0.000 C 
ATOM      2  O   UNL     1       1.431  11.724  21.105  0.00  0.00    +0.000 OA
ATOM      3  N   UNL     1       0.957  10.272  19.408  0.00  0.00    +0.000 N 
ATOM      4  H   UNL     1       0.792  10.229  18.397  0.00  0.00    +0.000 HD
ENDROOT
BRANCH   3   5
ATOM      5  C   UNL     1       1.586   9.101  20.024  0.00  0.00    +0.000 C 
ATOM      6  C   UNL     1       0.682   8.542  21.118  0.00  0.00    +0.000 C 
BRANCH   5   7
ATOM      7  C   UNL     1       1.846   8.062  18.910  0.00  0.00    +0.000 C 
ATOM      8  O   UNL     1       1.626   8.358  17.735  0.00  0.00    +0.000 OA
ATOM      9  N   UNL     1       2.316   6.829  19.350  0.00  0.00    +0.000 N 
ATOM     10  H   UNL     1       2.271   6.646  20.341  0.00  0.00    +0.000 HD
BRANCH   9  11
ATOM     11  C   UNL     1       2.678   5.733  18.513  0.00  0.00    +0.000 A 
ATOM     12  C   UNL     1       1.840   4.611  18.425  0.00  0.00    +0.000 A 
ATOM     13  C   UNL     1       2.186   3.507  17.654  0.00  0.00    +0.000 A 
ATOM     14  C   UNL     1       3.379   3.507  16.948  0.00  0.00    +0.000 A 
ATOM     15  C   UNL     1       4.232   4.617  16.982  0.00  0.00    +0.000 A 
ATOM     16  C   UNL     1       5.430   4.572  16.251  0.00  0.00    +0.000 A 
ATOM     17  C   UNL     1       6.311   5.647  16.253  0.00  0.00    +0.000 A 
ATOM     18  C   UNL     1       6.002   6.785  16.984  0.00  0.00    +0.000 A 
ATOM     19  C   UNL     1       4.813   6.845  17.722  0.00  0.00    +0.000 A 
ATOM     20  C   UNL     1       3.891   5.764  17.752  0.00  0.00    +0.000 A 
ENDBRANCH   9  11
ENDBRANCH   5   7
ENDBRANCH   3   5
BRANCH   1  21
ATOM     21  C   UNL     1       0.159  12.588  19.193  0.00  0.00    +0.000 C 
BRANCH  21  24
ATOM     22  C   UNL     1      -2.089  11.825  18.467  0.00  0.00    +0.000 C 
ATOM     23  O   UNL     1      -2.633  12.337  19.441  0.00  0.00    +0.000 OA
ATOM     24  N   UNL     1      -0.730  11.907  18.257  0.00  0.00    +0.000 N 
ATOM     25  H   UNL     1      -0.351  11.424  17.449  0.00  0.00    +0.000 HD
BRANCH  22  27
ATOM     26  C   UNL     1      -4.348  11.203  17.486  0.00  0.00    +0.000 C 
ATOM     27  C   UNL     1      -2.839  11.009  17.389  0.00  0.00    +0.000 C 
BRANCH  27  28
ATOM     28  N   UNL     1      -2.349  11.389  16.046  0.00  0.00    +0.000 NA
ATOM     29  H   UNL     1      -2.019  10.544  15.575  0.00  0.00    +0.000 HD
ATOM     30  H   UNL     1      -1.519  11.973  16.154  0.00  0.00    +0.000 HD
ENDBRANCH  27  28
ENDBRANCH  22  27
ENDBRANCH  21  24
BRANCH  21  31
ATOM     31  C   UNL     1       1.158  13.512  18.462  0.00  0.00    +0.000 C 
ATOM     32  C   UNL     1       1.494  14.761  19.285  0.00  0.00    +0.000 C 
ATOM     33  C   UNL     1       2.467  12.769  18.150  0.00  0.00    +0.000 C 
ENDBRANCH  21  31
ENDBRANCH   1  21
TORSDOF 8
ENDMDL
MODEL 4
REMARK VINA RESULT:      -7.5      1.724      2.945
REMARK  Name = 
REMARK  12 active torsions:
REMARK  status: ('A' for Active; 'I' for Inactive)
REMARK    1  A    between atoms: C_1  and  C_2
REMARK    2  A    between atoms: C_2  and  N_3
REMARK    3  A    between atoms: C_2  and  C_4
REMARK    4  A    between atoms: N_6  and  C_7
REMARK    5  A    between atoms: C_7  and  C_8
REMARK    6  A    between atoms: C_7  and  C_26
REMARK    7  A    between atoms: N_10  and  C_11
REMARK    8  A    between atoms: C_11  and  C_12
REMARK    9  A    between atoms: C_11  and  C_13
REMARK   10  A    between atoms: N_15  and  C_16
REMARK   11  A    between atoms: C_26  and  C_27
REMARK   12  A    between atoms: C_26  and  C_28
REMARK                            x       y       z     vdW  Elec       q    Type
REMARK                         _______ _______ _______ _____ _____    ______ ____
ROOT
ATOM      1  C   UNL     1      -0.476  11.716  21.475  0.00  0.00    +0.000 C 
ATOM      2  O   UNL     1      -0.077  11.908  22.622  0.00  0.00    +0.000 OA
ATOM      3  N   UNL     1      -0.093  10.621  20.737  0.00  0.00    +0.000 N 
ATOM      4  H   UNL     1      -0.183  10.673  19.717  0.00  0.00    +0.000 HD
ENDROOT
BRANCH   3   5
ATOM      5  C   UNL     1       0.755   9.552  21.270  0.00  0.00    +0.000 C 
ATOM      6  C   UNL     1      -0.044   8.695  22.247  0.00  0.00    +0.000 C 
BRANCH   5   7
ATOM      7  C   UNL     1       1.279   8.722  20.076  0.00  0.00    +0.000 C 
ATOM      8  O   UNL     1       1.186   9.171  18.933  0.00  0.00    +0.000 OA
ATOM      9  N   UNL     1       1.822   7.486  20.409  0.00  0.00    +0.000 N 
ATOM     10  H   UNL     1       1.666   7.152  21.348  0.00  0.00    +0.000 HD
BRANCH   9  11
ATOM     11  C   UNL     1       2.416   6.568  19.494  0.00  0.00    +0.000 A 
ATOM     12  C   UNL     1       3.275   7.035  18.488  0.00  0.00    +0.000 A 
ATOM     13  C   UNL     1       3.834   6.171  17.554  0.00  0.00    +0.000 A 
ATOM     14  C   UNL     1       3.550   4.815  17.613  0.00  0.00    +0.000 A 
ATOM     15  C   UNL     1       2.722   4.300  18.618  0.00  0.00    +0.000 A 
ATOM     16  C   UNL     1       2.462   2.921  18.637  0.00  0.00    +0.000 A 
ATOM     17  C   UNL     1       1.647   2.359  19.613  0.00  0.00    +0.000 A 
ATOM     18  C   UNL     1       1.085   3.172  20.587  0.00  0.00    +0.000 A 
ATOM     19  C   UNL     1       1.331   4.551  20.579  0.00  0.00    +0.000 A 
ATOM     20  C   UNL     1       2.151   5.163  19.594  0.00  0.00    +0.000 A 
ENDBRANCH   9  11
ENDBRANCH   5   7
ENDBRANCH   3   5
BRANCH   1  21
ATOM     21  C   UNL     1      -1.398  12.704  20.715  0.00  0.00    +0.000 C 
BRANCH  21  24
ATOM     22  C   UNL     1      -3.044  11.993  18.997  0.00  0.00    +0.000 C 
ATOM     23  O   UNL     1      -3.989  12.424  19.653  0.00  0.00    +0.000 OA
ATOM     24  N   UNL     1      -1.742  12.097  19.432  0.00  0.00    +0.000 N 
ATOM     25  H   UNL     1      -1.019  11.682  18.853  0.00  0.00    +0.000 HD
BRANCH  22  27
ATOM     26  C   UNL     1      -2.146  10.168  17.476  0.00  0.00    +0.000 C 
ATOM     27  C   UNL     1      -3.194  11.263  17.642  0.00  0.00    +0.000 C 
BRANCH  27  28
ATOM     28  N   UNL     1      -4.558  10.703  17.527  0.00  0.00    +0.000 NA
ATOM     29  H   UNL     1      -5.227  11.468  17.638  0.00  0.00    +0.000 HD
ATOM     30  H   UNL     1      -4.727  10.087  18.323  0.00  0.00    +0.000 HD
ENDBRANCH  27  28
ENDBRANCH  22  27
ENDBRANCH  21  24
BRANCH  21  31
ATOM     31  C   UNL     1      -0.716  14.078  20.531  0.00  0.00    +0.000 C 
ATOM     32  C   UNL     1      -0.044  14.207  19.159  0.00  0.00    +0.000 C 
ATOM     33  C   UNL     1      -1.731  15.222  20.684  0.00  0.00    +0.000 C 
ENDBRANCH  21  31
ENDBRANCH   1  21
TORSDOF 8
ENDMDL
MODEL 5
REMARK VINA RESULT:      -7.5      3.213      9.611
REMARK  Name = 
REMARK  12 active torsions:
REMARK  status: ('A' for Active; 'I' for Inactive)
REMARK    1  A    between atoms: C_1  and  C_2
REMARK    2  A    between atoms: C_2  and  N_3
REMARK    3  A    between atoms: C_2  and  C_4
REMARK    4  A    between atoms: N_6  and  C_7
REMARK    5  A    between atoms: C_7  and  C_8
REMARK    6  A    between atoms: C_7  and  C_26
REMARK    7  A    between atoms: N_10  and  C_11
REMARK    8  A    between atoms: C_11  and  C_12
REMARK    9  A    between atoms: C_11  and  C_13
REMARK   10  A    between atoms: N_15  and  C_16
REMARK   11  A    between atoms: C_26  and  C_27
REMARK   12  A    between atoms: C_26  and  C_28
REMARK                            x       y       z     vdW  Elec       q    Type
REMARK                         _______ _______ _______ _____ _____    ______ ____
ROOT
ATOM      1  C   UNL     1       4.219   5.597  17.084  0.00  0.00    +0.000 C 
ATOM      2  O   UNL     1       3.530   4.579  17.054  0.00  0.00    +0.000 OA
ATOM      3  N   UNL     1       3.779   6.767  17.658  0.00  0.00    +0.000 N 
ATOM      4  H   UNL     1       4.234   7.641  17.377  0.00  0.00    +0.000 HD
ENDROOT
BRANCH   3   5
ATOM      5  C   UNL     1       2.492   6.885  18.349  0.00  0.00    +0.000 C 
ATOM      6  C   UNL     1       2.636   6.421  19.795  0.00  0.00    +0.000 C 
BRANCH   5   7
ATOM      7  C   UNL     1       2.043   8.361  18.264  0.00  0.00    +0.000 C 
ATOM      8  O   UNL     1       2.407   9.057  17.315  0.00  0.00    +0.000 OA
ATOM      9  N   UNL     1       1.242   8.797  19.314  0.00  0.00    +0.000 N 
ATOM     10  H   UNL     1       1.175   8.196  20.122  0.00  0.00    +0.000 HD
BRANCH   9  11
ATOM     11  C   UNL     1       0.662  10.093  19.433  0.00  0.00    +0.000 A 
ATOM     12  C   UNL     1       1.203  11.026  20.331  0.00  0.00    +0.000 A 
ATOM     13  C   UNL     1       0.633  12.282  20.503  0.00  0.00    +0.000 A 
ATOM     14  C   UNL     1      -0.490  12.634  19.770  0.00  0.00    +0.000 A 
ATOM     15  C   UNL     1      -1.046  11.748  18.840  0.00  0.00    +0.000 A 
ATOM     16  C   UNL     1      -2.184  12.148  18.122  0.00  0.00    +0.000 A 
ATOM     17  C   UNL     1      -2.775  11.306  17.188  0.00  0.00    +0.000 A 
ATOM     18  C   UNL     1      -2.231  10.050  16.957  0.00  0.00    +0.000 A 
ATOM     19  C   UNL     1      -1.099   9.633  17.669  0.00  0.00    +0.000 A 
ATOM     20  C   UNL     1      -0.471  10.463  18.637  0.00  0.00    +0.000 A 
ENDBRANCH   9  11
ENDBRANCH   5   7
ENDBRANCH   3   5
BRANCH   1  21
ATOM     21  C   UNL     1       5.623   5.697  16.433  0.00  0.00    +0.000 C 
BRANCH  21  24
ATOM     22  C   UNL     1       6.659   4.812  14.358  0.00  0.00    +0.000 C 
ATOM     23  O   UNL     1       7.595   5.603  14.427  0.00  0.00    +0.000 OA
ATOM     24  N   UNL     1       5.655   4.777  15.300  0.00  0.00    +0.000 N 
ATOM     25  H   UNL     1       4.896   4.121  15.152  0.00  0.00    +0.000 HD
BRANCH  22  27
ATOM     26  C   UNL     1       5.007   3.667  12.805  0.00  0.00    +0.000 C 
ATOM     27  C   UNL     1       6.471   3.794  13.208  0.00  0.00    +0.000 C 
BRANCH  27  28
ATOM     28  N   UNL     1       7.300   4.195  12.050  0.00  0.00    +0.000 NA
ATOM     29  H   UNL     1       6.772   4.877  11.501  0.00  0.00    +0.000 HD
ATOM     30  H   UNL     1       7.410   3.389  11.433  0.00  0.00    +0.000 HD
ENDBRANCH  27  28
ENDBRANCH  22  27
ENDBRANCH  21  24
BRANCH  21  31
ATOM     31  C   UNL     1       6.738   5.383  17.455  0.00  0.00    +0.000 C 
ATOM     32  C   UNL     1       7.552   6.630  17.820  0.00  0.00    +0.000 C 
ATOM     33  C   UNL     1       6.150   4.791  18.746  0.00  0.00    +0.000 C 
ENDBRANCH  21  31
ENDBRANCH   1  21
TORSDOF 8
ENDMDL
MODEL 6
REMARK VINA RESULT:      -7.4      1.535      1.673
REMARK  Name = 
REMARK  12 active torsions:
REMARK  status: ('A' for Active; 'I' for Inactive)
REMARK    1  A    between atoms: C_1  and  C_2
REMARK    2  A    between atoms: C_2  and  N_3
REMARK    3  A    between atoms: C_2  and  C_4
REMARK    4  A    between atoms: N_6  and  C_7
REMARK    5  A    between atoms: C_7  and  C_8
REMARK    6  A    between atoms: C_7  and  C_26
REMARK    7  A    between atoms: N_10  and  C_11
REMARK    8  A    between atoms: C_11  and  C_12
REMARK    9  A    between atoms: C_11  and  C_13
REMARK   10  A    between atoms: N_15  and  C_16
REMARK   11  A    between atoms: C_26  and  C_27
REMARK   12  A    between atoms: C_26  and  C_28
REMARK                            x       y       z     vdW  Elec       q    Type
REMARK                         _______ _______ _______ _____ _____    ______ ____
ROOT
ATOM      1  C   UNL     1      -1.032  11.154  18.830  0.00  0.00    +0.000 C 
ATOM      2  O   UNL     1      -0.637  12.076  19.541  0.00  0.00    +0.000 OA
ATOM      3  N   UNL     1      -0.288  10.018  18.617  0.00  0.00    +0.000 N 
ATOM      4  H   UNL     1      -0.502   9.451  17.790  0.00  0.00    +0.000 HD
ENDROOT
BRANCH   3   5
ATOM      5  C   UNL     1       0.997   9.766  19.274  0.00  0.00    +0.000 C 
ATOM      6  C   UNL     1       0.768   9.057  20.605  0.00  0.00    +0.000 C 
BRANCH   5   7
ATOM      7  C   UNL     1       1.861   8.918  18.315  0.00  0.00    +0.000 C 
ATOM      8  O   UNL     1       2.163   9.364  17.207  0.00  0.00    +0.000 OA
ATOM      9  N   UNL     1       2.232   7.669  18.801  0.00  0.00    +0.000 N 
ATOM     10  H   UNL     1       1.766   7.342  19.634  0.00  0.00    +0.000 HD
BRANCH   9  11
ATOM     11  C   UNL     1       3.068   6.731  18.129  0.00  0.00    +0.000 A 
ATOM     12  C   UNL     1       4.230   7.169  17.474  0.00  0.00    +0.000 A 
ATOM     13  C   UNL     1       5.042   6.286  16.771  0.00  0.00    +0.000 A 
ATOM     14  C   UNL     1       4.711   4.941  16.716  0.00  0.00    +0.000 A 
ATOM     15  C   UNL     1       3.578   4.454  17.379  0.00  0.00    +0.000 A 
ATOM     16  C   UNL     1       3.283   3.084  17.295  0.00  0.00    +0.000 A 
ATOM     17  C   UNL     1       2.170   2.551  17.934  0.00  0.00    +0.000 A 
ATOM     18  C   UNL     1       1.339   3.383  18.672  0.00  0.00    +0.000 A 
ATOM     19  C   UNL     1       1.618   4.752  18.763  0.00  0.00    +0.000 A 
ATOM     20  C   UNL     1       2.741   5.336  18.117  0.00  0.00    +0.000 A 
ENDBRANCH   9  11
ENDBRANCH   5   7
ENDBRANCH   3   5
BRANCH   1  21
ATOM     21  C   UNL     1      -2.372  11.193  18.050  0.00  0.00    +0.000 C 
BRANCH  21  24
ATOM     22  C   UNL     1      -4.618  12.092  18.610  0.00  0.00    +0.000 C 
ATOM     23  O   UNL     1      -4.859  12.358  17.436  0.00  0.00    +0.000 OA
ATOM     24  N   UNL     1      -3.433  11.510  19.002  0.00  0.00    +0.000 N 
ATOM     25  H   UNL     1      -3.291  11.357  19.995  0.00  0.00    +0.000 HD
BRANCH  22  27
ATOM     26  C   UNL     1      -6.648  11.324  19.929  0.00  0.00    +0.000 C 
ATOM     27  C   UNL     1      -5.579  12.401  19.781  0.00  0.00    +0.000 C 
BRANCH  27  28
ATOM     28  N   UNL     1      -4.807  12.545  21.035  0.00  0.00    +0.000 NA
ATOM     29  H   UNL     1      -4.054  13.217  20.869  0.00  0.00    +0.000 HD
ATOM     30  H   UNL     1      -4.334  11.662  21.231  0.00  0.00    +0.000 HD
ENDBRANCH  27  28
ENDBRANCH  22  27
ENDBRANCH  21  24
BRANCH  21  31
ATOM     31  C   UNL     1      -2.638   9.855  17.325  0.00  0.00    +0.000 C 
ATOM     32  C   UNL     1      -3.849   9.116  17.908  0.00  0.00    +0.000 C 
ATOM     33  C   UNL     1      -2.882  10.081  15.825  0.00  0.00    +0.000 C 
ENDBRANCH  21  31
ENDBRANCH   1  21
TORSDOF 8
ENDMDL
MODEL 7
REMARK VINA RESULT:      -7.4      1.696      1.809
REMARK  Name = 
REMARK  12 active torsions:
REMARK  status: ('A' for Active; 'I' for Inactive)
REMARK    1  A    between atoms: C_1  and  C_2
REMARK    2  A    between atoms: C_2  and  N_3
REMARK    3  A    between atoms: C_2  and  C_4
REMARK    4  A    between atoms: N_6  and  C_7
REMARK    5  A    between atoms: C_7  and  C_8
REMARK    6  A    between atoms: C_7  and  C_26
REMARK    7  A    between atoms: N_10  and  C_11
REMARK    8  A    between atoms: C_11  and  C_12
REMARK    9  A    between atoms: C_11  and  C_13
REMARK   10  A    between atoms: N_15  and  C_16
REMARK   11  A    between atoms: C_26  and  C_27
REMARK   12  A    between atoms: C_26  and  C_28
REMARK                            x       y       z     vdW  Elec       q    Type
REMARK                         _______ _______ _______ _____ _____    ______ ____
ROOT
ATOM      1  C   UNL     1       0.121  11.567  19.688  0.00  0.00    +0.000 C 
ATOM      2  O   UNL     1       0.831  12.109  20.533  0.00  0.00    +0.000 OA
ATOM      3  N   UNL     1       0.267  10.244  19.343  0.00  0.00    +0.000 N 
ATOM      4  H   UNL     1      -0.107   9.939  18.439  0.00  0.00    +0.000 HD
ENDROOT
BRANCH   3   5
ATOM      5  C   UNL     1       1.220   9.345  20.000  0.00  0.00    +0.000 C 
ATOM      6  C   UNL     1       0.541   8.634  21.166  0.00  0.00    +0.000 C 
BRANCH   5   7
ATOM      7  C   UNL     1       1.734   8.344  18.941  0.00  0.00    +0.000 C 
ATOM      8  O   UNL     1       1.632   8.615  17.743  0.00  0.00    +0.000 OA
ATOM      9  N   UNL     1       2.280   7.172  19.452  0.00  0.00    +0.000 N 
ATOM     10  H   UNL     1       2.131   6.983  20.431  0.00  0.00    +0.000 HD
BRANCH   9  11
ATOM     11  C   UNL     1       2.867   6.125  18.682  0.00  0.00    +0.000 A 
ATOM     12  C   UNL     1       3.936   6.404  17.817  0.00  0.00    +0.000 A 
ATOM     13  C   UNL     1       4.500   5.415  17.020  0.00  0.00    +0.000 A 
ATOM     14  C   UNL     1       4.008   4.120  17.078  0.00  0.00    +0.000 A 
ATOM     15  C   UNL     1       2.963   3.789  17.948  0.00  0.00    +0.000 A 
ATOM     16  C   UNL     1       2.497   2.465  17.972  0.00  0.00    +0.000 A 
ATOM     17  C   UNL     1       1.461   2.085  18.817  0.00  0.00    +0.000 A 
ATOM     18  C   UNL     1       0.880   3.027  19.655  0.00  0.00    +0.000 A 
ATOM     19  C   UNL     1       1.329   4.353  19.639  0.00  0.00    +0.000 A 
ATOM     20  C   UNL     1       2.380   4.782  18.785  0.00  0.00    +0.000 A 
ENDBRANCH   9  11
ENDBRANCH   5   7
ENDBRANCH   3   5
BRANCH   1  21
ATOM     21  C   UNL     1      -0.967  12.320  18.879  0.00  0.00    +0.000 C 
BRANCH  21  24
ATOM     22  C   UNL     1      -0.831  14.732  19.451  0.00  0.00    +0.000 C 
ATOM     23  O   UNL     1       0.014  14.941  18.586  0.00  0.00    +0.000 OA
ATOM     24  N   UNL     1      -1.376  13.484  19.659  0.00  0.00    +0.000 N 
ATOM     25  H   UNL     1      -2.041  13.383  20.419  0.00  0.00    +0.000 HD
BRANCH  22  27
ATOM     26  C   UNL     1      -0.218  16.613  21.043  0.00  0.00    +0.000 C 
ATOM     27  C   UNL     1      -1.358  15.813  20.424  0.00  0.00    +0.000 C 
BRANCH  27  28
ATOM     28  N   UNL     1      -2.297  16.707  19.712  0.00  0.00    +0.000 NA
ATOM     29  H   UNL     1      -1.791  17.554  19.445  0.00  0.00    +0.000 HD
ATOM     30  H   UNL     1      -3.011  17.022  20.370  0.00  0.00    +0.000 HD
ENDBRANCH  27  28
ENDBRANCH  22  27
ENDBRANCH  21  24
BRANCH  21  31
ATOM     31  C   UNL     1      -2.165  11.398  18.559  0.00  0.00    +0.000 C 
ATOM     32  C   UNL     1      -3.483  11.957  19.106  0.00  0.00    +0.000 C 
ATOM     33  C   UNL     1      -2.314  11.197  17.042  0.00  0.00    +0.000 C 
ENDBRANCH  21  31
ENDBRANCH   1  21
TORSDOF 8
ENDMDL
MODEL 8
REMARK VINA RESULT:      -7.4      2.346      3.361
REMARK  Name = 
REMARK  12 active torsions:
REMARK  status: ('A' for Active; 'I' for Inactive)
REMARK    1  A    between atoms: C_1  and  C_2
REMARK    2  A    between atoms: C_2  and  N_3
REMARK    3  A    between atoms: C_2  and  C_4
REMARK    4  A    between atoms: N_6  and  C_7
REMARK    5  A    between atoms: C_7  and  C_8
REMARK    6  A    between atoms: C_7  and  C_26
REMARK    7  A    between atoms: N_10  and  C_11
REMARK    8  A    between atoms: C_11  and  C_12
REMARK    9  A    between atoms: C_11  and  C_13
REMARK   10  A    between atoms: N_15  and  C_16
REMARK   11  A    between atoms: C_26  and  C_27
REMARK   12  A    between atoms: C_26  and  C_28
REMARK                            x       y       z     vdW  Elec       q    Type
REMARK                         _______ _______ _______ _____ _____    ______ ____
ROOT
ATOM      1  C   UNL     1       0.781  11.583  20.392  0.00  0.00    +0.000 C 
ATOM      2  O   UNL     1       1.467  11.861  21.374  0.00  0.00    +0.000 OA
ATOM      3  N   UNL     1       0.723  10.311  19.872  0.00  0.00    +0.000 N 
ATOM      4  H   UNL     1       0.415  10.203  18.900  0.00  0.00    +0.000 HD
ENDROOT
BRANCH   3   5
ATOM      5  C   UNL     1       1.404   9.165  20.479  0.00  0.00    +0.000 C 
ATOM      6  C   UNL     1       0.480   8.488  21.486  0.00  0.00    +0.000 C 
BRANCH   5   7
ATOM      7  C   UNL     1       1.816   8.203  19.343  0.00  0.00    +0.000 C 
ATOM      8  O   UNL     1       1.592   8.509  18.171  0.00  0.00    +0.000 OA
ATOM      9  N   UNL     1       2.421   7.022  19.759  0.00  0.00    +0.000 N 
ATOM     10  H   UNL     1       2.374   6.802  20.742  0.00  0.00    +0.000 HD
BRANCH   9  11
ATOM     11  C   UNL     1       2.936   6.006  18.902  0.00  0.00    +0.000 A 
ATOM     12  C   UNL     1       3.998   6.293  18.031  0.00  0.00    +0.000 A 
ATOM     13  C   UNL     1       4.493   5.337  17.151  0.00  0.00    +0.000 A 
ATOM     14  C   UNL     1       3.936   4.068  17.130  0.00  0.00    +0.000 A 
ATOM     15  C   UNL     1       2.895   3.727  18.001  0.00  0.00    +0.000 A 
ATOM     16  C   UNL     1       2.362   2.429  17.943  0.00  0.00    +0.000 A 
ATOM     17  C   UNL     1       1.327   2.041  18.786  0.00  0.00    +0.000 A 
ATOM     18  C   UNL     1       0.814   2.948  19.703  0.00  0.00    +0.000 A 
ATOM     19  C   UNL     1       1.331   4.248  19.770  0.00  0.00    +0.000 A 
ATOM     20  C   UNL     1       2.383   4.684  18.921  0.00  0.00    +0.000 A 
ENDBRANCH   9  11
ENDBRANCH   5   7
ENDBRANCH   3   5
BRANCH   1  21
ATOM     21  C   UNL     1      -0.040  12.633  19.599  0.00  0.00    +0.000 C 
BRANCH  21  24
ATOM     22  C   UNL     1       1.800  13.971  18.606  0.00  0.00    +0.000 C 
ATOM     23  O   UNL     1       2.094  13.075  17.819  0.00  0.00    +0.000 OA
ATOM     24  N   UNL     1       0.764  13.848  19.504  0.00  0.00    +0.000 N 
ATOM     25  H   UNL     1       0.608  14.617  20.148  0.00  0.00    +0.000 HD
BRANCH  22  27
ATOM     26  C   UNL     1       3.594  15.461  17.598  0.00  0.00    +0.000 C 
ATOM     27  C   UNL     1       2.562  15.313  18.710  0.00  0.00    +0.000 C 
BRANCH  27  28
ATOM     28  N   UNL     1       1.599  16.435  18.683  0.00  0.00    +0.000 NA
ATOM     29  H   UNL     1       1.440  16.695  17.707  0.00  0.00    +0.000 HD
ATOM     30  H   UNL     1       2.039  17.254  19.106  0.00  0.00    +0.000 HD
ENDBRANCH  27  28
ENDBRANCH  22  27
ENDBRANCH  21  24
BRANCH  21  31
ATOM     31  C   UNL     1      -1.404  12.903  20.274  0.00  0.00    +0.000 C 
ATOM     32  C   UNL     1      -1.707  14.402  20.378  0.00  0.00    +0.000 C 
ATOM     33  C   UNL     1      -2.545  12.229  19.496  0.00  0.00    +0.000 C 
ENDBRANCH  21  31
ENDBRANCH   1  21
TORSDOF 8
ENDMDL
MODEL 9
REMARK VINA RESULT:      -7.3      2.362      3.961
REMARK  Name = 
REMARK  12 active torsions:
REMARK  status: ('A' for Active; 'I' for Inactive)
REMARK    1  A    between atoms: C_1  and  C_2
REMARK    2  A    between atoms: C_2  and  N_3
REMARK    3  A    between atoms: C_2  and  C_4
REMARK    4  A    between atoms: N_6  and  C_7
REMARK    5  A    between atoms: C_7  and  C_8
REMARK    6  A    between atoms: C_7  and  C_26
REMARK    7  A    between atoms: N_10  and  C_11
REMARK    8  A    between atoms: C_11  and  C_12
REMARK    9  A    between atoms: C_11  and  C_13
REMARK   10  A    between atoms: N_15  and  C_16
REMARK   11  A    between atoms: C_26  and  C_27
REMARK   12  A    between atoms: C_26  and  C_28
REMARK                            x       y       z     vdW  Elec       q    Type
REMARK                         _______ _______ _______ _____ _____    ______ ____
ROOT
ATOM      1  C   UNL     1       0.815  10.352  19.842  0.00  0.00    +0.000 C 
ATOM      2  O   UNL     1       1.033  10.970  20.882  0.00  0.00    +0.000 OA
ATOM      3  N   UNL     1       1.038   9.000  19.728  0.00  0.00    +0.000 N 
ATOM      4  H   UNL     1       1.152   8.609  18.788  0.00  0.00    +0.000 HD
ENDROOT
BRANCH   3   5
ATOM      5  C   UNL     1       1.475   8.163  20.849  0.00  0.00    +0.000 C 
ATOM      6  C   UNL     1       0.337   8.000  21.850  0.00  0.00    +0.000 C 
BRANCH   5   7
ATOM      7  C   UNL     1       1.931   6.803  20.274  0.00  0.00    +0.000 C 
ATOM      8  O   UNL     1       1.867   5.791  20.974  0.00  0.00    +0.000 OA
ATOM      9  N   UNL     1       2.402   6.842  18.966  0.00  0.00    +0.000 N 
ATOM     10  H   UNL     1       2.586   7.752  18.570  0.00  0.00    +0.000 HD
BRANCH   9  11
ATOM     11  C   UNL     1       2.827   5.716  18.203  0.00  0.00    +0.000 A 
ATOM     12  C   UNL     1       1.987   4.599  18.074  0.00  0.00    +0.000 A 
ATOM     13  C   UNL     1       2.390   3.467  17.374  0.00  0.00    +0.000 A 
ATOM     14  C   UNL     1       3.643   3.434  16.781  0.00  0.00    +0.000 A 
ATOM     15  C   UNL     1       4.501   4.536  16.858  0.00  0.00    +0.000 A 
ATOM     16  C   UNL     1       5.761   4.457  16.242  0.00  0.00    +0.000 A 
ATOM     17  C   UNL     1       6.651   5.523  16.290  0.00  0.00    +0.000 A 
ATOM     18  C   UNL     1       6.289   6.688  16.953  0.00  0.00    +0.000 A 
ATOM     19  C   UNL     1       5.038   6.782  17.576  0.00  0.00    +0.000 A 
ATOM     20  C   UNL     1       4.105   5.711  17.555  0.00  0.00    +0.000 A 
ENDBRANCH   9  11
ENDBRANCH   5   7
ENDBRANCH   3   5
BRANCH   1  21
ATOM     21  C   UNL     1       0.328  11.028  18.534  0.00  0.00    +0.000 C 
BRANCH  21  24
ATOM     22  C   UNL     1       2.030  12.804  18.196  0.00  0.00    +0.000 C 
ATOM     23  O   UNL     1       2.866  11.996  17.798  0.00  0.00    +0.000 OA
ATOM     24  N   UNL     1       0.760  12.423  18.566  0.00  0.00    +0.000 N 
ATOM     25  H   UNL     1       0.139  13.143  18.921  0.00  0.00    +0.000 HD
BRANCH  22  27
ATOM     26  C   UNL     1       2.550  14.686  19.820  0.00  0.00    +0.000 C 
ATOM     27  C   UNL     1       2.302  14.317  18.362  0.00  0.00    +0.000 C 
BRANCH  27  28
ATOM     28  N   UNL     1       3.454  14.711  17.521  0.00  0.00    +0.000 NA
ATOM     29  H   UNL     1       3.374  14.226  16.624  0.00  0.00    +0.000 HD
ATOM     30  H   UNL     1       4.308  14.345  17.944  0.00  0.00    +0.000 HD
ENDBRANCH  27  28
ENDBRANCH  22  27
ENDBRANCH  21  24
BRANCH  21  31
ATOM     31  C   UNL     1      -1.205  10.910  18.378  0.00  0.00    +0.000 C 
ATOM     32  C   UNL     1      -1.860  12.266  18.092  0.00  0.00    +0.000 C 
ATOM     33  C   UNL     1      -1.569   9.944  17.240  0.00  0.00    +0.000 C 
ENDBRANCH  21  31
ENDBRANCH   1  21
TORSDOF 8
ENDMDL
