MODEL 1
REMARK VINA RESULT:      -7.3      0.000      0.000
REMARK  Name = 
REMARK  8 active torsions:
REMARK  status: ('A' for Active; 'I' for Inactive)
REMARK    1  A    between atoms: C_1  and  N_2
REMARK    2  A    between atoms: N_2  and  C_3
REMARK    3  A    between atoms: N_2  and  C_20
REMARK    4  A    between atoms: C_3  and  C_4
REMARK    5  A    between atoms: C_4  and  N_5
REMARK    6  A    between atoms: N_5  and  C_6
REMARK    7  A    between atoms: C_10  and  C_11
REMARK    8  A    between atoms: C_20  and  C_21
REMARK                            x       y       z     vdW  Elec       q    Type
REMARK                         _______ _______ _______ _____ _____    ______ ____
ROOT
ATOM      1  C   UNL     1       2.234   7.136  20.141  0.00  0.00    +0.000 A 
ATOM      2  N   UNL     1       1.353   7.582  21.072  0.00  0.00    +0.000 NA
ATOM      3  C   UNL     1       0.573   8.687  20.904  0.00  0.00    +0.000 A 
ATOM      4  N   UNL     1      -0.292   9.030  21.977  0.00  0.00    +0.000 N 
ATOM      5  C   UNL     1       0.663   9.411  19.672  0.00  0.00    +0.000 A 
ATOM      6  N   UNL     1       1.563   8.962  18.750  0.00  0.00    +0.000 NA
ATOM      7  C   UNL     1       2.351   7.868  18.945  0.00  0.00    +0.000 A 
ATOM      8 CL   UNL     1       3.438   7.378  17.653  0.00  0.00    +0.000 Cl
ATOM      9  H   UNL     1      -0.282   8.451  22.829  0.00  0.00    +0.000 HD
ATOM     10  H   UNL     1      -0.926   9.833  21.990  0.00  0.00    +0.000 HD
ENDROOT
BRANCH   5  11
ATOM     11  C   UNL     1      -0.179  10.618  19.323  0.00  0.00    +0.000 C 
ATOM     12  O   UNL     1      -0.305  11.508  20.138  0.00  0.00    +0.000 OA
ATOM     13  N   UNL     1      -0.825  10.710  18.111  0.00  0.00    +0.000 N 
ATOM     14  C   UNL     1      -1.679  11.789  17.650  0.00  0.00    +0.000 C 
ATOM     15  N   UNL     1      -1.960  12.837  18.349  0.00  0.00    +0.000 NA
ATOM     16  N   UNL     1      -2.258  11.700  16.359  0.00  0.00    +0.000 N 
ATOM     17  H   UNL     1      -0.700   9.934  17.446  0.00  0.00    +0.000 HD
ATOM     18  H   UNL     1      -1.636  13.054  19.294  0.00  0.00    +0.000 HD
ATOM     19  H   UNL     1      -2.074  10.888  15.751  0.00  0.00    +0.000 HD
ATOM     20  H   UNL     1      -2.869  12.454  16.004  0.00  0.00    +0.000 HD
ENDBRANCH   5  11
BRANCH   1  21
ATOM     21  N   UNL     1       2.971   5.920  20.362  0.00  0.00    +0.000 N 
ATOM     22  H   UNL     1       3.993   5.963  20.470  0.00  0.00    +0.000 HD
BRANCH  21  23
ATOM     23  C   UNL     1       2.378   4.601  20.170  0.00  0.00    +0.000 C 
BRANCH  23  24
ATOM     24  C   UNL     1       1.982   4.316  18.699  0.00  0.00    +0.000 C 
BRANCH  24  26
ATOM     25  C   UNL     1       1.796   1.852  18.713  0.00  0.00    +0.000 C 
ATOM     26  N   UNL     1       2.537   3.026  18.200  0.00  0.00    +0.000 NA
BRANCH  26  27
ATOM     27  C   UNL     1       3.975   2.906  18.557  0.00  0.00    +0.000 C 
BRANCH  27  28
ATOM     28  C   UNL     1       4.811   3.895  17.770  0.00  0.00    +0.000 A 
ATOM     29  C   UNL     1       4.688   3.967  16.372  0.00  0.00    +0.000 A 
ATOM     30  C   UNL     1       5.504   4.831  15.636  0.00  0.00    +0.000 A 
ATOM     31  C   UNL     1       6.451   5.627  16.287  0.00  0.00    +0.000 A 
ATOM     32  C   UNL     1       6.574   5.569  17.678  0.00  0.00    +0.000 A 
ATOM     33  C   UNL     1       5.756   4.710  18.419  0.00  0.00    +0.000 A 
ENDBRANCH  27  28
ENDBRANCH  26  27
ENDBRANCH  24  26
ENDBRANCH  23  24
ENDBRANCH  21  23
ENDBRANCH   1  21
TORSDOF 7
ENDMDL
MODEL 2
REMARK VINA RESULT:      -7.3      0.910      1.339
REMARK  Name = 
REMARK  8 active torsions:
REMARK  status: ('A' for Active; 'I' for Inactive)
REMARK    1  A    between atoms: C_1  and  N_2
REMARK    2  A    between atoms: N_2  and  C_3
REMARK    3  A    between atoms: N_2  and  C_20
REMARK    4  A    between atoms: C_3  and  C_4
REMARK    5  A    between atoms: C_4  and  N_5
REMARK    6  A    between atoms: N_5  and  C_6
REMARK    7  A    between atoms: C_10  and  C_11
REMARK    8  A    between atoms: C_20  and  C_21
REMARK                            x       y       z     vdW  Elec       q    Type
REMARK                         _______ _______ _______ _____ _____    ______ ____
ROOT
ATOM      1  C   UNL     1       1.979   7.326  20.337  0.00  0.00    +0.000 A 
ATOM      2  N   UNL     1       1.145   7.633  21.362  0.00  0.00    +0.000 NA
ATOM      3  C   UNL     1       0.295   8.697  21.351  0.00  0.00    +0.000 A 
ATOM      4  N   UNL     1      -0.507   8.890  22.507  0.00  0.00    +0.000 N 
ATOM      5  C   UNL     1       0.253   9.531  20.187  0.00  0.00    +0.000 A 
ATOM      6  N   UNL     1       1.106   9.221  19.168  0.00  0.00    +0.000 NA
ATOM      7  C   UNL     1       1.967   8.165  19.208  0.00  0.00    +0.000 A 
ATOM      8 CL   UNL     1       2.982   7.859  17.806  0.00  0.00    +0.000 Cl
ATOM      9  H   UNL     1      -0.403   8.240  23.299  0.00  0.00    +0.000 HD
ATOM     10  H   UNL     1      -1.183   9.648  22.637  0.00  0.00    +0.000 HD
ENDROOT
BRANCH   5  11
ATOM     11  C   UNL     1      -0.678  10.709  20.009  0.00  0.00    +0.000 C 
ATOM     12  O   UNL     1      -0.756  11.540  20.889  0.00  0.00    +0.000 OA
ATOM     13  N   UNL     1      -1.456  10.838  18.880  0.00  0.00    +0.000 N 
ATOM     14  C   UNL     1      -2.406  11.895  18.584  0.00  0.00    +0.000 C 
ATOM     15  N   UNL     1      -2.659  12.882  19.376  0.00  0.00    +0.000 NA
ATOM     16  N   UNL     1      -3.117  11.852  17.358  0.00  0.00    +0.000 N 
ATOM     17  H   UNL     1      -1.368  10.110  18.157  0.00  0.00    +0.000 HD
ATOM     18  H   UNL     1      -2.244  13.060  20.293  0.00  0.00    +0.000 HD
ATOM     19  H   UNL     1      -2.962  11.088  16.683  0.00  0.00    +0.000 HD
ATOM     20  H   UNL     1      -3.798  12.591  17.120  0.00  0.00    +0.000 HD
ENDBRANCH   5  11
BRANCH   1  21
ATOM     21  N   UNL     1       2.797   6.143  20.394  0.00  0.00    +0.000 N 
ATOM     22  H   UNL     1       3.679   6.115  19.867  0.00  0.00    +0.000 HD
BRANCH  21  23
ATOM     23  C   UNL     1       2.310   4.882  20.943  0.00  0.00    +0.000 C 
BRANCH  23  24
ATOM     24  C   UNL     1       2.165   3.767  19.878  0.00  0.00    +0.000 C 
BRANCH  24  26
ATOM     25  C   UNL     1       1.460   4.175  17.545  0.00  0.00    +0.000 C 
ATOM     26  N   UNL     1       2.574   4.221  18.519  0.00  0.00    +0.000 NA
BRANCH  26  27
ATOM     27  C   UNL     1       3.712   3.407  18.018  0.00  0.00    +0.000 C 
BRANCH  27  28
ATOM     28  C   UNL     1       4.875   4.293  17.622  0.00  0.00    +0.000 A 
ATOM     29  C   UNL     1       5.710   4.845  18.609  0.00  0.00    +0.000 A 
ATOM     30  C   UNL     1       6.743   5.716  18.252  0.00  0.00    +0.000 A 
ATOM     31  C   UNL     1       6.951   6.046  16.909  0.00  0.00    +0.000 A 
ATOM     32  C   UNL     1       6.132   5.495  15.920  0.00  0.00    +0.000 A 
ATOM     33  C   UNL     1       5.100   4.619  16.272  0.00  0.00    +0.000 A 
ENDBRANCH  27  28
ENDBRANCH  26  27
ENDBRANCH  24  26
ENDBRANCH  23  24
ENDBRANCH  21  23
ENDBRANCH   1  21
TORSDOF 7
ENDMDL
MODEL 3
REMARK VINA RESULT:      -7.2      5.826      8.468
REMARK  Name = 
REMARK  8 active torsions:
REMARK  status: ('A' for Active; 'I' for Inactive)
REMARK    1  A    between atoms: C_1  and  N_2
REMARK    2  A    between atoms: N_2  and  C_3
REMARK    3  A    between atoms: N_2  and  C_20
REMARK    4  A    between atoms: C_3  and  C_4
REMARK    5  A    between atoms: C_4  and  N_5
REMARK    6  A    between atoms: N_5  and  C_6
REMARK    7  A    between atoms: C_10  and  C_11
REMARK    8  A    between atoms: C_20  and  C_21
REMARK                            x       y       z     vdW  Elec       q    Type
REMARK                         _______ _______ _______ _____ _____    ______ ____
ROOT
ATOM      1  C   UNL     1       6.279   6.696  17.363  0.00  0.00    +0.000 A 
ATOM      2  N   UNL     1       5.083   7.337  17.400  0.00  0.00    +0.000 NA
ATOM      3  C   UNL     1       3.928   6.754  17.826  0.00  0.00    +0.000 A 
ATOM      4  N   UNL     1       2.755   7.556  17.794  0.00  0.00    +0.000 N 
ATOM      5  C   UNL     1       3.971   5.398  18.286  0.00  0.00    +0.000 A 
ATOM      6  N   UNL     1       5.175   4.760  18.231  0.00  0.00    +0.000 NA
ATOM      7  C   UNL     1       6.316   5.353  17.779  0.00  0.00    +0.000 A 
ATOM      8 CL   UNL     1       7.808   4.423  17.802  0.00  0.00    +0.000 Cl
ATOM      9  H   UNL     1       2.822   8.520  17.440  0.00  0.00    +0.000 HD
ATOM     10  H   UNL     1       1.822   7.247  18.079  0.00  0.00    +0.000 HD
ENDROOT
BRANCH   5  11
ATOM     11  C   UNL     1       2.784   4.643  18.840  0.00  0.00    +0.000 C 
ATOM     12  O   UNL     1       1.766   4.575  18.183  0.00  0.00    +0.000 OA
ATOM     13  N   UNL     1       2.830   4.056  20.085  0.00  0.00    +0.000 N 
ATOM     14  C   UNL     1       1.769   3.324  20.751  0.00  0.00    +0.000 C 
ATOM     15  N   UNL     1       0.597   3.130  20.246  0.00  0.00    +0.000 NA
ATOM     16  N   UNL     1       2.011   2.790  22.042  0.00  0.00    +0.000 N 
ATOM     17  H   UNL     1       3.708   4.139  20.616  0.00  0.00    +0.000 HD
ATOM     18  H   UNL     1       0.256   3.450  19.337  0.00  0.00    +0.000 HD
ATOM     19  H   UNL     1       2.926   2.912  22.502  0.00  0.00    +0.000 HD
ATOM     20  H   UNL     1       1.275   2.264  22.539  0.00  0.00    +0.000 HD
ENDBRANCH   5  11
BRANCH   1  21
ATOM     21  N   UNL     1       7.469   7.401  16.967  0.00  0.00    +0.000 N 
ATOM     22  H   UNL     1       7.912   7.176  16.067  0.00  0.00    +0.000 HD
BRANCH  21  23
ATOM     23  C   UNL     1       8.234   8.227  17.896  0.00  0.00    +0.000 C 
BRANCH  23  24
ATOM     24  C   UNL     1       7.870   9.731  17.819  0.00  0.00    +0.000 C 
BRANCH  24  26
ATOM     25  C   UNL     1       9.354  10.496  19.641  0.00  0.00    +0.000 C 
ATOM     26  N   UNL     1       9.009  10.612  18.206  0.00  0.00    +0.000 NA
BRANCH  26  27
ATOM     27  C   UNL     1       8.706  12.029  17.876  0.00  0.00    +0.000 C 
BRANCH  27  28
ATOM     28  C   UNL     1       9.963  12.874  17.928  0.00  0.00    +0.000 A 
ATOM     29  C   UNL     1      11.142  12.423  17.312  0.00  0.00    +0.000 A 
ATOM     30  C   UNL     1      12.321  13.169  17.415  0.00  0.00    +0.000 A 
ATOM     31  C   UNL     1      12.333  14.367  18.135  0.00  0.00    +0.000 A 
ATOM     32  C   UNL     1      11.163  14.828  18.744  0.00  0.00    +0.000 A 
ATOM     33  C   UNL     1       9.980  14.088  18.639  0.00  0.00    +0.000 A 
ENDBRANCH  27  28
ENDBRANCH  26  27
ENDBRANCH  24  26
ENDBRANCH  23  24
ENDBRANCH  21  23
ENDBRANCH   1  21
TORSDOF 7
ENDMDL
MODEL 4
REMARK VINA RESULT:      -7.2      4.032      6.459
REMARK  Name = 
REMARK  8 active torsions:
REMARK  status: ('A' for Active; 'I' for Inactive)
REMARK    1  A    between atoms: C_1  and  N_2
REMARK    2  A    between atoms: N_2  and  C_3
REMARK    3  A    between atoms: N_2  and  C_20
REMARK    4  A    between atoms: C_3  and  C_4
REMARK    5  A    between atoms: C_4  and  N_5
REMARK    6  A    between atoms: N_5  and  C_6
REMARK    7  A    between atoms: C_10  and  C_11
REMARK    8  A    between atoms: C_20  and  C_21
REMARK                            x       y       z     vdW  Elec       q    Type
REMARK                         _______ _______ _______ _____ _____    ______ ____
ROOT
ATOM      1  C   UNL     1       3.551   6.474  19.249  0.00  0.00    +0.000 A 
ATOM      2  N   UNL     1       4.574   5.602  19.431  0.00  0.00    +0.000 NA
ATOM      3  C   UNL     1       5.507   5.324  18.479  0.00  0.00    +0.000 A 
ATOM      4  N   UNL     1       6.512   4.380  18.821  0.00  0.00    +0.000 N 
ATOM      5  C   UNL     1       5.426   6.000  17.218  0.00  0.00    +0.000 A 
ATOM      6  N   UNL     1       4.384   6.863  17.041  0.00  0.00    +0.000 NA
ATOM      7  C   UNL     1       3.448   7.111  17.999  0.00  0.00    +0.000 A 
ATOM      8 CL   UNL     1       2.181   8.278  17.648  0.00  0.00    +0.000 Cl
ATOM      9  H   UNL     1       6.484   3.939  19.751  0.00  0.00    +0.000 HD
ATOM     10  H   UNL     1       7.268   4.073  18.204  0.00  0.00    +0.000 HD
ENDROOT
BRANCH   5  11
ATOM     11  C   UNL     1       6.421   5.835  16.091  0.00  0.00    +0.000 C 
ATOM     12  O   UNL     1       7.465   6.452  16.128  0.00  0.00    +0.000 OA
ATOM     13  N   UNL     1       6.149   5.021  15.015  0.00  0.00    +0.000 N 
ATOM     14  C   UNL     1       6.992   4.784  13.857  0.00  0.00    +0.000 C 
ATOM     15  N   UNL     1       8.144   5.336  13.678  0.00  0.00    +0.000 NA
ATOM     16  N   UNL     1       6.533   3.903  12.845  0.00  0.00    +0.000 N 
ATOM     17  H   UNL     1       5.251   4.518  15.015  0.00  0.00    +0.000 HD
ATOM     18  H   UNL     1       8.617   5.995  14.300  0.00  0.00    +0.000 HD
ATOM     19  H   UNL     1       5.620   3.432  12.928  0.00  0.00    +0.000 HD
ATOM     20  H   UNL     1       7.112   3.715  12.011  0.00  0.00    +0.000 HD
ENDBRANCH   5  11
BRANCH   1  21
ATOM     21  N   UNL     1       2.647   6.769  20.328  0.00  0.00    +0.000 N 
ATOM     22  H   UNL     1       2.837   7.575  20.939  0.00  0.00    +0.000 HD
BRANCH  21  23
ATOM     23  C   UNL     1       1.622   5.829  20.769  0.00  0.00    +0.000 C 
BRANCH  23  24
ATOM     24  C   UNL     1       2.155   4.386  20.956  0.00  0.00    +0.000 C 
BRANCH  24  26
ATOM     25  C   UNL     1       1.496   2.260  22.028  0.00  0.00    +0.000 C 
ATOM     26  N   UNL     1       1.062   3.401  21.191  0.00  0.00    +0.000 NA
BRANCH  26  27
ATOM     27  C   UNL     1       0.525   2.900  19.900  0.00  0.00    +0.000 C 
BRANCH  27  28
ATOM     28  C   UNL     1       1.628   2.776  18.869  0.00  0.00    +0.000 A 
ATOM     29  C   UNL     1       2.611   1.780  19.004  0.00  0.00    +0.000 A 
ATOM     30  C   UNL     1       3.668   1.704  18.092  0.00  0.00    +0.000 A 
ATOM     31  C   UNL     1       3.755   2.622  17.041  0.00  0.00    +0.000 A 
ATOM     32  C   UNL     1       2.778   3.609  16.893  0.00  0.00    +0.000 A 
ATOM     33  C   UNL     1       1.716   3.686  17.800  0.00  0.00    +0.000 A 
ENDBRANCH  27  28
ENDBRANCH  26  27
ENDBRANCH  24  26
ENDBRANCH  23  24
ENDBRANCH  21  23
ENDBRANCH   1  21
TORSDOF 7
ENDMDL
MODEL 5
REMARK VINA RESULT:      -7.2      4.167      6.441
REMARK  Name = 
REMARK  8 active torsions:
REMARK  status: ('A' for Active; 'I' for Inactive)
REMARK    1  A    between atoms: C_1  and  N_2
REMARK    2  A    between atoms: N_2  and  C_3
REMARK    3  A    between atoms: N_2  and  C_20
REMARK    4  A    between atoms: C_3  and  C_4
REMARK    5  A    between atoms: C_4  and  N_5
REMARK    6  A    between atoms: N_5  and  C_6
REMARK    7  A    between atoms: C_10  and  C_11
REMARK    8  A    between atoms: C_20  and  C_21
REMARK                            x       y       z     vdW  Elec       q    Type
REMARK                         _______ _______ _______ _____ _____    ______ ____
ROOT
ATOM      1  C   UNL     1       3.618   6.195  19.236  0.00  0.00    +0.000 A 
ATOM      2  N   UNL     1       4.674   5.356  19.380  0.00  0.00    +0.000 NA
ATOM      3  C   UNL     1       5.638   5.187  18.431  0.00  0.00    +0.000 A 
ATOM      4  N   UNL     1       6.675   4.263  18.728  0.00  0.00    +0.000 N 
ATOM      5  C   UNL     1       5.553   5.950  17.222  0.00  0.00    +0.000 A 
ATOM      6  N   UNL     1       4.479   6.779  17.083  0.00  0.00    +0.000 NA
ATOM      7  C   UNL     1       3.513   6.918  18.034  0.00  0.00    +0.000 A 
ATOM      8 CL   UNL     1       2.205   8.054  17.738  0.00  0.00    +0.000 Cl
ATOM      9  H   UNL     1       6.647   3.755  19.623  0.00  0.00    +0.000 HD
ATOM     10  H   UNL     1       7.456   4.034  18.108  0.00  0.00    +0.000 HD
ENDROOT
BRANCH   5  11
ATOM     11  C   UNL     1       6.577   5.909  16.109  0.00  0.00    +0.000 C 
ATOM     12  O   UNL     1       7.593   6.564  16.215  0.00  0.00    +0.000 OA
ATOM     13  N   UNL     1       6.362   5.166  14.971  0.00  0.00    +0.000 N 
ATOM     14  C   UNL     1       7.238   5.050  13.819  0.00  0.00    +0.000 C 
ATOM     15  N   UNL     1       8.369   5.660  13.707  0.00  0.00    +0.000 NA
ATOM     16  N   UNL     1       6.838   4.228  12.735  0.00  0.00    +0.000 N 
ATOM     17  H   UNL     1       5.486   4.628  14.913  0.00  0.00    +0.000 HD
ATOM     18  H   UNL     1       8.801   6.291  14.386  0.00  0.00    +0.000 HD
ATOM     19  H   UNL     1       5.944   3.715  12.761  0.00  0.00    +0.000 HD
ATOM     20  H   UNL     1       7.441   4.126  11.903  0.00  0.00    +0.000 HD
ENDBRANCH   5  11
BRANCH   1  21
ATOM     21  N   UNL     1       2.680   6.373  20.312  0.00  0.00    +0.000 N 
ATOM     22  H   UNL     1       2.481   7.322  20.656  0.00  0.00    +0.000 HD
BRANCH  21  23
ATOM     23  C   UNL     1       2.199   5.259  21.123  0.00  0.00    +0.000 C 
BRANCH  23  24
ATOM     24  C   UNL     1       0.947   4.567  20.530  0.00  0.00    +0.000 C 
BRANCH  24  26
ATOM     25  C   UNL     1       2.043   2.668  21.670  0.00  0.00    +0.000 C 
ATOM     26  N   UNL     1       0.861   3.127  20.907  0.00  0.00    +0.000 NA
BRANCH  26  27
ATOM     27  C   UNL     1       0.686   2.282  19.697  0.00  0.00    +0.000 C 
BRANCH  27  28
ATOM     28  C   UNL     1       1.831   2.486  18.726  0.00  0.00    +0.000 A 
ATOM     29  C   UNL     1       1.727   3.445  17.705  0.00  0.00    +0.000 A 
ATOM     30  C   UNL     1       2.753   3.590  16.766  0.00  0.00    +0.000 A 
ATOM     31  C   UNL     1       3.889   2.779  16.838  0.00  0.00    +0.000 A 
ATOM     32  C   UNL     1       4.006   1.828  17.855  0.00  0.00    +0.000 A 
ATOM     33  C   UNL     1       2.984   1.683  18.799  0.00  0.00    +0.000 A 
ENDBRANCH  27  28
ENDBRANCH  26  27
ENDBRANCH  24  26
ENDBRANCH  23  24
ENDBRANCH  21  23
ENDBRANCH   1  21
TORSDOF 7
ENDMDL
MODEL 6
REMARK VINA RESULT:      -7.0      3.929      8.543
REMARK  Name = 
REMARK  8 active torsions:
REMARK  status: ('A' for Active; 'I' for Inactive)
REMARK    1  A    between atoms: C_1  and  N_2
REMARK    2  A    between atoms: N_2  and  C_3
REMARK    3  A    between atoms: N_2  and  C_20
REMARK    4  A    between atoms: C_3  and  C_4
REMARK    5  A    between atoms: C_4  and  N_5
REMARK    6  A    between atoms: N_5  and  C_6
REMARK    7  A    between atoms: C_10  and  C_11
REMARK    8  A    between atoms: C_20  and  C_21
REMARK                            x       y       z     vdW  Elec       q    Type
REMARK                         _______ _______ _______ _____ _____    ______ ____
ROOT
ATOM      1  C   UNL     1       4.466   5.338  18.378  0.00  0.00    +0.000 A 
ATOM      2  N   UNL     1       5.606   5.999  18.057  0.00  0.00    +0.000 NA
ATOM      3  C   UNL     1       6.270   5.830  16.879  0.00  0.00    +0.000 A 
ATOM      4  N   UNL     1       7.456   6.590  16.696  0.00  0.00    +0.000 N 
ATOM      5  C   UNL     1       5.731   4.923  15.910  0.00  0.00    +0.000 A 
ATOM      6  N   UNL     1       4.592   4.253  16.251  0.00  0.00    +0.000 NA
ATOM      7  C   UNL     1       3.955   4.419  17.444  0.00  0.00    +0.000 A 
ATOM      8 CL   UNL     1       2.473   3.519  17.733  0.00  0.00    +0.000 Cl
ATOM      9  H   UNL     1       7.770   7.212  17.454  0.00  0.00    +0.000 HD
ATOM     10  H   UNL     1       8.055   6.558  15.867  0.00  0.00    +0.000 HD
ENDROOT
BRANCH   5  11
ATOM     11  C   UNL     1       6.325   4.677  14.542  0.00  0.00    +0.000 C 
ATOM     12  O   UNL     1       7.175   5.434  14.121  0.00  0.00    +0.000 OA
ATOM     13  N   UNL     1       5.900   3.628  13.758  0.00  0.00    +0.000 N 
ATOM     14  C   UNL     1       6.359   3.285  12.425  0.00  0.00    +0.000 C 
ATOM     15  N   UNL     1       7.254   3.950  11.775  0.00  0.00    +0.000 NA
ATOM     16  N   UNL     1       5.795   2.157  11.775  0.00  0.00    +0.000 N 
ATOM     17  H   UNL     1       5.173   3.010  14.145  0.00  0.00    +0.000 HD
ATOM     18  H   UNL     1       7.753   4.785  12.090  0.00  0.00    +0.000 HD
ATOM     19  H   UNL     1       5.074   1.585  12.240  0.00  0.00    +0.000 HD
ATOM     20  H   UNL     1       6.103   1.889  10.828  0.00  0.00    +0.000 HD
ENDBRANCH   5  11
BRANCH   1  21
ATOM     21  N   UNL     1       3.783   5.624  19.612  0.00  0.00    +0.000 N 
ATOM     22  H   UNL     1       4.049   5.114  20.465  0.00  0.00    +0.000 HD
BRANCH  21  23
ATOM     23  C   UNL     1       2.551   6.404  19.661  0.00  0.00    +0.000 C 
BRANCH  23  24
ATOM     24  C   UNL     1       2.531   7.579  18.652  0.00  0.00    +0.000 C 
BRANCH  24  26
ATOM     25  C   UNL     1       1.199   8.532  20.502  0.00  0.00    +0.000 C 
ATOM     26  N   UNL     1       1.857   8.790  19.201  0.00  0.00    +0.000 NA
BRANCH  26  27
ATOM     27  C   UNL     1       0.862   9.318  18.232  0.00  0.00    +0.000 C 
BRANCH  27  28
ATOM     28  C   UNL     1       0.619  10.796  18.461  0.00  0.00    +0.000 A 
ATOM     29  C   UNL     1       1.705  11.677  18.594  0.00  0.00    +0.000 A 
ATOM     30  C   UNL     1       1.486  13.030  18.871  0.00  0.00    +0.000 A 
ATOM     31  C   UNL     1       0.183  13.513  19.021  0.00  0.00    +0.000 A 
ATOM     32  C   UNL     1      -0.904  12.646  18.882  0.00  0.00    +0.000 A 
ATOM     33  C   UNL     1      -0.689  11.293  18.599  0.00  0.00    +0.000 A 
ENDBRANCH  27  28
ENDBRANCH  26  27
ENDBRANCH  24  26
ENDBRANCH  23  24
ENDBRANCH  21  23
ENDBRANCH   1  21
TORSDOF 7
ENDMDL
MODEL 7
REMARK VINA RESULT:      -7.0      1.158      1.672
REMARK  Name = 
REMARK  8 active torsions:
REMARK  status: ('A' for Active; 'I' for Inactive)
REMARK    1  A    between atoms: C_1  and  N_2
REMARK    2  A    between atoms: N_2  and  C_3
REMARK    3  A    between atoms: N_2  and  C_20
REMARK    4  A    between atoms: C_3  and  C_4
REMARK    5  A    between atoms: C_4  and  N_5
REMARK    6  A    between atoms: N_5  and  C_6
REMARK    7  A    between atoms: C_10  and  C_11
REMARK    8  A    between atoms: C_20  and  C_21
REMARK                            x       y       z     vdW  Elec       q    Type
REMARK                         _______ _______ _______ _____ _____    ______ ____
ROOT
ATOM      1  C   UNL     1       2.144   7.243  20.068  0.00  0.00    +0.000 A 
ATOM      2  N   UNL     1       1.294   7.669  21.034  0.00  0.00    +0.000 NA
ATOM      3  C   UNL     1       0.572   8.821  20.949  0.00  0.00    +0.000 A 
ATOM      4  N   UNL     1      -0.268   9.135  22.051  0.00  0.00    +0.000 N 
ATOM      5  C   UNL     1       0.692   9.622  19.767  0.00  0.00    +0.000 A 
ATOM      6  N   UNL     1       1.561   9.191  18.809  0.00  0.00    +0.000 NA
ATOM      7  C   UNL     1       2.292   8.046  18.923  0.00  0.00    +0.000 A 
ATOM      8 CL   UNL     1       3.345   7.590  17.591  0.00  0.00    +0.000 Cl
ATOM      9  H   UNL     1      -0.284   8.500  22.861  0.00  0.00    +0.000 HD
ATOM     10  H   UNL     1      -0.859   9.967  22.124  0.00  0.00    +0.000 HD
ENDROOT
BRANCH   5  11
ATOM     11  C   UNL     1      -0.088  10.892  19.509  0.00  0.00    +0.000 C 
ATOM     12  O   UNL     1      -1.300  10.847  19.481  0.00  0.00    +0.000 OA
ATOM     13  N   UNL     1       0.554  12.088  19.280  0.00  0.00    +0.000 N 
ATOM     14  C   UNL     1      -0.058  13.373  18.997  0.00  0.00    +0.000 C 
ATOM     15  N   UNL     1      -1.331  13.564  18.913  0.00  0.00    +0.000 NA
ATOM     16  N   UNL     1       0.779  14.499  18.789  0.00  0.00    +0.000 N 
ATOM     17  H   UNL     1       1.583  12.087  19.306  0.00  0.00    +0.000 HD
ATOM     18  H   UNL     1      -2.070  12.867  19.028  0.00  0.00    +0.000 HD
ATOM     19  H   UNL     1       1.805  14.412  18.841  0.00  0.00    +0.000 HD
ATOM     20  H   UNL     1       0.371  15.426  18.587  0.00  0.00    +0.000 HD
ENDBRANCH   5  11
BRANCH   1  21
ATOM     21  N   UNL     1       2.818   5.978  20.199  0.00  0.00    +0.000 N 
ATOM     22  H   UNL     1       3.832   5.962  20.368  0.00  0.00    +0.000 HD
BRANCH  21  23
ATOM     23  C   UNL     1       2.186   4.714  19.835  0.00  0.00    +0.000 C 
BRANCH  23  24
ATOM     24  C   UNL     1       2.354   4.355  18.337  0.00  0.00    +0.000 C 
BRANCH  24  26
ATOM     25  C   UNL     1       2.801   1.926  18.400  0.00  0.00    +0.000 C 
ATOM     26  N   UNL     1       3.353   3.271  18.121  0.00  0.00    +0.000 NA
BRANCH  26  27
ATOM     27  C   UNL     1       4.560   3.500  18.956  0.00  0.00    +0.000 C 
BRANCH  27  28
ATOM     28  C   UNL     1       5.526   4.439  18.262  0.00  0.00    +0.000 A 
ATOM     29  C   UNL     1       6.328   5.311  19.017  0.00  0.00    +0.000 A 
ATOM     30  C   UNL     1       7.171   6.225  18.378  0.00  0.00    +0.000 A 
ATOM     31  C   UNL     1       7.219   6.278  16.982  0.00  0.00    +0.000 A 
ATOM     32  C   UNL     1       6.432   5.409  16.222  0.00  0.00    +0.000 A 
ATOM     33  C   UNL     1       5.591   4.489  16.858  0.00  0.00    +0.000 A 
ENDBRANCH  27  28
ENDBRANCH  26  27
ENDBRANCH  24  26
ENDBRANCH  23  24
ENDBRANCH  21  23
ENDBRANCH   1  21
TORSDOF 7
ENDMDL
MODEL 8
REMARK VINA RESULT:      -7.0      3.320      8.103
REMARK  Name = 
REMARK  8 active torsions:
REMARK  status: ('A' for Active; 'I' for Inactive)
REMARK    1  A    between atoms: C_1  and  N_2
REMARK    2  A    between atoms: N_2  and  C_3
REMARK    3  A    between atoms: N_2  and  C_20
REMARK    4  A    between atoms: C_3  and  C_4
REMARK    5  A    between atoms: C_4  and  N_5
REMARK    6  A    between atoms: N_5  and  C_6
REMARK    7  A    between atoms: C_10  and  C_11
REMARK    8  A    between atoms: C_20  and  C_21
REMARK                            x       y       z     vdW  Elec       q    Type
REMARK                         _______ _______ _______ _____ _____    ______ ____
ROOT
ATOM      1  C   UNL     1       2.690   6.585  19.502  0.00  0.00    +0.000 A 
ATOM      2  N   UNL     1       3.637   5.635  19.704  0.00  0.00    +0.000 NA
ATOM      3  C   UNL     1       4.625   5.352  18.809  0.00  0.00    +0.000 A 
ATOM      4  N   UNL     1       5.535   4.321  19.163  0.00  0.00    +0.000 N 
ATOM      5  C   UNL     1       4.690   6.110  17.595  0.00  0.00    +0.000 A 
ATOM      6  N   UNL     1       3.724   7.052  17.397  0.00  0.00    +0.000 NA
ATOM      7  C   UNL     1       2.730   7.305  18.294  0.00  0.00    +0.000 A 
ATOM      8 CL   UNL     1       1.575   8.577  17.926  0.00  0.00    +0.000 Cl
ATOM      9  H   UNL     1       5.403   3.827  20.057  0.00  0.00    +0.000 HD
ATOM     10  H   UNL     1       6.318   4.002  18.587  0.00  0.00    +0.000 HD
ENDROOT
BRANCH   5  11
ATOM     11  C   UNL     1       5.761   5.947  16.539  0.00  0.00    +0.000 C 
ATOM     12  O   UNL     1       6.687   6.729  16.509  0.00  0.00    +0.000 OA
ATOM     13  N   UNL     1       5.686   4.944  15.599  0.00  0.00    +0.000 N 
ATOM     14  C   UNL     1       6.620   4.681  14.519  0.00  0.00    +0.000 C 
ATOM     15  N   UNL     1       7.676   5.386  14.290  0.00  0.00    +0.000 NA
ATOM     16  N   UNL     1       6.369   3.592  13.647  0.00  0.00    +0.000 N 
ATOM     17  H   UNL     1       4.883   4.302  15.651  0.00  0.00    +0.000 HD
ATOM     18  H   UNL     1       8.000   6.203  14.813  0.00  0.00    +0.000 HD
ATOM     19  H   UNL     1       5.542   2.991  13.775  0.00  0.00    +0.000 HD
ATOM     20  H   UNL     1       7.017   3.380  12.871  0.00  0.00    +0.000 HD
ENDBRANCH   5  11
BRANCH   1  21
ATOM     21  N   UNL     1       1.722   6.875  20.526  0.00  0.00    +0.000 N 
ATOM     22  H   UNL     1       0.953   6.213  20.695  0.00  0.00    +0.000 HD
BRANCH  21  23
ATOM     23  C   UNL     1       1.617   8.189  21.153  0.00  0.00    +0.000 C 
BRANCH  23  24
ATOM     24  C   UNL     1       0.173   8.548  21.584  0.00  0.00    +0.000 C 
BRANCH  24  26
ATOM     25  C   UNL     1      -0.780  10.329  23.007  0.00  0.00    +0.000 C 
ATOM     26  N   UNL     1      -0.015  10.013  21.779  0.00  0.00    +0.000 NA
BRANCH  26  27
ATOM     27  C   UNL     1      -0.689  10.614  20.600  0.00  0.00    +0.000 C 
BRANCH  27  28
ATOM     28  C   UNL     1       0.148  11.731  20.011  0.00  0.00    +0.000 A 
ATOM     29  C   UNL     1       1.345  12.120  20.636  0.00  0.00    +0.000 A 
ATOM     30  C   UNL     1       2.086  13.194  20.133  0.00  0.00    +0.000 A 
ATOM     31  C   UNL     1       1.638  13.890  19.007  0.00  0.00    +0.000 A 
ATOM     32  C   UNL     1       0.453  13.505  18.374  0.00  0.00    +0.000 A 
ATOM     33  C   UNL     1      -0.288  12.428  18.869  0.00  0.00    +0.000 A 
ENDBRANCH  27  28
ENDBRANCH  26  27
ENDBRANCH  24  26
ENDBRANCH  23  24
ENDBRANCH  21  23
ENDBRANCH   1  21
TORSDOF 7
ENDMDL
MODEL 9
REMARK VINA RESULT:      -7.0      2.211      4.132
REMARK  Name = 
REMARK  8 active torsions:
REMARK  status: ('A' for Active; 'I' for Inactive)
REMARK    1  A    between atoms: C_1  and  N_2
REMARK    2  A    between atoms: N_2  and  C_3
REMARK    3  A    between atoms: N_2  and  C_20
REMARK    4  A    between atoms: C_3  and  C_4
REMARK    5  A    between atoms: C_4  and  N_5
REMARK    6  A    between atoms: N_5  and  C_6
REMARK    7  A    between atoms: C_10  and  C_11
REMARK    8  A    between atoms: C_20  and  C_21
REMARK                            x       y       z     vdW  Elec       q    Type
REMARK                         _______ _______ _______ _____ _____    ______ ____
ROOT
ATOM      1  C   UNL     1       2.090   8.178  18.574  0.00  0.00    +0.000 A 
ATOM      2  N   UNL     1       1.960   9.426  18.056  0.00  0.00    +0.000 NA
ATOM      3  C   UNL     1       1.443  10.479  18.748  0.00  0.00    +0.000 A 
ATOM      4  N   UNL     1       1.364  11.721  18.062  0.00  0.00    +0.000 N 
ATOM      5  C   UNL     1       1.032  10.276  20.105  0.00  0.00    +0.000 A 
ATOM      6  N   UNL     1       1.153   9.014  20.609  0.00  0.00    +0.000 NA
ATOM      7  C   UNL     1       1.652   7.967  19.894  0.00  0.00    +0.000 A 
ATOM      8 CL   UNL     1       1.790   6.403  20.684  0.00  0.00    +0.000 Cl
ATOM      9  H   UNL     1       1.679  11.769  17.083  0.00  0.00    +0.000 HD
ATOM     10  H   UNL     1       0.994  12.590  18.455  0.00  0.00    +0.000 HD
ENDROOT
BRANCH   5  11
ATOM     11  C   UNL     1       0.494  11.361  21.010  0.00  0.00    +0.000 C 
ATOM     12  O   UNL     1       1.127  12.389  21.143  0.00  0.00    +0.000 OA
ATOM     13  N   UNL     1      -0.682  11.192  21.705  0.00  0.00    +0.000 N 
ATOM     14  C   UNL     1      -1.304  12.131  22.621  0.00  0.00    +0.000 C 
ATOM     15  N   UNL     1      -0.809  13.284  22.920  0.00  0.00    +0.000 NA
ATOM     16  N   UNL     1      -2.526  11.771  23.244  0.00  0.00    +0.000 N 
ATOM     17  H   UNL     1      -1.189  10.306  21.572  0.00  0.00    +0.000 HD
ATOM     18  H   UNL     1       0.059  13.694  22.570  0.00  0.00    +0.000 HD
ATOM     19  H   UNL     1      -2.972  10.863  23.049  0.00  0.00    +0.000 HD
ATOM     20  H   UNL     1      -2.992  12.419  23.899  0.00  0.00    +0.000 HD
ENDBRANCH   5  11
BRANCH   1  21
ATOM     21  N   UNL     1       2.712   7.134  17.805  0.00  0.00    +0.000 N 
ATOM     22  H   UNL     1       2.231   6.231  17.697  0.00  0.00    +0.000 HD
BRANCH  21  23
ATOM     23  C   UNL     1       4.112   7.192  17.395  0.00  0.00    +0.000 C 
BRANCH  23  24
ATOM     24  C   UNL     1       4.781   5.798  17.303  0.00  0.00    +0.000 C 
BRANCH  24  26
ATOM     25  C   UNL     1       6.431   5.432  19.105  0.00  0.00    +0.000 C 
ATOM     26  N   UNL     1       5.043   5.203  18.644  0.00  0.00    +0.000 NA
BRANCH  26  27
ATOM     27  C   UNL     1       4.753   3.746  18.633  0.00  0.00    +0.000 C 
BRANCH  27  28
ATOM     28  C   UNL     1       3.341   3.473  19.110  0.00  0.00    +0.000 A 
ATOM     29  C   UNL     1       3.113   3.044  20.429  0.00  0.00    +0.000 A 
ATOM     30  C   UNL     1       1.819   2.727  20.854  0.00  0.00    +0.000 A 
ATOM     31  C   UNL     1       0.744   2.833  19.967  0.00  0.00    +0.000 A 
ATOM     32  C   UNL     1       0.959   3.268  18.657  0.00  0.00    +0.000 A 
ATOM     33  C   UNL     1       2.252   3.591  18.229  0.00  0.00    +0.000 A 
ENDBRANCH  27  28
ENDBRANCH  26  27
ENDBRANCH  24  26
ENDBRANCH  23  24
ENDBRANCH  21  23
ENDBRANCH   1  21
TORSDOF 7
ENDMDL
