MODEL 1
REMARK VINA RESULT:      -6.6      0.000      0.000
REMARK  Name = 
REMARK  5 active torsions:
REMARK  status: ('A' for Active; 'I' for Inactive)
REMARK    1  A    between atoms: C_2  and  O_3
REMARK    2  A    between atoms: C_2  and  C_12
REMARK    3  A    between atoms: O_3  and  C_4
REMARK    4  A    between atoms: C_4  and  C_5
REMARK    5  A    between atoms: C_16  and  S_17
REMARK                            x       y       z     vdW  Elec       q    Type
REMARK                         _______ _______ _______ _____ _____    ______ ____
ROOT
ATOM      1  O   UNL     1       5.342   5.867  15.000  0.00  0.00    +0.000 OA
ATOM      2  C   UNL     1       5.181   5.704  16.195  0.00  0.00    +0.000 C 
ENDROOT
BRANCH   2   3
ATOM      3  C   UNL     1       6.243   6.125  17.180  0.00  0.00    +0.000 A 
ATOM      4  C   UNL     1       6.786   5.186  18.065  0.00  0.00    +0.000 A 
ATOM      5  C   UNL     1       7.811   5.586  18.925  0.00  0.00    +0.000 A 
ATOM      6  C   UNL     1       8.281   6.891  18.854  0.00  0.00    +0.000 A 
ATOM      7  C   UNL     1       7.694   7.765  17.944  0.00  0.00    +0.000 A 
ATOM      8  N   UNL     1       6.682   7.408  17.121  0.00  0.00    +0.000 NA
BRANCH   7   9
ATOM      9  S   UNL     1       8.272   9.437  17.783  0.00  0.00    +0.000 S 
ATOM     10  H   UNL     1       7.820   9.887  18.959  0.00  0.00    +0.000 HD
ENDBRANCH   7   9
ENDBRANCH   2   3
BRANCH   2  11
ATOM     11  O   UNL     1       4.060   5.152  16.762  0.00  0.00    +0.000 OA
BRANCH  11  12
ATOM     12  C   UNL     1       3.242   5.974  17.638  0.00  0.00    +0.000 C 
BRANCH  12  13
ATOM     13  C   UNL     1       2.593   5.090  18.683  0.00  0.00    +0.000 A 
ATOM     14  C   UNL     1       1.718   4.063  18.290  0.00  0.00    +0.000 A 
ATOM     15  C   UNL     1       1.106   3.252  19.244  0.00  0.00    +0.000 A 
ATOM     16  C   UNL     1       1.371   3.462  20.590  0.00  0.00    +0.000 A 
ATOM     17  F   UNL     1       0.784   2.683  21.508  0.00  0.00    +0.000 F 
ATOM     18  C   UNL     1       2.237   4.469  21.002  0.00  0.00    +0.000 A 
ATOM     19  C   UNL     1       2.850   5.284  20.049  0.00  0.00    +0.000 A 
ENDBRANCH  12  13
ENDBRANCH  11  12
ENDBRANCH   2  11
TORSDOF 5
ENDMDL
MODEL 2
REMARK VINA RESULT:      -6.5      3.874      6.126
REMARK  Name = 
REMARK  5 active torsions:
REMARK  status: ('A' for Active; 'I' for Inactive)
REMARK    1  A    between atoms: C_2  and  O_3
REMARK    2  A    between atoms: C_2  and  C_12
REMARK    3  A    between atoms: O_3  and  C_4
REMARK    4  A    between atoms: C_4  and  C_5
REMARK    5  A    between atoms: C_16  and  S_17
REMARK                            x       y       z     vdW  Elec       q    Type
REMARK                         _______ _______ _______ _____ _____    ______ ____
ROOT
ATOM      1  O   UNL     1       2.389   2.978  16.467  0.00  0.00    +0.000 OA
ATOM      2  C   UNL     1       3.224   3.438  17.223  0.00  0.00    +0.000 C 
ENDROOT
BRANCH   2   3
ATOM      3  C   UNL     1       2.813   4.084  18.522  0.00  0.00    +0.000 A 
ATOM      4  C   UNL     1       2.744   5.479  18.617  0.00  0.00    +0.000 A 
ATOM      5  C   UNL     1       2.302   6.051  19.812  0.00  0.00    +0.000 A 
ATOM      6  C   UNL     1       1.916   5.221  20.856  0.00  0.00    +0.000 A 
ATOM      7  C   UNL     1       2.008   3.843  20.684  0.00  0.00    +0.000 A 
ATOM      8  N   UNL     1       2.459   3.266  19.547  0.00  0.00    +0.000 NA
BRANCH   7   9
ATOM      9  S   UNL     1       1.499   2.728  21.969  0.00  0.00    +0.000 S 
ATOM     10  H   UNL     1       0.350   2.333  21.407  0.00  0.00    +0.000 HD
ENDBRANCH   7   9
ENDBRANCH   2   3
BRANCH   2  11
ATOM     11  O   UNL     1       4.577   3.414  16.997  0.00  0.00    +0.000 OA
BRANCH  11  12
ATOM     12  C   UNL     1       5.154   4.394  16.093  0.00  0.00    +0.000 C 
BRANCH  12  13
ATOM     13  C   UNL     1       6.105   5.283  16.867  0.00  0.00    +0.000 A 
ATOM     14  C   UNL     1       6.170   6.658  16.583  0.00  0.00    +0.000 A 
ATOM     15  C   UNL     1       7.051   7.483  17.281  0.00  0.00    +0.000 A 
ATOM     16  C   UNL     1       7.864   6.937  18.264  0.00  0.00    +0.000 A 
ATOM     17  F   UNL     1       8.710   7.728  18.935  0.00  0.00    +0.000 F 
ATOM     18  C   UNL     1       7.814   5.580  18.564  0.00  0.00    +0.000 A 
ATOM     19  C   UNL     1       6.933   4.751  17.866  0.00  0.00    +0.000 A 
ENDBRANCH  12  13
ENDBRANCH  11  12
ENDBRANCH   2  11
TORSDOF 5
ENDMDL
MODEL 3
REMARK VINA RESULT:      -6.5      3.269      5.891
REMARK  Name = 
REMARK  5 active torsions:
REMARK  status: ('A' for Active; 'I' for Inactive)
REMARK    1  A    between atoms: C_2  and  O_3
REMARK    2  A    between atoms: C_2  and  C_12
REMARK    3  A    between atoms: O_3  and  C_4
REMARK    4  A    between atoms: C_4  and  C_5
REMARK    5  A    between atoms: C_16  and  S_17
REMARK                            x       y       z     vdW  Elec       q    Type
REMARK                         _______ _______ _______ _____ _____    ______ ____
ROOT
ATOM      1  O   UNL     1       4.030   1.978  17.679  0.00  0.00    +0.000 OA
ATOM      2  C   UNL     1       3.668   3.137  17.589  0.00  0.00    +0.000 C 
ENDROOT
BRANCH   2   3
ATOM      3  C   UNL     1       2.769   3.746  18.635  0.00  0.00    +0.000 A 
ATOM      4  C   UNL     1       2.032   2.918  19.491  0.00  0.00    +0.000 A 
ATOM      5  C   UNL     1       1.254   3.504  20.491  0.00  0.00    +0.000 A 
ATOM      6  C   UNL     1       1.260   4.886  20.627  0.00  0.00    +0.000 A 
ATOM      7  C   UNL     1       2.022   5.643  19.741  0.00  0.00    +0.000 A 
ATOM      8  N   UNL     1       2.761   5.099  18.748  0.00  0.00    +0.000 NA
BRANCH   7   9
ATOM      9  S   UNL     1       2.097   7.412  19.883  0.00  0.00    +0.000 S 
ATOM     10  H   UNL     1       2.915   7.463  20.942  0.00  0.00    +0.000 HD
ENDBRANCH   7   9
ENDBRANCH   2   3
BRANCH   2  11
ATOM     11  O   UNL     1       4.028   3.989  16.576  0.00  0.00    +0.000 OA
BRANCH  11  12
ATOM     12  C   UNL     1       5.391   3.945  16.075  0.00  0.00    +0.000 C 
BRANCH  12  13
ATOM     13  C   UNL     1       6.231   4.952  16.833  0.00  0.00    +0.000 A 
ATOM     14  C   UNL     1       6.140   6.320  16.521  0.00  0.00    +0.000 A 
ATOM     15  C   UNL     1       6.917   7.254  17.204  0.00  0.00    +0.000 A 
ATOM     16  C   UNL     1       7.781   6.824  18.201  0.00  0.00    +0.000 A 
ATOM     17  F   UNL     1       8.528   7.721  18.858  0.00  0.00    +0.000 F 
ATOM     18  C   UNL     1       7.884   5.477  18.530  0.00  0.00    +0.000 A 
ATOM     19  C   UNL     1       7.108   4.539  17.847  0.00  0.00    +0.000 A 
ENDBRANCH  12  13
ENDBRANCH  11  12
ENDBRANCH   2  11
TORSDOF 5
ENDMDL
MODEL 4
REMARK VINA RESULT:      -6.5      3.228      5.569
REMARK  Name = 
REMARK  5 active torsions:
REMARK  status: ('A' for Active; 'I' for Inactive)
REMARK    1  A    between atoms: C_2  and  O_3
REMARK    2  A    between atoms: C_2  and  C_12
REMARK    3  A    between atoms: O_3  and  C_4
REMARK    4  A    between atoms: C_4  and  C_5
REMARK    5  A    between atoms: C_16  and  S_17
REMARK                            x       y       z     vdW  Elec       q    Type
REMARK                         _______ _______ _______ _____ _____    ______ ____
ROOT
ATOM      1  O   UNL     1       1.667   2.884  17.565  0.00  0.00    +0.000 OA
ATOM      2  C   UNL     1       2.579   3.557  18.009  0.00  0.00    +0.000 C 
ENDROOT
BRANCH   2   3
ATOM      3  C   UNL     1       2.296   4.827  18.772  0.00  0.00    +0.000 A 
ATOM      4  C   UNL     1       2.036   4.772  20.147  0.00  0.00    +0.000 A 
ATOM      5  C   UNL     1       1.838   5.967  20.843  0.00  0.00    +0.000 A 
ATOM      6  C   UNL     1       1.937   7.171  20.158  0.00  0.00    +0.000 A 
ATOM      7  C   UNL     1       2.204   7.144  18.792  0.00  0.00    +0.000 A 
ATOM      8  N   UNL     1       2.372   5.999  18.092  0.00  0.00    +0.000 NA
BRANCH   7   9
ATOM      9  S   UNL     1       2.375   8.651  17.867  0.00  0.00    +0.000 S 
ATOM     10  H   UNL     1       1.641   8.285  16.809  0.00  0.00    +0.000 HD
ENDBRANCH   7   9
ENDBRANCH   2   3
BRANCH   2  11
ATOM     11  O   UNL     1       3.909   3.248  17.883  0.00  0.00    +0.000 OA
BRANCH  11  12
ATOM     12  C   UNL     1       4.656   3.809  16.771  0.00  0.00    +0.000 C 
BRANCH  12  13
ATOM     13  C   UNL     1       5.704   4.761  17.307  0.00  0.00    +0.000 A 
ATOM     14  C   UNL     1       6.042   4.739  18.671  0.00  0.00    +0.000 A 
ATOM     15  C   UNL     1       6.996   5.620  19.178  0.00  0.00    +0.000 A 
ATOM     16  C   UNL     1       7.618   6.519  18.322  0.00  0.00    +0.000 A 
ATOM     17  F   UNL     1       8.535   7.365  18.808  0.00  0.00    +0.000 F 
ATOM     18  C   UNL     1       7.303   6.555  16.969  0.00  0.00    +0.000 A 
ATOM     19  C   UNL     1       6.346   5.676  16.459  0.00  0.00    +0.000 A 
ENDBRANCH  12  13
ENDBRANCH  11  12
ENDBRANCH   2  11
TORSDOF 5
ENDMDL
MODEL 5
REMARK VINA RESULT:      -6.5      1.317      1.568
REMARK  Name = 
REMARK  5 active torsions:
REMARK  status: ('A' for Active; 'I' for Inactive)
REMARK    1  A    between atoms: C_2  and  O_3
REMARK    2  A    between atoms: C_2  and  C_12
REMARK    3  A    between atoms: O_3  and  C_4
REMARK    4  A    between atoms: C_4  and  C_5
REMARK    5  A    between atoms: C_16  and  S_17
REMARK                            x       y       z     vdW  Elec       q    Type
REMARK                         _______ _______ _______ _____ _____    ______ ____
ROOT
ATOM      1  O   UNL     1       6.663   5.638  14.620  0.00  0.00    +0.000 OA
ATOM      2  C   UNL     1       6.165   5.523  15.725  0.00  0.00    +0.000 C 
ENDROOT
BRANCH   2   3
ATOM      3  C   UNL     1       6.873   6.051  16.947  0.00  0.00    +0.000 A 
ATOM      4  C   UNL     1       7.243   5.173  17.973  0.00  0.00    +0.000 A 
ATOM      5  C   UNL     1       7.952   5.675  19.066  0.00  0.00    +0.000 A 
ATOM      6  C   UNL     1       8.295   7.021  19.087  0.00  0.00    +0.000 A 
ATOM      7  C   UNL     1       7.896   7.830  18.028  0.00  0.00    +0.000 A 
ATOM      8  N   UNL     1       7.185   7.372  16.972  0.00  0.00    +0.000 NA
BRANCH   7   9
ATOM      9  S   UNL     1       8.332   9.551  17.980  0.00  0.00    +0.000 S 
ATOM     10  H   UNL     1       7.215  10.025  18.546  0.00  0.00    +0.000 HD
ENDBRANCH   7   9
ENDBRANCH   2   3
BRANCH   2  11
ATOM     11  O   UNL     1       4.949   4.938  15.974  0.00  0.00    +0.000 OA
BRANCH  11  12
ATOM     12  C   UNL     1       4.117   5.477  17.036  0.00  0.00    +0.000 C 
BRANCH  12  13
ATOM     13  C   UNL     1       3.346   4.347  17.685  0.00  0.00    +0.000 A 
ATOM     14  C   UNL     1       2.009   4.539  18.071  0.00  0.00    +0.000 A 
ATOM     15  C   UNL     1       1.293   3.509  18.680  0.00  0.00    +0.000 A 
ATOM     16  C   UNL     1       1.911   2.286  18.899  0.00  0.00    +0.000 A 
ATOM     17  F   UNL     1       1.225   1.295  19.484  0.00  0.00    +0.000 F 
ATOM     18  C   UNL     1       3.232   2.072  18.522  0.00  0.00    +0.000 A 
ATOM     19  C   UNL     1       3.951   3.102  17.913  0.00  0.00    +0.000 A 
ENDBRANCH  12  13
ENDBRANCH  11  12
ENDBRANCH   2  11
TORSDOF 5
ENDMDL
MODEL 6
REMARK VINA RESULT:      -6.4      2.699      3.528
REMARK  Name = 
REMARK  5 active torsions:
REMARK  status: ('A' for Active; 'I' for Inactive)
REMARK    1  A    between atoms: C_2  and  O_3
REMARK    2  A    between atoms: C_2  and  C_12
REMARK    3  A    between atoms: O_3  and  C_4
REMARK    4  A    between atoms: C_4  and  C_5
REMARK    5  A    between atoms: C_16  and  S_17
REMARK                            x       y       z     vdW  Elec       q    Type
REMARK                         _______ _______ _______ _____ _____    ______ ____
ROOT
ATOM      1  O   UNL     1       8.103   5.362  18.129  0.00  0.00    +0.000 OA
ATOM      2  C   UNL     1       7.093   4.759  17.818  0.00  0.00    +0.000 C 
ENDROOT
BRANCH   2   3
ATOM      3  C   UNL     1       6.763   4.507  16.367  0.00  0.00    +0.000 A 
ATOM      4  C   UNL     1       5.613   3.785  16.028  0.00  0.00    +0.000 A 
ATOM      5  C   UNL     1       5.296   3.617  14.679  0.00  0.00    +0.000 A 
ATOM      6  C   UNL     1       6.113   4.197  13.717  0.00  0.00    +0.000 A 
ATOM      7  C   UNL     1       7.237   4.905  14.132  0.00  0.00    +0.000 A 
ATOM      8  N   UNL     1       7.579   5.057  15.432  0.00  0.00    +0.000 NA
BRANCH   7   9
ATOM      9  S   UNL     1       8.303   5.697  12.953  0.00  0.00    +0.000 S 
ATOM     10  H   UNL     1       8.791   6.638  13.770  0.00  0.00    +0.000 HD
ENDBRANCH   7   9
ENDBRANCH   2   3
BRANCH   2  11
ATOM     11  O   UNL     1       6.182   4.252  18.709  0.00  0.00    +0.000 OA
BRANCH  11  12
ATOM     12  C   UNL     1       5.073   5.090  19.131  0.00  0.00    +0.000 C 
BRANCH  12  13
ATOM     13  C   UNL     1       3.780   4.317  18.975  0.00  0.00    +0.000 A 
ATOM     14  C   UNL     1       3.659   3.029  19.524  0.00  0.00    +0.000 A 
ATOM     15  C   UNL     1       2.478   2.305  19.376  0.00  0.00    +0.000 A 
ATOM     16  C   UNL     1       1.415   2.867  18.683  0.00  0.00    +0.000 A 
ATOM     17  F   UNL     1       0.279   2.172  18.539  0.00  0.00    +0.000 F 
ATOM     18  C   UNL     1       1.510   4.141  18.134  0.00  0.00    +0.000 A 
ATOM     19  C   UNL     1       2.693   4.869  18.280  0.00  0.00    +0.000 A 
ENDBRANCH  12  13
ENDBRANCH  11  12
ENDBRANCH   2  11
TORSDOF 5
ENDMDL
MODEL 7
REMARK VINA RESULT:      -6.4      3.999      6.025
REMARK  Name = 
REMARK  5 active torsions:
REMARK  status: ('A' for Active; 'I' for Inactive)
REMARK    1  A    between atoms: C_2  and  O_3
REMARK    2  A    between atoms: C_2  and  C_12
REMARK    3  A    between atoms: O_3  and  C_4
REMARK    4  A    between atoms: C_4  and  C_5
REMARK    5  A    between atoms: C_16  and  S_17
REMARK                            x       y       z     vdW  Elec       q    Type
REMARK                         _______ _______ _______ _____ _____    ______ ____
ROOT
ATOM      1  O   UNL     1       2.982   5.025  20.074  0.00  0.00    +0.000 OA
ATOM      2  C   UNL     1       2.845   5.685  19.060  0.00  0.00    +0.000 C 
ENDROOT
BRANCH   2   3
ATOM      3  C   UNL     1       2.340   7.105  19.129  0.00  0.00    +0.000 A 
ATOM      4  C   UNL     1       2.362   7.910  17.984  0.00  0.00    +0.000 A 
ATOM      5  C   UNL     1       1.833   9.200  18.057  0.00  0.00    +0.000 A 
ATOM      6  C   UNL     1       1.274   9.633  19.252  0.00  0.00    +0.000 A 
ATOM      7  C   UNL     1       1.284   8.773  20.346  0.00  0.00    +0.000 A 
ATOM      8  N   UNL     1       1.815   7.530  20.307  0.00  0.00    +0.000 NA
BRANCH   7   9
ATOM      9  S   UNL     1       0.554   9.255  21.892  0.00  0.00    +0.000 S 
ATOM     10  H   UNL     1      -0.357   8.276  21.963  0.00  0.00    +0.000 HD
ENDBRANCH   7   9
ENDBRANCH   2   3
BRANCH   2  11
ATOM     11  O   UNL     1       3.131   5.239  17.795  0.00  0.00    +0.000 OA
BRANCH  11  12
ATOM     12  C   UNL     1       4.347   4.475  17.580  0.00  0.00    +0.000 C 
BRANCH  12  13
ATOM     13  C   UNL     1       5.544   5.354  17.874  0.00  0.00    +0.000 A 
ATOM     14  C   UNL     1       5.790   6.493  17.087  0.00  0.00    +0.000 A 
ATOM     15  C   UNL     1       6.896   7.303  17.341  0.00  0.00    +0.000 A 
ATOM     16  C   UNL     1       7.753   6.980  18.383  0.00  0.00    +0.000 A 
ATOM     17  F   UNL     1       8.816   7.757  18.629  0.00  0.00    +0.000 F 
ATOM     18  C   UNL     1       7.527   5.861  19.178  0.00  0.00    +0.000 A 
ATOM     19  C   UNL     1       6.422   5.047  18.925  0.00  0.00    +0.000 A 
ENDBRANCH  12  13
ENDBRANCH  11  12
ENDBRANCH   2  11
TORSDOF 5
ENDMDL
MODEL 8
REMARK VINA RESULT:      -6.4      3.921      5.350
REMARK  Name = 
REMARK  5 active torsions:
REMARK  status: ('A' for Active; 'I' for Inactive)
REMARK    1  A    between atoms: C_2  and  O_3
REMARK    2  A    between atoms: C_2  and  C_12
REMARK    3  A    between atoms: O_3  and  C_4
REMARK    4  A    between atoms: C_4  and  C_5
REMARK    5  A    between atoms: C_16  and  S_17
REMARK                            x       y       z     vdW  Elec       q    Type
REMARK                         _______ _______ _______ _____ _____    ______ ____
ROOT
ATOM      1  O   UNL     1       6.217   4.418  18.069  0.00  0.00    +0.000 OA
ATOM      2  C   UNL     1       5.098   4.840  18.296  0.00  0.00    +0.000 C 
ENDROOT
BRANCH   2   3
ATOM      3  C   UNL     1       3.946   3.890  18.510  0.00  0.00    +0.000 A 
ATOM      4  C   UNL     1       3.500   3.083  17.456  0.00  0.00    +0.000 A 
ATOM      5  C   UNL     1       2.473   2.168  17.696  0.00  0.00    +0.000 A 
ATOM      6  C   UNL     1       1.948   2.065  18.978  0.00  0.00    +0.000 A 
ATOM      7  C   UNL     1       2.447   2.897  19.975  0.00  0.00    +0.000 A 
ATOM      8  N   UNL     1       3.422   3.809  19.760  0.00  0.00    +0.000 NA
BRANCH   7   9
ATOM      9  S   UNL     1       1.840   2.789  21.641  0.00  0.00    +0.000 S 
ATOM     10  H   UNL     1       0.659   3.383  21.431  0.00  0.00    +0.000 HD
ENDBRANCH   7   9
ENDBRANCH   2   3
BRANCH   2  11
ATOM     11  O   UNL     1       4.770   6.169  18.389  0.00  0.00    +0.000 OA
BRANCH  11  12
ATOM     12  C   UNL     1       3.748   6.701  17.505  0.00  0.00    +0.000 C 
BRANCH  12  13
ATOM     13  C   UNL     1       2.794   7.559  18.310  0.00  0.00    +0.000 A 
ATOM     14  C   UNL     1       2.280   8.745  17.759  0.00  0.00    +0.000 A 
ATOM     15  C   UNL     1       1.410   9.548  18.496  0.00  0.00    +0.000 A 
ATOM     16  C   UNL     1       1.050   9.164  19.780  0.00  0.00    +0.000 A 
ATOM     17  F   UNL     1       0.215   9.935  20.489  0.00  0.00    +0.000 F 
ATOM     18  C   UNL     1       1.543   7.993  20.343  0.00  0.00    +0.000 A 
ATOM     19  C   UNL     1       2.415   7.188  19.609  0.00  0.00    +0.000 A 
ENDBRANCH  12  13
ENDBRANCH  11  12
ENDBRANCH   2  11
TORSDOF 5
ENDMDL
MODEL 9
REMARK VINA RESULT:      -6.4      4.041      5.937
REMARK  Name = 
REMARK  5 active torsions:
REMARK  status: ('A' for Active; 'I' for Inactive)
REMARK    1  A    between atoms: C_2  and  O_3
REMARK    2  A    between atoms: C_2  and  C_12
REMARK    3  A    between atoms: O_3  and  C_4
REMARK    4  A    between atoms: C_4  and  C_5
REMARK    5  A    between atoms: C_16  and  S_17
REMARK                            x       y       z     vdW  Elec       q    Type
REMARK                         _______ _______ _______ _____ _____    ______ ____
ROOT
ATOM      1  O   UNL     1       2.310   5.115  21.116  0.00  0.00    +0.000 OA
ATOM      2  C   UNL     1       2.557   5.436  19.969  0.00  0.00    +0.000 C 
ENDROOT
BRANCH   2   3
ATOM      3  C   UNL     1       2.290   6.840  19.488  0.00  0.00    +0.000 A 
ATOM      4  C   UNL     1       2.587   7.194  18.166  0.00  0.00    +0.000 A 
ATOM      5  C   UNL     1       2.274   8.482  17.727  0.00  0.00    +0.000 A 
ATOM      6  C   UNL     1       1.651   9.361  18.604  0.00  0.00    +0.000 A 
ATOM      7  C   UNL     1       1.383   8.935  19.902  0.00  0.00    +0.000 A 
ATOM      8  N   UNL     1       1.702   7.702  20.357  0.00  0.00    +0.000 NA
BRANCH   7   9
ATOM      9  S   UNL     1       0.559   9.999  21.060  0.00  0.00    +0.000 S 
ATOM     10  H   UNL     1      -0.545  10.217  20.335  0.00  0.00    +0.000 HD
ENDBRANCH   7   9
ENDBRANCH   2   3
BRANCH   2  11
ATOM     11  O   UNL     1       3.094   4.599  19.024  0.00  0.00    +0.000 OA
BRANCH  11  12
ATOM     12  C   UNL     1       4.436   4.081  19.228  0.00  0.00    +0.000 C 
BRANCH  12  13
ATOM     13  C   UNL     1       5.254   4.314  17.975  0.00  0.00    +0.000 A 
ATOM     14  C   UNL     1       4.647   4.219  16.711  0.00  0.00    +0.000 A 
ATOM     15  C   UNL     1       5.393   4.420  15.551  0.00  0.00    +0.000 A 
ATOM     16  C   UNL     1       6.744   4.720  15.652  0.00  0.00    +0.000 A 
ATOM     17  F   UNL     1       7.462   4.914  14.538  0.00  0.00    +0.000 F 
ATOM     18  C   UNL     1       7.365   4.823  16.891  0.00  0.00    +0.000 A 
ATOM     19  C   UNL     1       6.621   4.621  18.055  0.00  0.00    +0.000 A 
ENDBRANCH  12  13
ENDBRANCH  11  12
ENDBRANCH   2  11
TORSDOF 5
ENDMDL
