MODEL 1
REMARK VINA RESULT:      -8.6      0.000      0.000
REMARK  Name = 
REMARK  3 active torsions:
REMARK  status: ('A' for Active; 'I' for Inactive)
REMARK    1  A    between atoms: O_1  and  C_2
REMARK    2  A    between atoms: C_5  and  C_6
REMARK    3  A    between atoms: C_8  and  C_9
REMARK                            x       y       z     vdW  Elec       q    Type
REMARK                         _______ _______ _______ _____ _____    ______ ____
ROOT
ATOM      1  C   UNL     1       4.201   4.692  17.329  0.00  0.00    +0.000 A 
ATOM      2  C   UNL     1       4.998   5.730  17.833  0.00  0.00    +0.000 A 
ATOM      3  C   UNL     1       6.161   6.174  17.183  0.00  0.00    +0.000 A 
ATOM      4  C   UNL     1       6.347   5.550  15.942  0.00  0.00    +0.000 A 
ATOM      5  O   UNL     1       7.342   5.793  15.038  0.00  0.00    +0.000 OA
ATOM      6  C   UNL     1       7.094   5.023  13.944  0.00  0.00    +0.000 A 
ATOM      7  C   UNL     1       7.853   5.022  12.775  0.00  0.00    +0.000 A 
ATOM      8  C   UNL     1       7.429   4.165  11.755  0.00  0.00    +0.000 A 
ATOM      9  C   UNL     1       6.306   3.349  11.919  0.00  0.00    +0.000 A 
ATOM     10  C   UNL     1       5.564   3.371  13.109  0.00  0.00    +0.000 A 
ATOM     11  C   UNL     1       5.966   4.236  14.144  0.00  0.00    +0.000 A 
ATOM     12  C   UNL     1       5.490   4.574  15.442  0.00  0.00    +0.000 A 
ATOM     13  N   UNL     1       4.414   4.110  16.125  0.00  0.00    +0.000 NA
ENDROOT
BRANCH   3  14
ATOM     14  C   UNL     1       7.073   7.212  17.719  0.00  0.00    +0.000 A 
ATOM     15  C   UNL     1       7.024   8.520  17.185  0.00  0.00    +0.000 A 
ATOM     16  C   UNL     1       7.885   9.535  17.610  0.00  0.00    +0.000 A 
ATOM     17  C   UNL     1       8.804   9.290  18.621  0.00  0.00    +0.000 A 
ATOM     18  C   UNL     1       8.864   8.025  19.194  0.00  0.00    +0.000 A 
ATOM     19  C   UNL     1       8.028   6.993  18.741  0.00  0.00    +0.000 A 
ATOM     20 CL   UNL     1       8.310   5.447  19.482  0.00  0.00    +0.000 Cl
ENDBRANCH   3  14
BRANCH   1  24
ATOM     21  C   UNL     1       0.913   3.128  19.618  0.00  0.00    +0.000 A 
ATOM     22  C   UNL     1       1.578   4.266  20.054  0.00  0.00    +0.000 A 
ATOM     23  C   UNL     1       2.645   4.775  19.305  0.00  0.00    +0.000 A 
ATOM     24  C   UNL     1       3.065   4.155  18.114  0.00  0.00    +0.000 A 
ATOM     25  C   UNL     1       2.356   3.010  17.697  0.00  0.00    +0.000 A 
ATOM     26  C   UNL     1       1.296   2.496  18.442  0.00  0.00    +0.000 A 
BRANCH  21  27
ATOM     27  O   UNL     1      -0.132   2.599  20.312  0.00  0.00    +0.000 OA
ATOM     28  H   UNL     1      -0.526   1.890  19.780  0.00  0.00    +0.000 HD
ENDBRANCH  21  27
ENDBRANCH   1  24
TORSDOF 3
ENDMDL
MODEL 2
REMARK VINA RESULT:      -7.9      3.830      6.577
REMARK  Name = 
REMARK  3 active torsions:
REMARK  status: ('A' for Active; 'I' for Inactive)
REMARK    1  A    between atoms: O_1  and  C_2
REMARK    2  A    between atoms: C_5  and  C_6
REMARK    3  A    between atoms: C_8  and  C_9
REMARK                            x       y       z     vdW  Elec       q    Type
REMARK                         _______ _______ _______ _____ _____    ______ ____
ROOT
ATOM      1  C   UNL     1       2.628   7.644  18.531  0.00  0.00    +0.000 A 
ATOM      2  C   UNL     1       3.514   7.281  17.506  0.00  0.00    +0.000 A 
ATOM      3  C   UNL     1       4.192   6.051  17.493  0.00  0.00    +0.000 A 
ATOM      4  C   UNL     1       3.786   5.210  18.538  0.00  0.00    +0.000 A 
ATOM      5  O   UNL     1       4.206   3.933  18.778  0.00  0.00    +0.000 OA
ATOM      6  C   UNL     1       3.500   3.467  19.844  0.00  0.00    +0.000 A 
ATOM      7  C   UNL     1       3.597   2.180  20.369  0.00  0.00    +0.000 A 
ATOM      8  C   UNL     1       2.778   1.887  21.463  0.00  0.00    +0.000 A 
ATOM      9  C   UNL     1       1.919   2.851  21.999  0.00  0.00    +0.000 A 
ATOM     10  C   UNL     1       1.845   4.139  21.448  0.00  0.00    +0.000 A 
ATOM     11  C   UNL     1       2.652   4.450  20.338  0.00  0.00    +0.000 A 
ATOM     12  C   UNL     1       2.847   5.581  19.496  0.00  0.00    +0.000 A 
ATOM     13  N   UNL     1       2.261   6.804  19.528  0.00  0.00    +0.000 NA
ENDROOT
BRANCH   3  14
ATOM     14  C   UNL     1       5.194   5.661  16.473  0.00  0.00    +0.000 A 
ATOM     15  C   UNL     1       4.797   4.847  15.388  0.00  0.00    +0.000 A 
ATOM     16  C   UNL     1       5.698   4.403  14.416  0.00  0.00    +0.000 A 
ATOM     17  C   UNL     1       7.028   4.794  14.470  0.00  0.00    +0.000 A 
ATOM     18  C   UNL     1       7.454   5.618  15.505  0.00  0.00    +0.000 A 
ATOM     19  C   UNL     1       6.560   6.033  16.505  0.00  0.00    +0.000 A 
ATOM     20 CL   UNL     1       7.277   6.963  17.784  0.00  0.00    +0.000 Cl
ENDBRANCH   3  14
BRANCH   1  24
ATOM     21  C   UNL     1       0.943  11.597  18.695  0.00  0.00    +0.000 A 
ATOM     22  C   UNL     1       2.037  11.347  17.879  0.00  0.00    +0.000 A 
ATOM     23  C   UNL     1       2.581  10.059  17.824  0.00  0.00    +0.000 A 
ATOM     24  C   UNL     1       2.044   9.005  18.585  0.00  0.00    +0.000 A 
ATOM     25  C   UNL     1       0.924   9.294  19.391  0.00  0.00    +0.000 A 
ATOM     26  C   UNL     1       0.382  10.577  19.453  0.00  0.00    +0.000 A 
BRANCH  21  27
ATOM     27  O   UNL     1       0.378  12.834  18.779  0.00  0.00    +0.000 OA
ATOM     28  H   UNL     1       0.689  13.364  18.028  0.00  0.00    +0.000 HD
ENDBRANCH  21  27
ENDBRANCH   1  24
TORSDOF 3
ENDMDL
MODEL 3
REMARK VINA RESULT:      -7.9      8.064     10.636
REMARK  Name = 
REMARK  3 active torsions:
REMARK  status: ('A' for Active; 'I' for Inactive)
REMARK    1  A    between atoms: O_1  and  C_2
REMARK    2  A    between atoms: C_5  and  C_6
REMARK    3  A    between atoms: C_8  and  C_9
REMARK                            x       y       z     vdW  Elec       q    Type
REMARK                         _______ _______ _______ _____ _____    ______ ____
ROOT
ATOM      1  C   UNL     1       0.828  10.329  18.729  0.00  0.00    +0.000 A 
ATOM      2  C   UNL     1      -0.550  10.379  18.471  0.00  0.00    +0.000 A 
ATOM      3  C   UNL     1      -1.275  11.582  18.462  0.00  0.00    +0.000 A 
ATOM      4  C   UNL     1      -0.447  12.702  18.616  0.00  0.00    +0.000 A 
ATOM      5  O   UNL     1      -0.823  14.015  18.596  0.00  0.00    +0.000 OA
ATOM      6  C   UNL     1       0.307  14.764  18.705  0.00  0.00    +0.000 A 
ATOM      7  C   UNL     1       0.354  16.156  18.669  0.00  0.00    +0.000 A 
ATOM      8  C   UNL     1       1.617  16.743  18.786  0.00  0.00    +0.000 A 
ATOM      9  C   UNL     1       2.765  15.960  18.941  0.00  0.00    +0.000 A 
ATOM     10  C   UNL     1       2.685  14.560  18.974  0.00  0.00    +0.000 A 
ATOM     11  C   UNL     1       1.424  13.948  18.846  0.00  0.00    +0.000 A 
ATOM     12  C   UNL     1       0.931  12.614  18.797  0.00  0.00    +0.000 A 
ATOM     13  N   UNL     1       1.596  11.434  18.876  0.00  0.00    +0.000 NA
ENDROOT
BRANCH   3  14
ATOM     14  C   UNL     1      -2.742  11.672  18.272  0.00  0.00    +0.000 A 
ATOM     15  C   UNL     1      -3.557  12.081  19.352  0.00  0.00    +0.000 A 
ATOM     16  C   UNL     1      -4.950  12.143  19.256  0.00  0.00    +0.000 A 
ATOM     17  C   UNL     1      -5.580  11.838  18.058  0.00  0.00    +0.000 A 
ATOM     18  C   UNL     1      -4.812  11.460  16.962  0.00  0.00    +0.000 A 
ATOM     19  C   UNL     1      -3.416  11.358  17.067  0.00  0.00    +0.000 A 
ATOM     20 CL   UNL     1      -2.620  10.764  15.642  0.00  0.00    +0.000 Cl
ENDBRANCH   3  14
BRANCH   1  24
ATOM     21  C   UNL     1       2.851   6.557  19.139  0.00  0.00    +0.000 A 
ATOM     22  C   UNL     1       2.945   7.264  17.948  0.00  0.00    +0.000 A 
ATOM     23  C   UNL     1       2.288   8.493  17.819  0.00  0.00    +0.000 A 
ATOM     24  C   UNL     1       1.528   9.031  18.873  0.00  0.00    +0.000 A 
ATOM     25  C   UNL     1       1.468   8.291  20.070  0.00  0.00    +0.000 A 
ATOM     26  C   UNL     1       2.115   7.063  20.203  0.00  0.00    +0.000 A 
BRANCH  21  27
ATOM     27  O   UNL     1       3.474   5.358  19.311  0.00  0.00    +0.000 OA
ATOM     28  H   UNL     1       3.602   5.213  20.261  0.00  0.00    +0.000 HD
ENDBRANCH  21  27
ENDBRANCH   1  24
TORSDOF 3
ENDMDL
MODEL 4
REMARK VINA RESULT:      -7.7      7.983     10.523
REMARK  Name = 
REMARK  3 active torsions:
REMARK  status: ('A' for Active; 'I' for Inactive)
REMARK    1  A    between atoms: O_1  and  C_2
REMARK    2  A    between atoms: C_5  and  C_6
REMARK    3  A    between atoms: C_8  and  C_9
REMARK                            x       y       z     vdW  Elec       q    Type
REMARK                         _______ _______ _______ _____ _____    ______ ____
ROOT
ATOM      1  C   UNL     1       0.945  10.192  18.707  0.00  0.00    +0.000 A 
ATOM      2  C   UNL     1      -0.424  10.246  18.402  0.00  0.00    +0.000 A 
ATOM      3  C   UNL     1      -1.149  11.448  18.386  0.00  0.00    +0.000 A 
ATOM      4  C   UNL     1      -0.328  12.566  18.584  0.00  0.00    +0.000 A 
ATOM      5  O   UNL     1      -0.704  13.879  18.570  0.00  0.00    +0.000 OA
ATOM      6  C   UNL     1       0.421  14.627  18.728  0.00  0.00    +0.000 A 
ATOM      7  C   UNL     1       0.467  16.019  18.713  0.00  0.00    +0.000 A 
ATOM      8  C   UNL     1       1.725  16.606  18.882  0.00  0.00    +0.000 A 
ATOM      9  C   UNL     1       2.867  15.821  19.065  0.00  0.00    +0.000 A 
ATOM     10  C   UNL     1       2.788  14.420  19.076  0.00  0.00    +0.000 A 
ATOM     11  C   UNL     1       1.532  13.810  18.896  0.00  0.00    +0.000 A 
ATOM     12  C   UNL     1       1.043  12.476  18.811  0.00  0.00    +0.000 A 
ATOM     13  N   UNL     1       1.706  11.296  18.896  0.00  0.00    +0.000 NA
ENDROOT
BRANCH   3  14
ATOM     14  C   UNL     1      -2.608  11.540  18.146  0.00  0.00    +0.000 A 
ATOM     15  C   UNL     1      -3.128  11.174  16.884  0.00  0.00    +0.000 A 
ATOM     16  C   UNL     1      -4.487  11.280  16.574  0.00  0.00    +0.000 A 
ATOM     17  C   UNL     1      -5.387  11.717  17.535  0.00  0.00    +0.000 A 
ATOM     18  C   UNL     1      -4.921  12.060  18.799  0.00  0.00    +0.000 A 
ATOM     19  C   UNL     1      -3.552  11.992  19.100  0.00  0.00    +0.000 A 
ATOM     20 CL   UNL     1      -3.125  12.562  20.684  0.00  0.00    +0.000 Cl
ENDBRANCH   3  14
BRANCH   1  24
ATOM     21  C   UNL     1       2.957   6.416  19.133  0.00  0.00    +0.000 A 
ATOM     22  C   UNL     1       3.093   7.142  17.957  0.00  0.00    +0.000 A 
ATOM     23  C   UNL     1       2.441   8.373  17.823  0.00  0.00    +0.000 A 
ATOM     24  C   UNL     1       1.641   8.893  18.856  0.00  0.00    +0.000 A 
ATOM     25  C   UNL     1       1.538   8.134  20.039  0.00  0.00    +0.000 A 
ATOM     26  C   UNL     1       2.181   6.905  20.176  0.00  0.00    +0.000 A 
BRANCH  21  27
ATOM     27  O   UNL     1       3.575   5.215  19.309  0.00  0.00    +0.000 OA
ATOM     28  H   UNL     1       4.530   5.369  19.372  0.00  0.00    +0.000 HD
ENDBRANCH  21  27
ENDBRANCH   1  24
TORSDOF 3
ENDMDL
MODEL 5
REMARK VINA RESULT:      -7.6      8.064     10.092
REMARK  Name = 
REMARK  3 active torsions:
REMARK  status: ('A' for Active; 'I' for Inactive)
REMARK    1  A    between atoms: O_1  and  C_2
REMARK    2  A    between atoms: C_5  and  C_6
REMARK    3  A    between atoms: C_8  and  C_9
REMARK                            x       y       z     vdW  Elec       q    Type
REMARK                         _______ _______ _______ _____ _____    ______ ____
ROOT
ATOM      1  C   UNL     1      -1.762  11.810  18.783  0.00  0.00    +0.000 A 
ATOM      2  C   UNL     1      -1.022  10.626  18.919  0.00  0.00    +0.000 A 
ATOM      3  C   UNL     1       0.382  10.604  18.884  0.00  0.00    +0.000 A 
ATOM      4  C   UNL     1       0.932  11.891  18.823  0.00  0.00    +0.000 A 
ATOM      5  O   UNL     1       2.257  12.222  18.831  0.00  0.00    +0.000 OA
ATOM      6  C   UNL     1       2.337  13.580  18.835  0.00  0.00    +0.000 A 
ATOM      7  C   UNL     1       3.519  14.314  18.898  0.00  0.00    +0.000 A 
ATOM      8  C   UNL     1       3.392  15.706  18.903  0.00  0.00    +0.000 A 
ATOM      9  C   UNL     1       2.136  16.316  18.837  0.00  0.00    +0.000 A 
ATOM     10  C   UNL     1       0.963  15.549  18.773  0.00  0.00    +0.000 A 
ATOM     11  C   UNL     1       1.068  14.145  18.779  0.00  0.00    +0.000 A 
ATOM     12  C   UNL     1       0.162  13.049  18.762  0.00  0.00    +0.000 A 
ATOM     13  N   UNL     1      -1.194  13.038  18.723  0.00  0.00    +0.000 NA
ENDROOT
BRANCH   3  14
ATOM     14  C   UNL     1       1.199   9.369  18.946  0.00  0.00    +0.000 A 
ATOM     15  C   UNL     1       1.904   8.947  17.796  0.00  0.00    +0.000 A 
ATOM     16  C   UNL     1       2.655   7.768  17.770  0.00  0.00    +0.000 A 
ATOM     17  C   UNL     1       2.765   6.987  18.911  0.00  0.00    +0.000 A 
ATOM     18  C   UNL     1       2.110   7.382  20.072  0.00  0.00    +0.000 A 
ATOM     19  C   UNL     1       1.322   8.544  20.090  0.00  0.00    +0.000 A 
ATOM     20 CL   UNL     1       0.483   8.832  21.583  0.00  0.00    +0.000 Cl
ENDBRANCH   3  14
BRANCH   1  24
ATOM     21  C   UNL     1      -6.051  11.701  18.493  0.00  0.00    +0.000 A 
ATOM     22  C   UNL     1      -5.450  12.285  19.599  0.00  0.00    +0.000 A 
ATOM     23  C   UNL     1      -4.053  12.323  19.689  0.00  0.00    +0.000 A 
ATOM     24  C   UNL     1      -3.240  11.776  18.680  0.00  0.00    +0.000 A 
ATOM     25  C   UNL     1      -3.888  11.204  17.567  0.00  0.00    +0.000 A 
ATOM     26  C   UNL     1      -5.278  11.158  17.475  0.00  0.00    +0.000 A 
BRANCH  21  27
ATOM     27  O   UNL     1      -7.406  11.643  18.361  0.00  0.00    +0.000 OA
ATOM     28  H   UNL     1      -7.631  11.818  17.435  0.00  0.00    +0.000 HD
ENDBRANCH  21  27
ENDBRANCH   1  24
TORSDOF 3
ENDMDL
MODEL 6
REMARK VINA RESULT:      -7.5      8.080     10.544
REMARK  Name = 
REMARK  3 active torsions:
REMARK  status: ('A' for Active; 'I' for Inactive)
REMARK    1  A    between atoms: O_1  and  C_2
REMARK    2  A    between atoms: C_5  and  C_6
REMARK    3  A    between atoms: C_8  and  C_9
REMARK                            x       y       z     vdW  Elec       q    Type
REMARK                         _______ _______ _______ _____ _____    ______ ____
ROOT
ATOM      1  C   UNL     1       0.939  10.564  19.219  0.00  0.00    +0.000 A 
ATOM      2  C   UNL     1      -0.364  10.766  19.698  0.00  0.00    +0.000 A 
ATOM      3  C   UNL     1      -0.897  12.046  19.922  0.00  0.00    +0.000 A 
ATOM      4  C   UNL     1      -0.032  13.063  19.497  0.00  0.00    +0.000 A 
ATOM      5  O   UNL     1      -0.267  14.409  19.520  0.00  0.00    +0.000 OA
ATOM      6  C   UNL     1       0.805  15.019  18.946  0.00  0.00    +0.000 A 
ATOM      7  C   UNL     1       0.927  16.390  18.729  0.00  0.00    +0.000 A 
ATOM      8  C   UNL     1       2.104  16.824  18.113  0.00  0.00    +0.000 A 
ATOM      9  C   UNL     1       3.104  15.917  17.748  0.00  0.00    +0.000 A 
ATOM     10  C   UNL     1       2.952  14.542  17.981  0.00  0.00    +0.000 A 
ATOM     11  C   UNL     1       1.768  14.083  18.589  0.00  0.00    +0.000 A 
ATOM     12  C   UNL     1       1.227  12.819  18.956  0.00  0.00    +0.000 A 
ATOM     13  N   UNL     1       1.748  11.574  18.821  0.00  0.00    +0.000 NA
ENDROOT
BRANCH   3  14
ATOM     14  C   UNL     1      -2.237  12.303  20.500  0.00  0.00    +0.000 A 
ATOM     15  C   UNL     1      -3.360  12.370  19.645  0.00  0.00    +0.000 A 
ATOM     16  C   UNL     1      -4.644  12.655  20.117  0.00  0.00    +0.000 A 
ATOM     17  C   UNL     1      -4.861  12.842  21.475  0.00  0.00    +0.000 A 
ATOM     18  C   UNL     1      -3.788  12.755  22.354  0.00  0.00    +0.000 A 
ATOM     19  C   UNL     1      -2.491  12.509  21.878  0.00  0.00    +0.000 A 
ATOM     20 CL   UNL     1      -1.250  12.546  23.093  0.00  0.00    +0.000 Cl
ENDBRANCH   3  14
BRANCH   1  24
ATOM     21  C   UNL     1       2.622   6.614  18.979  0.00  0.00    +0.000 A 
ATOM     22  C   UNL     1       2.043   7.046  20.165  0.00  0.00    +0.000 A 
ATOM     23  C   UNL     1       1.492   8.331  20.239  0.00  0.00    +0.000 A 
ATOM     24  C   UNL     1       1.515   9.202  19.134  0.00  0.00    +0.000 A 
ATOM     25  C   UNL     1       2.100   8.722  17.944  0.00  0.00    +0.000 A 
ATOM     26  C   UNL     1       2.655   7.445  17.867  0.00  0.00    +0.000 A 
BRANCH  21  27
ATOM     27  O   UNL     1       3.168   5.372  18.860  0.00  0.00    +0.000 OA
ATOM     28  H   UNL     1       2.655   4.758  19.408  0.00  0.00    +0.000 HD
ENDBRANCH  21  27
ENDBRANCH   1  24
TORSDOF 3
ENDMDL
MODEL 7
REMARK VINA RESULT:      -7.5      8.258     10.763
REMARK  Name = 
REMARK  3 active torsions:
REMARK  status: ('A' for Active; 'I' for Inactive)
REMARK    1  A    between atoms: O_1  and  C_2
REMARK    2  A    between atoms: C_5  and  C_6
REMARK    3  A    between atoms: C_8  and  C_9
REMARK                            x       y       z     vdW  Elec       q    Type
REMARK                         _______ _______ _______ _____ _____    ______ ____
ROOT
ATOM      1  C   UNL     1       0.782  10.640  19.061  0.00  0.00    +0.000 A 
ATOM      2  C   UNL     1      -0.586  10.792  19.334  0.00  0.00    +0.000 A 
ATOM      3  C   UNL     1      -1.193  12.050  19.480  0.00  0.00    +0.000 A 
ATOM      4  C   UNL     1      -0.309  13.101  19.203  0.00  0.00    +0.000 A 
ATOM      5  O   UNL     1      -0.593  14.437  19.197  0.00  0.00    +0.000 OA
ATOM      6  C   UNL     1       0.533  15.090  18.801  0.00  0.00    +0.000 A 
ATOM      7  C   UNL     1       0.638  16.467  18.615  0.00  0.00    +0.000 A 
ATOM      8  C   UNL     1       1.880  16.949  18.192  0.00  0.00    +0.000 A 
ATOM      9  C   UNL     1       2.956  16.081  17.981  0.00  0.00    +0.000 A 
ATOM     10  C   UNL     1       2.819  14.699  18.179  0.00  0.00    +0.000 A 
ATOM     11  C   UNL     1       1.573  14.192  18.593  0.00  0.00    +0.000 A 
ATOM     12  C   UNL     1       1.027  12.906  18.862  0.00  0.00    +0.000 A 
ATOM     13  N   UNL     1       1.607  11.681  18.801  0.00  0.00    +0.000 NA
ENDROOT
BRANCH   3  14
ATOM     14  C   UNL     1      -2.614  12.254  19.845  0.00  0.00    +0.000 A 
ATOM     15  C   UNL     1      -2.939  12.691  21.149  0.00  0.00    +0.000 A 
ATOM     16  C   UNL     1      -4.260  12.859  21.576  0.00  0.00    +0.000 A 
ATOM     17  C   UNL     1      -5.309  12.636  20.695  0.00  0.00    +0.000 A 
ATOM     18  C   UNL     1      -5.032  12.233  19.394  0.00  0.00    +0.000 A 
ATOM     19  C   UNL     1      -3.708  12.024  18.975  0.00  0.00    +0.000 A 
ATOM     20 CL   UNL     1      -3.543  11.413  17.358  0.00  0.00    +0.000 Cl
ENDBRANCH   3  14
BRANCH   1  24
ATOM     21  C   UNL     1       2.623   6.754  19.059  0.00  0.00    +0.000 A 
ATOM     22  C   UNL     1       1.986   7.214  20.203  0.00  0.00    +0.000 A 
ATOM     23  C   UNL     1       1.384   8.478  20.200  0.00  0.00    +0.000 A 
ATOM     24  C   UNL     1       1.412   9.299  19.058  0.00  0.00    +0.000 A 
ATOM     25  C   UNL     1       2.056   8.791  17.912  0.00  0.00    +0.000 A 
ATOM     26  C   UNL     1       2.662   7.535  17.911  0.00  0.00    +0.000 A 
BRANCH  21  27
ATOM     27  O   UNL     1       3.220   5.530  19.014  0.00  0.00    +0.000 OA
ATOM     28  H   UNL     1       2.923   5.016  19.781  0.00  0.00    +0.000 HD
ENDBRANCH  21  27
ENDBRANCH   1  24
TORSDOF 3
ENDMDL
MODEL 8
REMARK VINA RESULT:      -7.3      8.575     11.140
REMARK  Name = 
REMARK  3 active torsions:
REMARK  status: ('A' for Active; 'I' for Inactive)
REMARK    1  A    between atoms: O_1  and  C_2
REMARK    2  A    between atoms: C_5  and  C_6
REMARK    3  A    between atoms: C_8  and  C_9
REMARK                            x       y       z     vdW  Elec       q    Type
REMARK                         _______ _______ _______ _____ _____    ______ ____
ROOT
ATOM      1  C   UNL     1       0.415  10.807  19.445  0.00  0.00    +0.000 A 
ATOM      2  C   UNL     1      -0.970  10.934  19.633  0.00  0.00    +0.000 A 
ATOM      3  C   UNL     1      -1.617  12.179  19.672  0.00  0.00    +0.000 A 
ATOM      4  C   UNL     1      -0.748  13.239  19.381  0.00  0.00    +0.000 A 
ATOM      5  O   UNL     1      -1.066  14.563  19.282  0.00  0.00    +0.000 OA
ATOM      6  C   UNL     1       0.062  15.226  18.910  0.00  0.00    +0.000 A 
ATOM      7  C   UNL     1       0.140  16.593  18.649  0.00  0.00    +0.000 A 
ATOM      8  C   UNL     1       1.391  17.086  18.268  0.00  0.00    +0.000 A 
ATOM      9  C   UNL     1       2.500  16.241  18.167  0.00  0.00    +0.000 A 
ATOM     10  C   UNL     1       2.389  14.869  18.437  0.00  0.00    +0.000 A 
ATOM     11  C   UNL     1       1.135  14.349  18.812  0.00  0.00    +0.000 A 
ATOM     12  C   UNL     1       0.610  13.065  19.126  0.00  0.00    +0.000 A 
ATOM     13  N   UNL     1       1.225  11.856  19.169  0.00  0.00    +0.000 NA
ENDROOT
BRANCH   3  14
ATOM     14  C   UNL     1      -3.062  12.361  19.946  0.00  0.00    +0.000 A 
ATOM     15  C   UNL     1      -3.475  12.801  21.224  0.00  0.00    +0.000 A 
ATOM     16  C   UNL     1      -4.822  12.949  21.566  0.00  0.00    +0.000 A 
ATOM     17  C   UNL     1      -5.810  12.702  20.624  0.00  0.00    +0.000 A 
ATOM     18  C   UNL     1      -5.446  12.296  19.345  0.00  0.00    +0.000 A 
ATOM     19  C   UNL     1      -4.096  12.108  19.011  0.00  0.00    +0.000 A 
ATOM     20 CL   UNL     1      -3.819  11.490  17.412  0.00  0.00    +0.000 Cl
ENDBRANCH   3  14
BRANCH   1  24
ATOM     21  C   UNL     1       2.336   6.973  19.757  0.00  0.00    +0.000 A 
ATOM     22  C   UNL     1       2.386   7.674  18.560  0.00  0.00    +0.000 A 
ATOM     23  C   UNL     1       1.763   8.924  18.462  0.00  0.00    +0.000 A 
ATOM     24  C   UNL     1       1.080   9.488  19.554  0.00  0.00    +0.000 A 
ATOM     25  C   UNL     1       1.063   8.752  20.757  0.00  0.00    +0.000 A 
ATOM     26  C   UNL     1       1.677   7.505  20.858  0.00  0.00    +0.000 A 
BRANCH  21  27
ATOM     27  O   UNL     1       2.930   5.755  19.900  0.00  0.00    +0.000 OA
ATOM     28  H   UNL     1       3.134   5.622  20.838  0.00  0.00    +0.000 HD
ENDBRANCH  21  27
ENDBRANCH   1  24
TORSDOF 3
ENDMDL
MODEL 9
REMARK VINA RESULT:      -7.3      8.382     10.466
REMARK  Name = 
REMARK  3 active torsions:
REMARK  status: ('A' for Active; 'I' for Inactive)
REMARK    1  A    between atoms: O_1  and  C_2
REMARK    2  A    between atoms: C_5  and  C_6
REMARK    3  A    between atoms: C_8  and  C_9
REMARK                            x       y       z     vdW  Elec       q    Type
REMARK                         _______ _______ _______ _____ _____    ______ ____
ROOT
ATOM      1  C   UNL     1      -1.686  12.398  19.852  0.00  0.00    +0.000 A 
ATOM      2  C   UNL     1      -1.008  11.171  19.819  0.00  0.00    +0.000 A 
ATOM      3  C   UNL     1       0.308  11.047  19.344  0.00  0.00    +0.000 A 
ATOM      4  C   UNL     1       0.880  12.287  19.035  0.00  0.00    +0.000 A 
ATOM      5  O   UNL     1       2.155  12.523  18.606  0.00  0.00    +0.000 OA
ATOM      6  C   UNL     1       2.307  13.871  18.503  0.00  0.00    +0.000 A 
ATOM      7  C   UNL     1       3.487  14.521  18.146  0.00  0.00    +0.000 A 
ATOM      8  C   UNL     1       3.446  15.917  18.107  0.00  0.00    +0.000 A 
ATOM      9  C   UNL     1       2.270  16.613  18.404  0.00  0.00    +0.000 A 
ATOM     10  C   UNL     1       1.096  15.930  18.760  0.00  0.00    +0.000 A 
ATOM     11  C   UNL     1       1.121  14.523  18.817  0.00  0.00    +0.000 A 
ATOM     12  C   UNL     1       0.196  13.494  19.152  0.00  0.00    +0.000 A 
ATOM     13  N   UNL     1      -1.100  13.579  19.543  0.00  0.00    +0.000 NA
ENDROOT
BRANCH   3  14
ATOM     14  C   UNL     1       1.032   9.760  19.219  0.00  0.00    +0.000 A 
ATOM     15  C   UNL     1       1.513   9.356  17.953  0.00  0.00    +0.000 A 
ATOM     16  C   UNL     1       2.163   8.134  17.754  0.00  0.00    +0.000 A 
ATOM     17  C   UNL     1       2.395   7.287  18.827  0.00  0.00    +0.000 A 
ATOM     18  C   UNL     1       1.964   7.660  20.095  0.00  0.00    +0.000 A 
ATOM     19  C   UNL     1       1.276   8.867  20.291  0.00  0.00    +0.000 A 
ATOM     20 CL   UNL     1       0.708   9.128  21.912  0.00  0.00    +0.000 Cl
ENDBRANCH   3  14
BRANCH   1  24
ATOM     21  C   UNL     1      -5.846  12.606  20.922  0.00  0.00    +0.000 A 
ATOM     22  C   UNL     1      -5.484  12.272  19.624  0.00  0.00    +0.000 A 
ATOM     23  C   UNL     1      -4.129  12.201  19.280  0.00  0.00    +0.000 A 
ATOM     24  C   UNL     1      -3.119  12.466  20.223  0.00  0.00    +0.000 A 
ATOM     25  C   UNL     1      -3.527  12.788  21.533  0.00  0.00    +0.000 A 
ATOM     26  C   UNL     1      -4.875  12.865  21.880  0.00  0.00    +0.000 A 
BRANCH  21  27
ATOM     27  O   UNL     1      -7.151  12.685  21.304  0.00  0.00    +0.000 OA
ATOM     28  H   UNL     1      -7.705  12.396  20.562  0.00  0.00    +0.000 HD
ENDBRANCH  21  27
ENDBRANCH   1  24
TORSDOF 3
ENDMDL
