MODEL 1
REMARK VINA RESULT:      -8.2      0.000      0.000
REMARK  Name = 
REMARK  13 active torsions:
REMARK  status: ('A' for Active; 'I' for Inactive)
REMARK    1  A    between atoms: C_1  and  O_2
REMARK    2  A    between atoms: O_2  and  C_3
REMARK    3  A    between atoms: C_6  and  C_7
REMARK    4  A    between atoms: C_14  and  O_15
REMARK    5  A    between atoms: O_15  and  C_16
REMARK    6  A    between atoms: C_16  and  C_17
REMARK    7  A    between atoms: C_17  and  C_18
REMARK    8  A    between atoms: C_18  and  C_19
REMARK    9  A    between atoms: C_19  and  C_20
REMARK   10  A    between atoms: C_20  and  C_21
REMARK   11  A    between atoms: C_21  and  C_22
REMARK   12  A    between atoms: C_22  and  N_23
REMARK   13  A    between atoms: C_26  and  C_27
REMARK                            x       y       z     vdW  Elec       q    Type
REMARK                         _______ _______ _______ _____ _____    ______ ____
ROOT
ATOM      1  C   UNL     1       0.459  10.691  20.612  0.00  0.00    +0.000 A 
ATOM      2  C   UNL     1       1.082  11.095  19.495  0.00  0.00    +0.000 A 
ATOM      3  C   UNL     1       1.587  10.119  18.555  0.00  0.00    +0.000 A 
ATOM      4  O   UNL     1       1.885  10.440  17.415  0.00  0.00    +0.000 OA
ATOM      5  C   UNL     1       1.734   8.768  19.069  0.00  0.00    +0.000 A 
ATOM      6  C   UNL     1       2.503   7.896  18.320  0.00  0.00    +0.000 A 
ATOM      7  C   UNL     1       2.825   6.666  18.858  0.00  0.00    +0.000 A 
ATOM      8  C   UNL     1       2.366   6.291  20.127  0.00  0.00    +0.000 A 
ATOM      9  C   UNL     1       1.530   7.157  20.864  0.00  0.00    +0.000 A 
ATOM     10  C   UNL     1       1.221   8.432  20.332  0.00  0.00    +0.000 A 
ATOM     11  O   UNL     1       0.443   9.355  21.050  0.00  0.00    +0.000 OA
ENDROOT
BRANCH   1  15
ATOM     12  C   UNL     1      -1.045  13.844  23.204  0.00  0.00    +0.000 A 
ATOM     13  C   UNL     1      -0.110  14.112  22.216  0.00  0.00    +0.000 A 
ATOM     14  C   UNL     1       0.269  13.112  21.323  0.00  0.00    +0.000 A 
ATOM     15  C   UNL     1      -0.191  11.775  21.426  0.00  0.00    +0.000 A 
ATOM     16  C   UNL     1      -1.202  11.542  22.364  0.00  0.00    +0.000 A 
ATOM     17  C   UNL     1      -1.625  12.569  23.247  0.00  0.00    +0.000 A 
BRANCH  12  19
ATOM     18  C   UNL     1      -2.500  14.935  24.735  0.00  0.00    +0.000 C 
ATOM     19  O   UNL     1      -1.260  14.896  24.052  0.00  0.00    +0.000 OA
ENDBRANCH  12  19
ENDBRANCH   1  15
BRANCH   8  20
ATOM     20  O   UNL     1       2.857   5.061  20.428  0.00  0.00    +0.000 OA
BRANCH  20  21
ATOM     21  C   UNL     1       2.147   4.068  21.144  0.00  0.00    +0.000 C 
BRANCH  21  22
ATOM     22  C   UNL     1       0.833   3.828  20.358  0.00  0.00    +0.000 C 
BRANCH  22  23
ATOM     23  C   UNL     1       0.955   2.723  19.287  0.00  0.00    +0.000 C 
BRANCH  23  24
ATOM     24  C   UNL     1       1.574   3.212  17.959  0.00  0.00    +0.000 C 
BRANCH  24  25
ATOM     25  C   UNL     1       2.737   2.303  17.525  0.00  0.00    +0.000 C 
BRANCH  25  26
ATOM     26  C   UNL     1       4.117   2.979  17.430  0.00  0.00    +0.000 C 
BRANCH  26  27
ATOM     27  C   UNL     1       4.080   4.471  17.053  0.00  0.00    +0.000 C 
BRANCH  27  28
ATOM     28  N   UNL     1       5.044   4.814  15.987  0.00  0.00    +0.000 NA
ATOM     29  C   UNL     1       6.353   4.154  16.104  0.00  0.00    +0.000 C 
ATOM     30  C   UNL     1       7.180   4.632  17.298  0.00  0.00    +0.000 C 
ATOM     31  C   UNL     1       7.351   6.156  17.317  0.00  0.00    +0.000 C 
ATOM     32  C   UNL     1       7.904   6.608  18.670  0.00  0.00    +0.000 C 
ATOM     33  C   UNL     1       6.039   6.893  17.011  0.00  0.00    +0.000 C 
ATOM     34  C   UNL     1       5.246   6.265  15.862  0.00  0.00    +0.000 C 
ENDBRANCH  27  28
ENDBRANCH  26  27
ENDBRANCH  25  26
ENDBRANCH  24  25
ENDBRANCH  23  24
ENDBRANCH  22  23
ENDBRANCH  21  22
ENDBRANCH  20  21
ENDBRANCH   8  20
TORSDOF 11
ENDMDL
MODEL 2
REMARK VINA RESULT:      -7.4      3.634      6.146
REMARK  Name = 
REMARK  13 active torsions:
REMARK  status: ('A' for Active; 'I' for Inactive)
REMARK    1  A    between atoms: C_1  and  O_2
REMARK    2  A    between atoms: O_2  and  C_3
REMARK    3  A    between atoms: C_6  and  C_7
REMARK    4  A    between atoms: C_14  and  O_15
REMARK    5  A    between atoms: O_15  and  C_16
REMARK    6  A    between atoms: C_16  and  C_17
REMARK    7  A    between atoms: C_17  and  C_18
REMARK    8  A    between atoms: C_18  and  C_19
REMARK    9  A    between atoms: C_19  and  C_20
REMARK   10  A    between atoms: C_20  and  C_21
REMARK   11  A    between atoms: C_21  and  C_22
REMARK   12  A    between atoms: C_22  and  N_23
REMARK   13  A    between atoms: C_26  and  C_27
REMARK                            x       y       z     vdW  Elec       q    Type
REMARK                         _______ _______ _______ _____ _____    ______ ____
ROOT
ATOM      1  C   UNL     1       1.812   7.200  20.321  0.00  0.00    +0.000 A 
ATOM      2  C   UNL     1       1.213   6.100  20.799  0.00  0.00    +0.000 A 
ATOM      3  C   UNL     1       1.841   4.807  20.641  0.00  0.00    +0.000 A 
ATOM      4  O   UNL     1       1.482   3.848  21.307  0.00  0.00    +0.000 OA
ATOM      5  C   UNL     1       2.885   4.734  19.633  0.00  0.00    +0.000 A 
ATOM      6  C   UNL     1       3.275   3.470  19.230  0.00  0.00    +0.000 A 
ATOM      7  C   UNL     1       4.124   3.352  18.147  0.00  0.00    +0.000 A 
ATOM      8  C   UNL     1       4.604   4.486  17.480  0.00  0.00    +0.000 A 
ATOM      9  C   UNL     1       4.254   5.776  17.932  0.00  0.00    +0.000 A 
ATOM     10  C   UNL     1       3.360   5.905  19.021  0.00  0.00    +0.000 A 
ATOM     11  O   UNL     1       2.934   7.164  19.472  0.00  0.00    +0.000 OA
ENDROOT
BRANCH   1  15
ATOM     12  C   UNL     1      -0.409  10.759  21.468  0.00  0.00    +0.000 A 
ATOM     13  C   UNL     1      -0.040   9.810  22.409  0.00  0.00    +0.000 A 
ATOM     14  C   UNL     1       0.771   8.738  22.039  0.00  0.00    +0.000 A 
ATOM     15  C   UNL     1       1.176   8.509  20.700  0.00  0.00    +0.000 A 
ATOM     16  C   UNL     1       0.877   9.521  19.782  0.00  0.00    +0.000 A 
ATOM     17  C   UNL     1       0.089  10.638  20.165  0.00  0.00    +0.000 A 
BRANCH  12  19
ATOM     18  C   UNL     1      -2.284  12.171  21.088  0.00  0.00    +0.000 C 
ATOM     19  O   UNL     1      -1.267  11.706  21.957  0.00  0.00    +0.000 OA
ENDBRANCH  12  19
ENDBRANCH   1  15
BRANCH   8  20
ATOM     20  O   UNL     1       5.380   4.088  16.438  0.00  0.00    +0.000 OA
BRANCH  20  21
ATOM     21  C   UNL     1       6.716   4.504  16.230  0.00  0.00    +0.000 C 
BRANCH  21  22
ATOM     22  C   UNL     1       6.838   5.904  16.882  0.00  0.00    +0.000 C 
BRANCH  22  23
ATOM     23  C   UNL     1       7.788   5.930  18.099  0.00  0.00    +0.000 C 
BRANCH  23  24
ATOM     24  C   UNL     1       8.174   7.354  18.555  0.00  0.00    +0.000 C 
BRANCH  24  25
ATOM     25  C   UNL     1       7.747   8.402  17.514  0.00  0.00    +0.000 C 
BRANCH  25  26
ATOM     26  C   UNL     1       8.012   9.871  17.893  0.00  0.00    +0.000 C 
BRANCH  26  27
ATOM     27  C   UNL     1       9.300  10.106  18.702  0.00  0.00    +0.000 C 
BRANCH  27  28
ATOM     28  N   UNL     1      10.132  11.194  18.146  0.00  0.00    +0.000 NA
ATOM     29  C   UNL     1      11.382  11.449  18.876  0.00  0.00    +0.000 C 
ATOM     30  C   UNL     1      11.172  12.038  20.272  0.00  0.00    +0.000 C 
ATOM     31  C   UNL     1      10.303  13.302  20.247  0.00  0.00    +0.000 C 
ATOM     32  C   UNL     1       9.866  13.670  21.667  0.00  0.00    +0.000 C 
ATOM     33  C   UNL     1       9.074  13.147  19.340  0.00  0.00    +0.000 C 
ATOM     34  C   UNL     1       9.387  12.454  18.011  0.00  0.00    +0.000 C 
ENDBRANCH  27  28
ENDBRANCH  26  27
ENDBRANCH  25  26
ENDBRANCH  24  25
ENDBRANCH  23  24
ENDBRANCH  22  23
ENDBRANCH  21  22
ENDBRANCH  20  21
ENDBRANCH   8  20
TORSDOF 11
ENDMDL
MODEL 3
REMARK VINA RESULT:      -7.3      0.679      1.090
REMARK  Name = 
REMARK  13 active torsions:
REMARK  status: ('A' for Active; 'I' for Inactive)
REMARK    1  A    between atoms: C_1  and  O_2
REMARK    2  A    between atoms: O_2  and  C_3
REMARK    3  A    between atoms: C_6  and  C_7
REMARK    4  A    between atoms: C_14  and  O_15
REMARK    5  A    between atoms: O_15  and  C_16
REMARK    6  A    between atoms: C_16  and  C_17
REMARK    7  A    between atoms: C_17  and  C_18
REMARK    8  A    between atoms: C_18  and  C_19
REMARK    9  A    between atoms: C_19  and  C_20
REMARK   10  A    between atoms: C_20  and  C_21
REMARK   11  A    between atoms: C_21  and  C_22
REMARK   12  A    between atoms: C_22  and  N_23
REMARK   13  A    between atoms: C_26  and  C_27
REMARK                            x       y       z     vdW  Elec       q    Type
REMARK                         _______ _______ _______ _____ _____    ______ ____
ROOT
ATOM      1  C   UNL     1       0.744  10.713  20.646  0.00  0.00    +0.000 A 
ATOM      2  C   UNL     1       1.347  11.040  19.494  0.00  0.00    +0.000 A 
ATOM      3  C   UNL     1       1.692  10.010  18.539  0.00  0.00    +0.000 A 
ATOM      4  O   UNL     1       1.963  10.291  17.382  0.00  0.00    +0.000 OA
ATOM      5  C   UNL     1       1.718   8.654  19.060  0.00  0.00    +0.000 A 
ATOM      6  C   UNL     1       2.347   7.699  18.281  0.00  0.00    +0.000 A 
ATOM      7  C   UNL     1       2.561   6.444  18.815  0.00  0.00    +0.000 A 
ATOM      8  C   UNL     1       2.132   6.128  20.110  0.00  0.00    +0.000 A 
ATOM      9  C   UNL     1       1.435   7.084  20.880  0.00  0.00    +0.000 A 
ATOM     10  C   UNL     1       1.239   8.383  20.352  0.00  0.00    +0.000 A 
ATOM     11  O   UNL     1       0.605   9.388  21.098  0.00  0.00    +0.000 OA
ENDROOT
BRANCH   1  15
ATOM     12  C   UNL     1      -1.057  13.989  22.870  0.00  0.00    +0.000 A 
ATOM     13  C   UNL     1      -1.328  12.668  23.193  0.00  0.00    +0.000 A 
ATOM     14  C   UNL     1      -0.650  11.637  22.545  0.00  0.00    +0.000 A 
ATOM     15  C   UNL     1       0.259  11.866  21.481  0.00  0.00    +0.000 A 
ATOM     16  C   UNL     1       0.593  13.201  21.231  0.00  0.00    +0.000 A 
ATOM     17  C   UNL     1      -0.061  14.254  21.920  0.00  0.00    +0.000 A 
BRANCH  12  19
ATOM     18  C   UNL     1      -2.859  15.536  22.778  0.00  0.00    +0.000 C 
ATOM     19  O   UNL     1      -1.851  14.886  23.530  0.00  0.00    +0.000 OA
ENDBRANCH  12  19
ENDBRANCH   1  15
BRANCH   8  20
ATOM     20  O   UNL     1       2.501   4.853  20.399  0.00  0.00    +0.000 OA
BRANCH  20  21
ATOM     21  C   UNL     1       1.650   3.886  20.984  0.00  0.00    +0.000 C 
BRANCH  21  22
ATOM     22  C   UNL     1       0.875   3.229  19.815  0.00  0.00    +0.000 C 
BRANCH  22  23
ATOM     23  C   UNL     1       1.724   2.221  19.010  0.00  0.00    +0.000 C 
BRANCH  23  24
ATOM     24  C   UNL     1       2.473   2.855  17.817  0.00  0.00    +0.000 C 
BRANCH  24  25
ATOM     25  C   UNL     1       3.992   2.647  17.946  0.00  0.00    +0.000 C 
BRANCH  25  26
ATOM     26  C   UNL     1       4.840   3.156  16.767  0.00  0.00    +0.000 C 
BRANCH  26  27
ATOM     27  C   UNL     1       4.453   4.553  16.249  0.00  0.00    +0.000 C 
BRANCH  27  28
ATOM     28  N   UNL     1       5.609   5.302  15.712  0.00  0.00    +0.000 NA
ATOM     29  C   UNL     1       6.907   4.630  15.870  0.00  0.00    +0.000 C 
ATOM     30  C   UNL     1       7.376   4.530  17.322  0.00  0.00    +0.000 C 
ATOM     31  C   UNL     1       7.395   5.893  18.026  0.00  0.00    +0.000 C 
ATOM     32  C   UNL     1       7.565   5.705  19.535  0.00  0.00    +0.000 C 
ATOM     33  C   UNL     1       6.132   6.716  17.734  0.00  0.00    +0.000 C 
ATOM     34  C   UNL     1       5.699   6.661  16.267  0.00  0.00    +0.000 C 
ENDBRANCH  27  28
ENDBRANCH  26  27
ENDBRANCH  25  26
ENDBRANCH  24  25
ENDBRANCH  23  24
ENDBRANCH  22  23
ENDBRANCH  21  22
ENDBRANCH  20  21
ENDBRANCH   8  20
TORSDOF 11
ENDMDL
MODEL 4
REMARK VINA RESULT:      -7.2      1.025      1.163
REMARK  Name = 
REMARK  13 active torsions:
REMARK  status: ('A' for Active; 'I' for Inactive)
REMARK    1  A    between atoms: C_1  and  O_2
REMARK    2  A    between atoms: O_2  and  C_3
REMARK    3  A    between atoms: C_6  and  C_7
REMARK    4  A    between atoms: C_14  and  O_15
REMARK    5  A    between atoms: O_15  and  C_16
REMARK    6  A    between atoms: C_16  and  C_17
REMARK    7  A    between atoms: C_17  and  C_18
REMARK    8  A    between atoms: C_18  and  C_19
REMARK    9  A    between atoms: C_19  and  C_20
REMARK   10  A    between atoms: C_20  and  C_21
REMARK   11  A    between atoms: C_21  and  C_22
REMARK   12  A    between atoms: C_22  and  N_23
REMARK   13  A    between atoms: C_26  and  C_27
REMARK                            x       y       z     vdW  Elec       q    Type
REMARK                         _______ _______ _______ _____ _____    ______ ____
ROOT
ATOM      1  C   UNL     1       0.168  10.829  20.212  0.00  0.00    +0.000 A 
ATOM      2  C   UNL     1       0.948  11.162  19.174  0.00  0.00    +0.000 A 
ATOM      3  C   UNL     1       1.591  10.129  18.391  0.00  0.00    +0.000 A 
ATOM      4  O   UNL     1       2.053  10.373  17.287  0.00  0.00    +0.000 OA
ATOM      5  C   UNL     1       1.664   8.820  19.017  0.00  0.00    +0.000 A 
ATOM      6  C   UNL     1       2.539   7.908  18.454  0.00  0.00    +0.000 A 
ATOM      7  C   UNL     1       2.782   6.724  19.122  0.00  0.00    +0.000 A 
ATOM      8  C   UNL     1       2.142   6.434  20.333  0.00  0.00    +0.000 A 
ATOM      9  C   UNL     1       1.203   7.338  20.874  0.00  0.00    +0.000 A 
ATOM     10  C   UNL     1       0.972   8.568  20.212  0.00  0.00    +0.000 A 
ATOM     11  O   UNL     1       0.092   9.527  20.738  0.00  0.00    +0.000 OA
ENDROOT
BRANCH   1  15
ATOM     12  C   UNL     1      -2.105  13.833  22.387  0.00  0.00    +0.000 A 
ATOM     13  C   UNL     1      -0.789  13.551  22.718  0.00  0.00    +0.000 A 
ATOM     14  C   UNL     1      -0.044  12.671  21.934  0.00  0.00    +0.000 A 
ATOM     15  C   UNL     1      -0.599  11.959  20.841  0.00  0.00    +0.000 A 
ATOM     16  C   UNL     1      -1.896  12.324  20.462  0.00  0.00    +0.000 A 
ATOM     17  C   UNL     1      -2.642  13.254  21.231  0.00  0.00    +0.000 A 
BRANCH  12  19
ATOM     18  C   UNL     1      -3.903  15.315  22.855  0.00  0.00    +0.000 C 
ATOM     19  O   UNL     1      -2.731  14.651  23.289  0.00  0.00    +0.000 OA
ENDBRANCH  12  19
ENDBRANCH   1  15
BRANCH   8  20
ATOM     20  O   UNL     1       2.587   5.235  20.791  0.00  0.00    +0.000 OA
BRANCH  20  21
ATOM     21  C   UNL     1       1.751   4.201  21.275  0.00  0.00    +0.000 C 
BRANCH  21  22
ATOM     22  C   UNL     1       2.000   2.980  20.354  0.00  0.00    +0.000 C 
BRANCH  22  23
ATOM     23  C   UNL     1       3.408   2.368  20.519  0.00  0.00    +0.000 C 
BRANCH  23  24
ATOM     24  C   UNL     1       4.328   2.589  19.299  0.00  0.00    +0.000 C 
BRANCH  24  25
ATOM     25  C   UNL     1       3.650   2.112  18.003  0.00  0.00    +0.000 C 
BRANCH  25  26
ATOM     26  C   UNL     1       3.267   3.216  17.001  0.00  0.00    +0.000 C 
BRANCH  26  27
ATOM     27  C   UNL     1       4.002   4.553  17.202  0.00  0.00    +0.000 C 
BRANCH  27  28
ATOM     28  N   UNL     1       4.945   4.855  16.104  0.00  0.00    +0.000 NA
ATOM     29  C   UNL     1       6.238   4.161  16.193  0.00  0.00    +0.000 C 
ATOM     30  C   UNL     1       7.112   4.630  17.356  0.00  0.00    +0.000 C 
ATOM     31  C   UNL     1       7.325   6.150  17.350  0.00  0.00    +0.000 C 
ATOM     32  C   UNL     1       7.929   6.603  18.680  0.00  0.00    +0.000 C 
ATOM     33  C   UNL     1       6.025   6.919  17.071  0.00  0.00    +0.000 C 
ATOM     34  C   UNL     1       5.183   6.298  15.953  0.00  0.00    +0.000 C 
ENDBRANCH  27  28
ENDBRANCH  26  27
ENDBRANCH  25  26
ENDBRANCH  24  25
ENDBRANCH  23  24
ENDBRANCH  22  23
ENDBRANCH  21  22
ENDBRANCH  20  21
ENDBRANCH   8  20
TORSDOF 11
ENDMDL
MODEL 5
REMARK VINA RESULT:      -7.2      1.887      4.300
REMARK  Name = 
REMARK  13 active torsions:
REMARK  status: ('A' for Active; 'I' for Inactive)
REMARK    1  A    between atoms: C_1  and  O_2
REMARK    2  A    between atoms: O_2  and  C_3
REMARK    3  A    between atoms: C_6  and  C_7
REMARK    4  A    between atoms: C_14  and  O_15
REMARK    5  A    between atoms: O_15  and  C_16
REMARK    6  A    between atoms: C_16  and  C_17
REMARK    7  A    between atoms: C_17  and  C_18
REMARK    8  A    between atoms: C_18  and  C_19
REMARK    9  A    between atoms: C_19  and  C_20
REMARK   10  A    between atoms: C_20  and  C_21
REMARK   11  A    between atoms: C_21  and  C_22
REMARK   12  A    between atoms: C_22  and  N_23
REMARK   13  A    between atoms: C_26  and  C_27
REMARK                            x       y       z     vdW  Elec       q    Type
REMARK                         _______ _______ _______ _____ _____    ______ ____
ROOT
ATOM      1  C   UNL     1      -1.358  11.839  21.813  0.00  0.00    +0.000 A 
ATOM      2  C   UNL     1      -1.212  11.053  22.889  0.00  0.00    +0.000 A 
ATOM      3  C   UNL     1      -0.145  10.077  22.933  0.00  0.00    +0.000 A 
ATOM      4  O   UNL     1       0.196   9.565  23.988  0.00  0.00    +0.000 OA
ATOM      5  C   UNL     1       0.455   9.744  21.652  0.00  0.00    +0.000 A 
ATOM      6  C   UNL     1       1.235   8.603  21.608  0.00  0.00    +0.000 A 
ATOM      7  C   UNL     1       1.669   8.143  20.379  0.00  0.00    +0.000 A 
ATOM      8  C   UNL     1       1.349   8.827  19.199  0.00  0.00    +0.000 A 
ATOM      9  C   UNL     1       0.605  10.025  19.253  0.00  0.00    +0.000 A 
ATOM     10  C   UNL     1       0.130  10.485  20.505  0.00  0.00    +0.000 A 
ATOM     11  O   UNL     1      -0.663  11.639  20.607  0.00  0.00    +0.000 OA
ENDROOT
BRANCH   1  15
ATOM     12  C   UNL     1      -4.163  15.066  22.613  0.00  0.00    +0.000 A 
ATOM     13  C   UNL     1      -2.807  15.314  22.469  0.00  0.00    +0.000 A 
ATOM     14  C   UNL     1      -1.944  14.284  22.098  0.00  0.00    +0.000 A 
ATOM     15  C   UNL     1      -2.373  12.942  21.943  0.00  0.00    +0.000 A 
ATOM     16  C   UNL     1      -3.753  12.725  21.997  0.00  0.00    +0.000 A 
ATOM     17  C   UNL     1      -4.641  13.780  22.330  0.00  0.00    +0.000 A 
BRANCH  12  19
ATOM     18  C   UNL     1      -4.214  17.404  23.042  0.00  0.00    +0.000 C 
ATOM     19  O   UNL     1      -4.872  16.150  23.055  0.00  0.00    +0.000 OA
ENDBRANCH  12  19
ENDBRANCH   1  15
BRANCH   8  20
ATOM     20  O   UNL     1       1.862   8.145  18.142  0.00  0.00    +0.000 OA
BRANCH  20  21
ATOM     21  C   UNL     1       2.868   7.155  18.239  0.00  0.00    +0.000 C 
BRANCH  21  22
ATOM     22  C   UNL     1       4.088   7.704  17.458  0.00  0.00    +0.000 C 
BRANCH  22  23
ATOM     23  C   UNL     1       4.671   6.692  16.448  0.00  0.00    +0.000 C 
BRANCH  23  24
ATOM     24  C   UNL     1       6.142   6.314  16.726  0.00  0.00    +0.000 C 
BRANCH  24  25
ATOM     25  C   UNL     1       6.453   4.895  16.219  0.00  0.00    +0.000 C 
BRANCH  25  26
ATOM     26  C   UNL     1       5.282   3.896  16.265  0.00  0.00    +0.000 C 
BRANCH  26  27
ATOM     27  C   UNL     1       4.649   3.707  17.655  0.00  0.00    +0.000 C 
BRANCH  27  28
ATOM     28  N   UNL     1       3.724   2.555  17.709  0.00  0.00    +0.000 NA
ATOM     29  C   UNL     1       2.333   2.865  17.347  0.00  0.00    +0.000 C 
ATOM     30  C   UNL     1       1.616   3.757  18.361  0.00  0.00    +0.000 C 
ATOM     31  C   UNL     1       1.681   3.192  19.786  0.00  0.00    +0.000 C 
ATOM     32  C   UNL     1       1.235   4.252  20.795  0.00  0.00    +0.000 C 
ATOM     33  C   UNL     1       3.083   2.679  20.145  0.00  0.00    +0.000 C 
ATOM     34  C   UNL     1       3.744   1.883  19.016  0.00  0.00    +0.000 C 
ENDBRANCH  27  28
ENDBRANCH  26  27
ENDBRANCH  25  26
ENDBRANCH  24  25
ENDBRANCH  23  24
ENDBRANCH  22  23
ENDBRANCH  21  22
ENDBRANCH  20  21
ENDBRANCH   8  20
TORSDOF 11
ENDMDL
MODEL 6
REMARK VINA RESULT:      -7.2      4.232      8.861
REMARK  Name = 
REMARK  13 active torsions:
REMARK  status: ('A' for Active; 'I' for Inactive)
REMARK    1  A    between atoms: C_1  and  O_2
REMARK    2  A    between atoms: O_2  and  C_3
REMARK    3  A    between atoms: C_6  and  C_7
REMARK    4  A    between atoms: C_14  and  O_15
REMARK    5  A    between atoms: O_15  and  C_16
REMARK    6  A    between atoms: C_16  and  C_17
REMARK    7  A    between atoms: C_17  and  C_18
REMARK    8  A    between atoms: C_18  and  C_19
REMARK    9  A    between atoms: C_19  and  C_20
REMARK   10  A    between atoms: C_20  and  C_21
REMARK   11  A    between atoms: C_21  and  C_22
REMARK   12  A    between atoms: C_22  and  N_23
REMARK   13  A    between atoms: C_26  and  C_27
REMARK                            x       y       z     vdW  Elec       q    Type
REMARK                         _______ _______ _______ _____ _____    ______ ____
ROOT
ATOM      1  C   UNL     1       1.472   8.206  20.307  0.00  0.00    +0.000 A 
ATOM      2  C   UNL     1       1.263   8.506  21.597  0.00  0.00    +0.000 A 
ATOM      3  C   UNL     1       0.714   9.793  21.962  0.00  0.00    +0.000 A 
ATOM      4  O   UNL     1       0.243   9.984  23.072  0.00  0.00    +0.000 OA
ATOM      5  C   UNL     1       0.791  10.822  20.938  0.00  0.00    +0.000 A 
ATOM      6  C   UNL     1       0.581  12.126  21.348  0.00  0.00    +0.000 A 
ATOM      7  C   UNL     1       0.829  13.150  20.455  0.00  0.00    +0.000 A 
ATOM      8  C   UNL     1       1.261  12.880  19.150  0.00  0.00    +0.000 A 
ATOM      9  C   UNL     1       1.415  11.547  18.715  0.00  0.00    +0.000 A 
ATOM     10  C   UNL     1       1.194  10.493  19.634  0.00  0.00    +0.000 A 
ATOM     11  O   UNL     1       1.389   9.152  19.269  0.00  0.00    +0.000 OA
ENDROOT
BRANCH   1  15
ATOM     12  C   UNL     1       2.303   4.094  19.158  0.00  0.00    +0.000 A 
ATOM     13  C   UNL     1       2.738   5.158  18.382  0.00  0.00    +0.000 A 
ATOM     14  C   UNL     1       2.563   6.466  18.830  0.00  0.00    +0.000 A 
ATOM     15  C   UNL     1       1.865   6.783  20.022  0.00  0.00    +0.000 A 
ATOM     16  C   UNL     1       1.517   5.702  20.839  0.00  0.00    +0.000 A 
ATOM     17  C   UNL     1       1.734   4.367  20.409  0.00  0.00    +0.000 A 
BRANCH  12  19
ATOM     18  C   UNL     1       3.659   2.681  17.811  0.00  0.00    +0.000 C 
ATOM     19  O   UNL     1       2.472   2.876  18.558  0.00  0.00    +0.000 OA
ENDBRANCH  12  19
ENDBRANCH   1  15
BRANCH   8  20
ATOM     20  O   UNL     1       1.466  14.056  18.502  0.00  0.00    +0.000 OA
BRANCH  20  21
ATOM     21  C   UNL     1       2.330  15.081  18.955  0.00  0.00    +0.000 C 
BRANCH  21  22
ATOM     22  C   UNL     1       3.767  14.512  18.847  0.00  0.00    +0.000 C 
BRANCH  22  23
ATOM     23  C   UNL     1       4.614  15.198  17.755  0.00  0.00    +0.000 C 
BRANCH  23  24
ATOM     24  C   UNL     1       6.049  15.546  18.209  0.00  0.00    +0.000 C 
BRANCH  24  25
ATOM     25  C   UNL     1       6.387  14.860  19.544  0.00  0.00    +0.000 C 
BRANCH  25  26
ATOM     26  C   UNL     1       7.831  15.044  20.044  0.00  0.00    +0.000 C 
BRANCH  26  27
ATOM     27  C   UNL     1       8.532  13.746  20.484  0.00  0.00    +0.000 C 
BRANCH  27  28
ATOM     28  N   UNL     1       9.775  13.484  19.729  0.00  0.00    +0.000 NA
ATOM     29  C   UNL     1       9.597  13.358  18.275  0.00  0.00    +0.000 C 
ATOM     30  C   UNL     1       8.828  12.105  17.854  0.00  0.00    +0.000 C 
ATOM     31  C   UNL     1       9.442  10.822  18.428  0.00  0.00    +0.000 C 
ATOM     32  C   UNL     1       8.478   9.648  18.246  0.00  0.00    +0.000 C 
ATOM     33  C   UNL     1       9.822  10.969  19.909  0.00  0.00    +0.000 C 
ATOM     34  C   UNL     1      10.496  12.305  20.231  0.00  0.00    +0.000 C 
ENDBRANCH  27  28
ENDBRANCH  26  27
ENDBRANCH  25  26
ENDBRANCH  24  25
ENDBRANCH  23  24
ENDBRANCH  22  23
ENDBRANCH  21  22
ENDBRANCH  20  21
ENDBRANCH   8  20
TORSDOF 11
ENDMDL
MODEL 7
REMARK VINA RESULT:      -7.1      1.148      1.535
REMARK  Name = 
REMARK  13 active torsions:
REMARK  status: ('A' for Active; 'I' for Inactive)
REMARK    1  A    between atoms: C_1  and  O_2
REMARK    2  A    between atoms: O_2  and  C_3
REMARK    3  A    between atoms: C_6  and  C_7
REMARK    4  A    between atoms: C_14  and  O_15
REMARK    5  A    between atoms: O_15  and  C_16
REMARK    6  A    between atoms: C_16  and  C_17
REMARK    7  A    between atoms: C_17  and  C_18
REMARK    8  A    between atoms: C_18  and  C_19
REMARK    9  A    between atoms: C_19  and  C_20
REMARK   10  A    between atoms: C_20  and  C_21
REMARK   11  A    between atoms: C_21  and  C_22
REMARK   12  A    between atoms: C_22  and  N_23
REMARK   13  A    between atoms: C_26  and  C_27
REMARK                            x       y       z     vdW  Elec       q    Type
REMARK                         _______ _______ _______ _____ _____    ______ ____
ROOT
ATOM      1  C   UNL     1       0.648  11.216  19.999  0.00  0.00    +0.000 A 
ATOM      2  C   UNL     1       1.428  11.265  18.910  0.00  0.00    +0.000 A 
ATOM      3  C   UNL     1       1.859  10.040  18.272  0.00  0.00    +0.000 A 
ATOM      4  O   UNL     1       2.309  10.047  17.137  0.00  0.00    +0.000 OA
ATOM      5  C   UNL     1       1.744   8.838  19.079  0.00  0.00    +0.000 A 
ATOM      6  C   UNL     1       2.433   7.722  18.637  0.00  0.00    +0.000 A 
ATOM      7  C   UNL     1       2.506   6.618  19.464  0.00  0.00    +0.000 A 
ATOM      8  C   UNL     1       1.878   6.611  20.715  0.00  0.00    +0.000 A 
ATOM      9  C   UNL     1       1.124   7.726  21.137  0.00  0.00    +0.000 A 
ATOM     10  C   UNL     1       1.069   8.873  20.310  0.00  0.00    +0.000 A 
ATOM     11  O   UNL     1       0.382  10.031  20.708  0.00  0.00    +0.000 OA
ENDROOT
BRANCH   1  15
ATOM     12  C   UNL     1      -1.316  14.820  21.439  0.00  0.00    +0.000 A 
ATOM     13  C   UNL     1      -0.929  13.816  22.313  0.00  0.00    +0.000 A 
ATOM     14  C   UNL     1      -0.198  12.726  21.845  0.00  0.00    +0.000 A 
ATOM     15  C   UNL     1       0.103  12.535  20.473  0.00  0.00    +0.000 A 
ATOM     16  C   UNL     1      -0.209  13.598  19.620  0.00  0.00    +0.000 A 
ATOM     17  C   UNL     1      -0.914  14.732  20.100  0.00  0.00    +0.000 A 
BRANCH  12  19
ATOM     18  C   UNL     1      -2.262  15.714  23.428  0.00  0.00    +0.000 C 
ATOM     19  O   UNL     1      -2.091  15.783  22.024  0.00  0.00    +0.000 OA
ENDBRANCH  12  19
ENDBRANCH   1  15
BRANCH   8  20
ATOM     20  O   UNL     1       2.140   5.429  21.333  0.00  0.00    +0.000 OA
BRANCH  20  21
ATOM     21  C   UNL     1       2.286   4.191  20.664  0.00  0.00    +0.000 C 
BRANCH  21  22
ATOM     22  C   UNL     1       0.870   3.799  20.171  0.00  0.00    +0.000 C 
BRANCH  22  23
ATOM     23  C   UNL     1       0.871   2.581  19.222  0.00  0.00    +0.000 C 
BRANCH  23  24
ATOM     24  C   UNL     1       2.285   2.094  18.837  0.00  0.00    +0.000 C 
BRANCH  24  25
ATOM     25  C   UNL     1       2.665   2.567  17.423  0.00  0.00    +0.000 C 
BRANCH  25  26
ATOM     26  C   UNL     1       2.998   4.064  17.285  0.00  0.00    +0.000 C 
BRANCH  26  27
ATOM     27  C   UNL     1       4.247   4.373  16.440  0.00  0.00    +0.000 C 
BRANCH  27  28
ATOM     28  N   UNL     1       5.492   3.866  17.056  0.00  0.00    +0.000 NA
ATOM     29  C   UNL     1       5.733   4.331  18.430  0.00  0.00    +0.000 C 
ATOM     30  C   UNL     1       6.041   5.825  18.530  0.00  0.00    +0.000 C 
ATOM     31  C   UNL     1       7.200   6.245  17.617  0.00  0.00    +0.000 C 
ATOM     32  C   UNL     1       7.265   7.770  17.515  0.00  0.00    +0.000 C 
ATOM     33  C   UNL     1       7.090   5.627  16.215  0.00  0.00    +0.000 C 
ATOM     34  C   UNL     1       6.677   4.152  16.235  0.00  0.00    +0.000 C 
ENDBRANCH  27  28
ENDBRANCH  26  27
ENDBRANCH  25  26
ENDBRANCH  24  25
ENDBRANCH  23  24
ENDBRANCH  22  23
ENDBRANCH  21  22
ENDBRANCH  20  21
ENDBRANCH   8  20
TORSDOF 11
ENDMDL
MODEL 8
REMARK VINA RESULT:      -7.1      1.986      4.490
REMARK  Name = 
REMARK  13 active torsions:
REMARK  status: ('A' for Active; 'I' for Inactive)
REMARK    1  A    between atoms: C_1  and  O_2
REMARK    2  A    between atoms: O_2  and  C_3
REMARK    3  A    between atoms: C_6  and  C_7
REMARK    4  A    between atoms: C_14  and  O_15
REMARK    5  A    between atoms: O_15  and  C_16
REMARK    6  A    between atoms: C_16  and  C_17
REMARK    7  A    between atoms: C_17  and  C_18
REMARK    8  A    between atoms: C_18  and  C_19
REMARK    9  A    between atoms: C_19  and  C_20
REMARK   10  A    between atoms: C_20  and  C_21
REMARK   11  A    between atoms: C_21  and  C_22
REMARK   12  A    between atoms: C_22  and  N_23
REMARK   13  A    between atoms: C_26  and  C_27
REMARK                            x       y       z     vdW  Elec       q    Type
REMARK                         _______ _______ _______ _____ _____    ______ ____
ROOT
ATOM      1  C   UNL     1      -1.690  11.966  22.249  0.00  0.00    +0.000 A 
ATOM      2  C   UNL     1      -1.488  11.018  23.175  0.00  0.00    +0.000 A 
ATOM      3  C   UNL     1      -0.342  10.141  23.075  0.00  0.00    +0.000 A 
ATOM      4  O   UNL     1       0.030   9.481  24.034  0.00  0.00    +0.000 OA
ATOM      5  C   UNL     1       0.296  10.086  21.772  0.00  0.00    +0.000 A 
ATOM      6  C   UNL     1       1.171   9.038  21.549  0.00  0.00    +0.000 A 
ATOM      7  C   UNL     1       1.655   8.838  20.271  0.00  0.00    +0.000 A 
ATOM      8  C   UNL     1       1.290   9.689  19.220  0.00  0.00    +0.000 A 
ATOM      9  C   UNL     1       0.447  10.795  19.462  0.00  0.00    +0.000 A 
ATOM     10  C   UNL     1      -0.078  10.988  20.763  0.00  0.00    +0.000 A 
ATOM     11  O   UNL     1      -0.968  12.037  21.044  0.00  0.00    +0.000 OA
ENDROOT
BRANCH   1  15
ATOM     12  C   UNL     1      -4.608  14.985  23.385  0.00  0.00    +0.000 A 
ATOM     13  C   UNL     1      -3.537  15.296  22.560  0.00  0.00    +0.000 A 
ATOM     14  C   UNL     1      -2.683  14.289  22.115  0.00  0.00    +0.000 A 
ATOM     15  C   UNL     1      -2.795  12.942  22.542  0.00  0.00    +0.000 A 
ATOM     16  C   UNL     1      -3.931  12.627  23.295  0.00  0.00    +0.000 A 
ATOM     17  C   UNL     1      -4.830  13.642  23.713  0.00  0.00    +0.000 A 
BRANCH  12  19
ATOM     18  C   UNL     1      -4.742  16.860  24.840  0.00  0.00    +0.000 C 
ATOM     19  O   UNL     1      -5.311  16.082  23.803  0.00  0.00    +0.000 OA
ENDBRANCH  12  19
ENDBRANCH   1  15
BRANCH   8  20
ATOM     20  O   UNL     1       1.869   9.248  18.074  0.00  0.00    +0.000 OA
BRANCH  20  21
ATOM     21  C   UNL     1       1.797   7.916  17.601  0.00  0.00    +0.000 C 
BRANCH  21  22
ATOM     22  C   UNL     1       3.249   7.504  17.249  0.00  0.00    +0.000 C 
BRANCH  22  23
ATOM     23  C   UNL     1       4.041   6.964  18.459  0.00  0.00    +0.000 C 
BRANCH  23  24
ATOM     24  C   UNL     1       5.131   5.938  18.080  0.00  0.00    +0.000 C 
BRANCH  24  25
ATOM     25  C   UNL     1       5.109   5.642  16.570  0.00  0.00    +0.000 C 
BRANCH  25  26
ATOM     26  C   UNL     1       4.460   4.307  16.159  0.00  0.00    +0.000 C 
BRANCH  26  27
ATOM     27  C   UNL     1       3.933   3.458  17.330  0.00  0.00    +0.000 C 
BRANCH  27  28
ATOM     28  N   UNL     1       2.495   3.140  17.201  0.00  0.00    +0.000 NA
ATOM     29  C   UNL     1       1.586   4.195  17.672  0.00  0.00    +0.000 C 
ATOM     30  C   UNL     1       1.619   4.408  19.186  0.00  0.00    +0.000 C 
ATOM     31  C   UNL     1       1.374   3.109  19.964  0.00  0.00    +0.000 C 
ATOM     32  C   UNL     1       1.723   3.304  21.441  0.00  0.00    +0.000 C 
ATOM     33  C   UNL     1       2.164   1.925  19.387  0.00  0.00    +0.000 C 
ATOM     34  C   UNL     1       2.143   1.872  17.857  0.00  0.00    +0.000 C 
ENDBRANCH  27  28
ENDBRANCH  26  27
ENDBRANCH  25  26
ENDBRANCH  24  25
ENDBRANCH  23  24
ENDBRANCH  22  23
ENDBRANCH  21  22
ENDBRANCH  20  21
ENDBRANCH   8  20
TORSDOF 11
ENDMDL
MODEL 9
REMARK VINA RESULT:      -7.0      1.238      1.910
REMARK  Name = 
REMARK  13 active torsions:
REMARK  status: ('A' for Active; 'I' for Inactive)
REMARK    1  A    between atoms: C_1  and  O_2
REMARK    2  A    between atoms: O_2  and  C_3
REMARK    3  A    between atoms: C_6  and  C_7
REMARK    4  A    between atoms: C_14  and  O_15
REMARK    5  A    between atoms: O_15  and  C_16
REMARK    6  A    between atoms: C_16  and  C_17
REMARK    7  A    between atoms: C_17  and  C_18
REMARK    8  A    between atoms: C_18  and  C_19
REMARK    9  A    between atoms: C_19  and  C_20
REMARK   10  A    between atoms: C_20  and  C_21
REMARK   11  A    between atoms: C_21  and  C_22
REMARK   12  A    between atoms: C_22  and  N_23
REMARK   13  A    between atoms: C_26  and  C_27
REMARK                            x       y       z     vdW  Elec       q    Type
REMARK                         _______ _______ _______ _____ _____    ______ ____
ROOT
ATOM      1  C   UNL     1       0.046  10.719  20.418  0.00  0.00    +0.000 A 
ATOM      2  C   UNL     1       0.800  11.110  19.382  0.00  0.00    +0.000 A 
ATOM      3  C   UNL     1       1.446  10.123  18.544  0.00  0.00    +0.000 A 
ATOM      4  O   UNL     1       1.884  10.423  17.444  0.00  0.00    +0.000 OA
ATOM      5  C   UNL     1       1.555   8.791  19.111  0.00  0.00    +0.000 A 
ATOM      6  C   UNL     1       2.435   7.920  18.494  0.00  0.00    +0.000 A 
ATOM      7  C   UNL     1       2.711   6.712  19.105  0.00  0.00    +0.000 A 
ATOM      8  C   UNL     1       2.098   6.359  20.314  0.00  0.00    +0.000 A 
ATOM      9  C   UNL     1       1.154   7.221  20.909  0.00  0.00    +0.000 A 
ATOM     10  C   UNL     1       0.888   8.474  20.306  0.00  0.00    +0.000 A 
ATOM     11  O   UNL     1       0.002   9.394  20.888  0.00  0.00    +0.000 OA
ENDROOT
BRANCH   1  15
ATOM     12  C   UNL     1      -1.994  14.151  22.144  0.00  0.00    +0.000 A 
ATOM     13  C   UNL     1      -2.351  13.656  20.899  0.00  0.00    +0.000 A 
ATOM     14  C   UNL     1      -1.765  12.486  20.419  0.00  0.00    +0.000 A 
ATOM     15  C   UNL     1      -0.730  11.806  21.109  0.00  0.00    +0.000 A 
ATOM     16  C   UNL     1      -0.448  12.261  22.401  0.00  0.00    +0.000 A 
ATOM     17  C   UNL     1      -1.075  13.426  22.914  0.00  0.00    +0.000 A 
BRANCH  12  19
ATOM     18  C   UNL     1      -2.962  16.178  21.366  0.00  0.00    +0.000 C 
ATOM     19  O   UNL     1      -2.592  15.344  22.448  0.00  0.00    +0.000 OA
ENDBRANCH  12  19
ENDBRANCH   1  15
BRANCH   8  20
ATOM     20  O   UNL     1       2.573   5.150  20.711  0.00  0.00    +0.000 OA
BRANCH  20  21
ATOM     21  C   UNL     1       1.762   4.029  21.011  0.00  0.00    +0.000 C 
BRANCH  21  22
ATOM     22  C   UNL     1       0.786   3.873  19.817  0.00  0.00    +0.000 C 
BRANCH  22  23
ATOM     23  C   UNL     1       1.038   2.596  18.987  0.00  0.00    +0.000 C 
BRANCH  23  24
ATOM     24  C   UNL     1       2.400   1.927  19.275  0.00  0.00    +0.000 C 
BRANCH  24  25
ATOM     25  C   UNL     1       3.348   2.064  18.071  0.00  0.00    +0.000 C 
BRANCH  25  26
ATOM     26  C   UNL     1       4.464   3.115  18.214  0.00  0.00    +0.000 C 
BRANCH  26  27
ATOM     27  C   UNL     1       4.175   4.462  17.527  0.00  0.00    +0.000 C 
BRANCH  27  28
ATOM     28  N   UNL     1       5.375   5.319  17.425  0.00  0.00    +0.000 NA
ATOM     29  C   UNL     1       5.314   6.340  16.369  0.00  0.00    +0.000 C 
ATOM     30  C   UNL     1       5.345   5.766  14.953  0.00  0.00    +0.000 C 
ATOM     31  C   UNL     1       6.545   4.837  14.725  0.00  0.00    +0.000 C 
ATOM     32  C   UNL     1       6.366   4.054  13.423  0.00  0.00    +0.000 C 
ATOM     33  C   UNL     1       6.764   3.871  15.898  0.00  0.00    +0.000 C 
ATOM     34  C   UNL     1       6.609   4.536  17.268  0.00  0.00    +0.000 C 
ENDBRANCH  27  28
ENDBRANCH  26  27
ENDBRANCH  25  26
ENDBRANCH  24  25
ENDBRANCH  23  24
ENDBRANCH  22  23
ENDBRANCH  21  22
ENDBRANCH  20  21
ENDBRANCH   8  20
TORSDOF 11
ENDMDL
