MODEL 1
REMARK VINA RESULT:      -7.8      0.000      0.000
REMARK  Name = 
REMARK  7 active torsions:
REMARK  status: ('A' for Active; 'I' for Inactive)
REMARK    1  A    between atoms: C_1  and  C_2
REMARK    2  A    between atoms: C_2  and  O_3
REMARK    3  A    between atoms: O_3  and  C_4
REMARK    4  A    between atoms: C_13  and  C_14
REMARK    5  A    between atoms: C_14  and  C_15
REMARK    6  A    between atoms: C_15  and  N_16
REMARK    7  A    between atoms: C_17  and  C_18
REMARK                            x       y       z     vdW  Elec       q    Type
REMARK                         _______ _______ _______ _____ _____    ______ ____
ROOT
ATOM      1  C   UNL     1       5.367   6.507  17.047  0.00  0.00    +0.000 A 
ATOM      2  C   UNL     1       4.290   7.238  17.557  0.00  0.00    +0.000 A 
ATOM      3  C   UNL     1       3.128   6.597  17.965  0.00  0.00    +0.000 A 
ATOM      4  C   UNL     1       2.993   5.217  17.833  0.00  0.00    +0.000 A 
ATOM      5  C   UNL     1       1.788   4.618  18.238  0.00  0.00    +0.000 A 
ATOM      6  C   UNL     1       1.587   3.249  18.102  0.00  0.00    +0.000 A 
ATOM      7  C   UNL     1       2.591   2.467  17.554  0.00  0.00    +0.000 A 
ATOM      8  C   UNL     1       3.797   3.054  17.152  0.00  0.00    +0.000 A 
ATOM      9  C   UNL     1       4.051   4.443  17.286  0.00  0.00    +0.000 A 
ATOM     10  C   UNL     1       5.279   5.100  16.906  0.00  0.00    +0.000 A 
ENDROOT
BRANCH   1  11
ATOM     11  O   UNL     1       6.515   7.126  16.629  0.00  0.00    +0.000 OA
BRANCH  11  13
ATOM     12  C   UNL     1       7.901   8.747  17.703  0.00  0.00    +0.000 C 
ATOM     13  C   UNL     1       7.567   7.271  17.583  0.00  0.00    +0.000 C 
ENDBRANCH  11  13
ENDBRANCH   1  11
BRANCH  10  14
ATOM     14  C   UNL     1       6.418   4.274  16.295  0.00  0.00    +0.000 C 
BRANCH  14  15
ATOM     15  C   UNL     1       6.789   4.489  14.819  0.00  0.00    +0.000 C 
BRANCH  15  16
ATOM     16  N   UNL     1       6.072   3.596  13.919  0.00  0.00    +0.000 N 
ATOM     17  C   UNL     1       6.307   3.562  12.565  0.00  0.00    +0.000 C 
ATOM     18  C   UNL     1       5.346   2.702  11.791  0.00  0.00    +0.000 C 
ATOM     19  O   UNL     1       7.198   4.200  12.013  0.00  0.00    +0.000 OA
ATOM     20  H   UNL     1       5.322   3.041  14.304  0.00  0.00    +0.000 HD
ENDBRANCH  15  16
ENDBRANCH  14  15
ENDBRANCH  10  14
TORSDOF 5
ENDMDL
MODEL 2
REMARK VINA RESULT:      -7.5      1.085      1.367
REMARK  Name = 
REMARK  7 active torsions:
REMARK  status: ('A' for Active; 'I' for Inactive)
REMARK    1  A    between atoms: C_1  and  C_2
REMARK    2  A    between atoms: C_2  and  O_3
REMARK    3  A    between atoms: O_3  and  C_4
REMARK    4  A    between atoms: C_13  and  C_14
REMARK    5  A    between atoms: C_14  and  C_15
REMARK    6  A    between atoms: C_15  and  N_16
REMARK    7  A    between atoms: C_17  and  C_18
REMARK                            x       y       z     vdW  Elec       q    Type
REMARK                         _______ _______ _______ _____ _____    ______ ____
ROOT
ATOM      1  C   UNL     1       5.053   6.306  16.974  0.00  0.00    +0.000 A 
ATOM      2  C   UNL     1       4.013   7.050  17.538  0.00  0.00    +0.000 A 
ATOM      3  C   UNL     1       2.888   6.419  18.052  0.00  0.00    +0.000 A 
ATOM      4  C   UNL     1       2.752   5.035  17.977  0.00  0.00    +0.000 A 
ATOM      5  C   UNL     1       1.584   4.446  18.491  0.00  0.00    +0.000 A 
ATOM      6  C   UNL     1       1.382   3.073  18.416  0.00  0.00    +0.000 A 
ATOM      7  C   UNL     1       2.348   2.276  17.823  0.00  0.00    +0.000 A 
ATOM      8  C   UNL     1       3.517   2.853  17.312  0.00  0.00    +0.000 A 
ATOM      9  C   UNL     1       3.771   4.247  17.379  0.00  0.00    +0.000 A 
ATOM     10  C   UNL     1       4.964   4.895  16.888  0.00  0.00    +0.000 A 
ENDROOT
BRANCH   1  11
ATOM     11  O   UNL     1       6.163   6.915  16.451  0.00  0.00    +0.000 OA
BRANCH  11  13
ATOM     12  C   UNL     1       7.815   6.749  18.168  0.00  0.00    +0.000 C 
ATOM     13  C   UNL     1       6.964   7.695  17.340  0.00  0.00    +0.000 C 
ENDBRANCH  11  13
ENDBRANCH   1  11
BRANCH  10  14
ATOM     14  C   UNL     1       6.060   4.052  16.221  0.00  0.00    +0.000 C 
BRANCH  14  15
ATOM     15  C   UNL     1       6.141   4.010  14.688  0.00  0.00    +0.000 C 
BRANCH  15  16
ATOM     16  N   UNL     1       7.046   5.012  14.141  0.00  0.00    +0.000 N 
ATOM     17  C   UNL     1       7.524   4.956  12.854  0.00  0.00    +0.000 C 
ATOM     18  C   UNL     1       8.578   5.982  12.539  0.00  0.00    +0.000 C 
ATOM     19  O   UNL     1       7.160   4.124  12.028  0.00  0.00    +0.000 OA
ATOM     20  H   UNL     1       7.389   5.727  14.765  0.00  0.00    +0.000 HD
ENDBRANCH  15  16
ENDBRANCH  14  15
ENDBRANCH  10  14
TORSDOF 5
ENDMDL
MODEL 3
REMARK VINA RESULT:      -7.4      0.969      1.070
REMARK  Name = 
REMARK  7 active torsions:
REMARK  status: ('A' for Active; 'I' for Inactive)
REMARK    1  A    between atoms: C_1  and  C_2
REMARK    2  A    between atoms: C_2  and  O_3
REMARK    3  A    between atoms: O_3  and  C_4
REMARK    4  A    between atoms: C_13  and  C_14
REMARK    5  A    between atoms: C_14  and  C_15
REMARK    6  A    between atoms: C_15  and  N_16
REMARK    7  A    between atoms: C_17  and  C_18
REMARK                            x       y       z     vdW  Elec       q    Type
REMARK                         _______ _______ _______ _____ _____    ______ ____
ROOT
ATOM      1  C   UNL     1       4.983   6.237  16.995  0.00  0.00    +0.000 A 
ATOM      2  C   UNL     1       4.119   6.928  17.848  0.00  0.00    +0.000 A 
ATOM      3  C   UNL     1       3.059   6.275  18.464  0.00  0.00    +0.000 A 
ATOM      4  C   UNL     1       2.808   4.929  18.210  0.00  0.00    +0.000 A 
ATOM      5  C   UNL     1       1.709   4.320  18.839  0.00  0.00    +0.000 A 
ATOM      6  C   UNL     1       1.394   2.987  18.599  0.00  0.00    +0.000 A 
ATOM      7  C   UNL     1       2.176   2.253  17.722  0.00  0.00    +0.000 A 
ATOM      8  C   UNL     1       3.276   2.850  17.093  0.00  0.00    +0.000 A 
ATOM      9  C   UNL     1       3.642   4.202  17.320  0.00  0.00    +0.000 A 
ATOM     10  C   UNL     1       4.774   4.864  16.716  0.00  0.00    +0.000 A 
ENDROOT
BRANCH   1  11
ATOM     11  O   UNL     1       6.025   6.870  16.370  0.00  0.00    +0.000 OA
BRANCH  11  13
ATOM     12  C   UNL     1       7.663   6.513  18.071  0.00  0.00    +0.000 C 
ATOM     13  C   UNL     1       6.973   7.545  17.198  0.00  0.00    +0.000 C 
ENDBRANCH  11  13
ENDBRANCH   1  11
BRANCH  10  14
ATOM     14  C   UNL     1       5.667   4.089  15.738  0.00  0.00    +0.000 C 
BRANCH  14  15
ATOM     15  C   UNL     1       5.620   4.444  14.243  0.00  0.00    +0.000 C 
BRANCH  15  16
ATOM     16  N   UNL     1       6.178   3.399  13.396  0.00  0.00    +0.000 N 
ATOM     17  C   UNL     1       5.594   3.012  12.214  0.00  0.00    +0.000 C 
ATOM     18  C   UNL     1       6.225   1.802  11.578  0.00  0.00    +0.000 C 
ATOM     19  O   UNL     1       4.619   3.570  11.722  0.00  0.00    +0.000 OA
ATOM     20  H   UNL     1       6.982   2.893  13.739  0.00  0.00    +0.000 HD
ENDBRANCH  15  16
ENDBRANCH  14  15
ENDBRANCH  10  14
TORSDOF 5
ENDMDL
MODEL 4
REMARK VINA RESULT:      -7.1      1.365      1.772
REMARK  Name = 
REMARK  7 active torsions:
REMARK  status: ('A' for Active; 'I' for Inactive)
REMARK    1  A    between atoms: C_1  and  C_2
REMARK    2  A    between atoms: C_2  and  O_3
REMARK    3  A    between atoms: O_3  and  C_4
REMARK    4  A    between atoms: C_13  and  C_14
REMARK    5  A    between atoms: C_14  and  C_15
REMARK    6  A    between atoms: C_15  and  N_16
REMARK    7  A    between atoms: C_17  and  C_18
REMARK                            x       y       z     vdW  Elec       q    Type
REMARK                         _______ _______ _______ _____ _____    ______ ____
ROOT
ATOM      1  C   UNL     1       4.221   5.871  17.438  0.00  0.00    +0.000 A 
ATOM      2  C   UNL     1       3.619   6.650  18.431  0.00  0.00    +0.000 A 
ATOM      3  C   UNL     1       2.654   6.109  19.270  0.00  0.00    +0.000 A 
ATOM      4  C   UNL     1       2.233   4.791  19.112  0.00  0.00    +0.000 A 
ATOM      5  C   UNL     1       1.237   4.296  19.971  0.00  0.00    +0.000 A 
ATOM      6  C   UNL     1       0.757   2.998  19.839  0.00  0.00    +0.000 A 
ATOM      7  C   UNL     1       1.269   2.183  18.842  0.00  0.00    +0.000 A 
ATOM      8  C   UNL     1       2.265   2.666  17.984  0.00  0.00    +0.000 A 
ATOM      9  C   UNL     1       2.794   3.978  18.091  0.00  0.00    +0.000 A 
ATOM     10  C   UNL     1       3.832   4.523  17.249  0.00  0.00    +0.000 A 
ENDROOT
BRANCH   1  11
ATOM     11  O   UNL     1       5.164   6.395  16.595  0.00  0.00    +0.000 OA
BRANCH  11  13
ATOM     12  C   UNL     1       7.302   6.548  17.648  0.00  0.00    +0.000 C 
ATOM     13  C   UNL     1       6.097   7.324  17.149  0.00  0.00    +0.000 C 
ENDBRANCH  11  13
ENDBRANCH   1  11
BRANCH  10  14
ATOM     14  C   UNL     1       4.428   3.656  16.131  0.00  0.00    +0.000 C 
BRANCH  14  15
ATOM     15  C   UNL     1       5.935   3.737  15.846  0.00  0.00    +0.000 C 
BRANCH  15  16
ATOM     16  N   UNL     1       6.251   3.616  14.429  0.00  0.00    +0.000 N 
ATOM     17  C   UNL     1       7.045   4.521  13.766  0.00  0.00    +0.000 C 
ATOM     18  C   UNL     1       7.106   4.317  12.276  0.00  0.00    +0.000 C 
ATOM     19  O   UNL     1       7.632   5.445  14.320  0.00  0.00    +0.000 OA
ATOM     20  H   UNL     1       5.801   2.878  13.907  0.00  0.00    +0.000 HD
ENDBRANCH  15  16
ENDBRANCH  14  15
ENDBRANCH  10  14
TORSDOF 5
ENDMDL
MODEL 5
REMARK VINA RESULT:      -6.9      1.300      1.458
REMARK  Name = 
REMARK  7 active torsions:
REMARK  status: ('A' for Active; 'I' for Inactive)
REMARK    1  A    between atoms: C_1  and  C_2
REMARK    2  A    between atoms: C_2  and  O_3
REMARK    3  A    between atoms: O_3  and  C_4
REMARK    4  A    between atoms: C_13  and  C_14
REMARK    5  A    between atoms: C_14  and  C_15
REMARK    6  A    between atoms: C_15  and  N_16
REMARK    7  A    between atoms: C_17  and  C_18
REMARK                            x       y       z     vdW  Elec       q    Type
REMARK                         _______ _______ _______ _____ _____    ______ ____
ROOT
ATOM      1  C   UNL     1       6.179   5.752  17.802  0.00  0.00    +0.000 A 
ATOM      2  C   UNL     1       6.075   5.599  19.187  0.00  0.00    +0.000 A 
ATOM      3  C   UNL     1       5.186   4.684  19.735  0.00  0.00    +0.000 A 
ATOM      4  C   UNL     1       4.347   3.930  18.917  0.00  0.00    +0.000 A 
ATOM      5  C   UNL     1       3.448   3.034  19.520  0.00  0.00    +0.000 A 
ATOM      6  C   UNL     1       2.568   2.278  18.755  0.00  0.00    +0.000 A 
ATOM      7  C   UNL     1       2.577   2.416  17.376  0.00  0.00    +0.000 A 
ATOM      8  C   UNL     1       3.473   3.303  16.765  0.00  0.00    +0.000 A 
ATOM      9  C   UNL     1       4.398   4.082  17.506  0.00  0.00    +0.000 A 
ATOM     10  C   UNL     1       5.355   4.997  16.931  0.00  0.00    +0.000 A 
ENDROOT
BRANCH   1  11
ATOM     11  O   UNL     1       7.042   6.659  17.247  0.00  0.00    +0.000 OA
BRANCH  11  13
ATOM     12  C   UNL     1       7.972   8.802  17.746  0.00  0.00    +0.000 C 
ATOM     13  C   UNL     1       7.942   7.333  18.129  0.00  0.00    +0.000 C 
ENDBRANCH  11  13
ENDBRANCH   1  11
BRANCH  10  14
ATOM     14  C   UNL     1       5.400   5.182  15.408  0.00  0.00    +0.000 C 
BRANCH  14  15
ATOM     15  C   UNL     1       6.539   4.528  14.610  0.00  0.00    +0.000 C 
BRANCH  15  16
ATOM     16  N   UNL     1       6.072   3.479  13.714  0.00  0.00    +0.000 N 
ATOM     17  C   UNL     1       6.403   3.441  12.380  0.00  0.00    +0.000 C 
ATOM     18  C   UNL     1       5.682   2.381  11.593  0.00  0.00    +0.000 C 
ATOM     19  O   UNL     1       7.191   4.220  11.852  0.00  0.00    +0.000 OA
ATOM     20  H   UNL     1       5.418   2.804  14.080  0.00  0.00    +0.000 HD
ENDBRANCH  15  16
ENDBRANCH  14  15
ENDBRANCH  10  14
TORSDOF 5
ENDMDL
MODEL 6
REMARK VINA RESULT:      -6.9      2.108      4.381
REMARK  Name = 
REMARK  7 active torsions:
REMARK  status: ('A' for Active; 'I' for Inactive)
REMARK    1  A    between atoms: C_1  and  C_2
REMARK    2  A    between atoms: C_2  and  O_3
REMARK    3  A    between atoms: O_3  and  C_4
REMARK    4  A    between atoms: C_13  and  C_14
REMARK    5  A    between atoms: C_14  and  C_15
REMARK    6  A    between atoms: C_15  and  N_16
REMARK    7  A    between atoms: C_17  and  C_18
REMARK                            x       y       z     vdW  Elec       q    Type
REMARK                         _______ _______ _______ _____ _____    ______ ____
ROOT
ATOM      1  C   UNL     1       4.083   3.882  16.825  0.00  0.00    +0.000 A 
ATOM      2  C   UNL     1       4.075   2.510  17.091  0.00  0.00    +0.000 A 
ATOM      3  C   UNL     1       3.330   1.995  18.144  0.00  0.00    +0.000 A 
ATOM      4  C   UNL     1       2.611   2.841  18.986  0.00  0.00    +0.000 A 
ATOM      5  C   UNL     1       1.893   2.275  20.052  0.00  0.00    +0.000 A 
ATOM      6  C   UNL     1       1.181   3.073  20.941  0.00  0.00    +0.000 A 
ATOM      7  C   UNL     1       1.187   4.448  20.771  0.00  0.00    +0.000 A 
ATOM      8  C   UNL     1       1.897   5.022  19.709  0.00  0.00    +0.000 A 
ATOM      9  C   UNL     1       2.624   4.245  18.771  0.00  0.00    +0.000 A 
ATOM     10  C   UNL     1       3.357   4.778  17.647  0.00  0.00    +0.000 A 
ENDROOT
BRANCH   1  11
ATOM     11  O   UNL     1       4.823   4.404  15.798  0.00  0.00    +0.000 OA
BRANCH  11  13
ATOM     12  C   UNL     1       6.844   4.684  14.557  0.00  0.00    +0.000 C 
ATOM     13  C   UNL     1       6.080   3.788  15.514  0.00  0.00    +0.000 C 
ENDBRANCH  11  13
ENDBRANCH   1  11
BRANCH  10  14
ATOM     14  C   UNL     1       3.392   6.295  17.421  0.00  0.00    +0.000 C 
BRANCH  14  15
ATOM     15  C   UNL     1       4.750   7.012  17.373  0.00  0.00    +0.000 C 
BRANCH  15  16
ATOM     16  N   UNL     1       5.768   6.353  18.179  0.00  0.00    +0.000 N 
ATOM     17  C   UNL     1       7.110   6.442  17.898  0.00  0.00    +0.000 C 
ATOM     18  C   UNL     1       7.981   5.549  18.741  0.00  0.00    +0.000 C 
ATOM     19  O   UNL     1       7.574   7.155  17.014  0.00  0.00    +0.000 OA
ATOM     20  H   UNL     1       5.458   5.746  18.925  0.00  0.00    +0.000 HD
ENDBRANCH  15  16
ENDBRANCH  14  15
ENDBRANCH  10  14
TORSDOF 5
ENDMDL
MODEL 7
REMARK VINA RESULT:      -6.8      2.212      3.806
REMARK  Name = 
REMARK  7 active torsions:
REMARK  status: ('A' for Active; 'I' for Inactive)
REMARK    1  A    between atoms: C_1  and  C_2
REMARK    2  A    between atoms: C_2  and  O_3
REMARK    3  A    between atoms: O_3  and  C_4
REMARK    4  A    between atoms: C_13  and  C_14
REMARK    5  A    between atoms: C_14  and  C_15
REMARK    6  A    between atoms: C_15  and  N_16
REMARK    7  A    between atoms: C_17  and  C_18
REMARK                            x       y       z     vdW  Elec       q    Type
REMARK                         _______ _______ _______ _____ _____    ______ ____
ROOT
ATOM      1  C   UNL     1       2.289   6.730  19.598  0.00  0.00    +0.000 A 
ATOM      2  C   UNL     1       1.556   6.153  20.639  0.00  0.00    +0.000 A 
ATOM      3  C   UNL     1       1.335   4.782  20.676  0.00  0.00    +0.000 A 
ATOM      4  C   UNL     1       1.802   3.959  19.654  0.00  0.00    +0.000 A 
ATOM      5  C   UNL     1       1.533   2.581  19.726  0.00  0.00    +0.000 A 
ATOM      6  C   UNL     1       1.949   1.717  18.720  0.00  0.00    +0.000 A 
ATOM      7  C   UNL     1       2.635   2.226  17.629  0.00  0.00    +0.000 A 
ATOM      8  C   UNL     1       2.912   3.596  17.551  0.00  0.00    +0.000 A 
ATOM      9  C   UNL     1       2.520   4.512  18.561  0.00  0.00    +0.000 A 
ATOM     10  C   UNL     1       2.793   5.929  18.544  0.00  0.00    +0.000 A 
ENDROOT
BRANCH   1  11
ATOM     11  O   UNL     1       2.503   8.081  19.541  0.00  0.00    +0.000 OA
BRANCH  11  13
ATOM     12  C   UNL     1       1.413   9.526  17.983  0.00  0.00    +0.000 C 
ATOM     13  C   UNL     1       1.359   8.921  19.373  0.00  0.00    +0.000 C 
ENDBRANCH  11  13
ENDBRANCH   1  11
BRANCH  10  14
ATOM     14  C   UNL     1       3.550   6.537  17.355  0.00  0.00    +0.000 C 
BRANCH  14  15
ATOM     15  C   UNL     1       5.065   6.311  17.240  0.00  0.00    +0.000 C 
BRANCH  15  16
ATOM     16  N   UNL     1       5.457   5.732  15.963  0.00  0.00    +0.000 N 
ATOM     17  C   UNL     1       6.680   5.140  15.760  0.00  0.00    +0.000 C 
ATOM     18  C   UNL     1       6.957   4.763  14.330  0.00  0.00    +0.000 C 
ATOM     19  O   UNL     1       7.505   4.960  16.651  0.00  0.00    +0.000 OA
ATOM     20  H   UNL     1       4.827   5.845  15.182  0.00  0.00    +0.000 HD
ENDBRANCH  15  16
ENDBRANCH  14  15
ENDBRANCH  10  14
TORSDOF 5
ENDMDL
MODEL 8
REMARK VINA RESULT:      -6.8      3.014      5.365
REMARK  Name = 
REMARK  7 active torsions:
REMARK  status: ('A' for Active; 'I' for Inactive)
REMARK    1  A    between atoms: C_1  and  C_2
REMARK    2  A    between atoms: C_2  and  O_3
REMARK    3  A    between atoms: O_3  and  C_4
REMARK    4  A    between atoms: C_13  and  C_14
REMARK    5  A    between atoms: C_14  and  C_15
REMARK    6  A    between atoms: C_15  and  N_16
REMARK    7  A    between atoms: C_17  and  C_18
REMARK                            x       y       z     vdW  Elec       q    Type
REMARK                         _______ _______ _______ _____ _____    ______ ____
ROOT
ATOM      1  C   UNL     1       3.082   4.728  19.639  0.00  0.00    +0.000 A 
ATOM      2  C   UNL     1       2.358   5.097  20.777  0.00  0.00    +0.000 A 
ATOM      3  C   UNL     1       1.754   6.345  20.860  0.00  0.00    +0.000 A 
ATOM      4  C   UNL     1       1.893   7.272  19.830  0.00  0.00    +0.000 A 
ATOM      5  C   UNL     1       1.283   8.530  19.971  0.00  0.00    +0.000 A 
ATOM      6  C   UNL     1       1.414   9.504  18.988  0.00  0.00    +0.000 A 
ATOM      7  C   UNL     1       2.162   9.229  17.855  0.00  0.00    +0.000 A 
ATOM      8  C   UNL     1       2.771   7.977  17.703  0.00  0.00    +0.000 A 
ATOM      9  C   UNL     1       2.651   6.948  18.673  0.00  0.00    +0.000 A 
ATOM     10  C   UNL     1       3.240   5.634  18.563  0.00  0.00    +0.000 A 
ENDROOT
BRANCH   1  11
ATOM     11  O   UNL     1       3.693   3.506  19.549  0.00  0.00    +0.000 OA
BRANCH  11  13
ATOM     12  C   UNL     1       3.485   1.636  18.079  0.00  0.00    +0.000 C 
ATOM     13  C   UNL     1       2.868   2.379  19.250  0.00  0.00    +0.000 C 
ENDBRANCH  11  13
ENDBRANCH   1  11
BRANCH  10  14
ATOM     14  C   UNL     1       4.077   5.286  17.325  0.00  0.00    +0.000 C 
BRANCH  14  15
ATOM     15  C   UNL     1       5.607   5.221  17.453  0.00  0.00    +0.000 C 
BRANCH  15  16
ATOM     16  N   UNL     1       6.250   6.508  17.225  0.00  0.00    +0.000 N 
ATOM     17  C   UNL     1       7.382   6.901  17.897  0.00  0.00    +0.000 C 
ATOM     18  C   UNL     1       7.786   8.329  17.647  0.00  0.00    +0.000 C 
ATOM     19  O   UNL     1       8.002   6.176  18.668  0.00  0.00    +0.000 OA
ATOM     20  H   UNL     1       5.793   7.159  16.603  0.00  0.00    +0.000 HD
ENDBRANCH  15  16
ENDBRANCH  14  15
ENDBRANCH  10  14
TORSDOF 5
ENDMDL
MODEL 9
REMARK VINA RESULT:      -6.8      3.002      5.752
REMARK  Name = 
REMARK  7 active torsions:
REMARK  status: ('A' for Active; 'I' for Inactive)
REMARK    1  A    between atoms: C_1  and  C_2
REMARK    2  A    between atoms: C_2  and  O_3
REMARK    3  A    between atoms: O_3  and  C_4
REMARK    4  A    between atoms: C_13  and  C_14
REMARK    5  A    between atoms: C_14  and  C_15
REMARK    6  A    between atoms: C_15  and  N_16
REMARK    7  A    between atoms: C_17  and  C_18
REMARK                            x       y       z     vdW  Elec       q    Type
REMARK                         _______ _______ _______ _____ _____    ______ ____
ROOT
ATOM      1  C   UNL     1       4.642   5.303  18.475  0.00  0.00    +0.000 A 
ATOM      2  C   UNL     1       5.887   5.929  18.575  0.00  0.00    +0.000 A 
ATOM      3  C   UNL     1       6.770   5.927  17.503  0.00  0.00    +0.000 A 
ATOM      4  C   UNL     1       6.452   5.261  16.321  0.00  0.00    +0.000 A 
ATOM      5  C   UNL     1       7.389   5.267  15.274  0.00  0.00    +0.000 A 
ATOM      6  C   UNL     1       7.136   4.595  14.084  0.00  0.00    +0.000 A 
ATOM      7  C   UNL     1       5.943   3.907  13.932  0.00  0.00    +0.000 A 
ATOM      8  C   UNL     1       5.002   3.898  14.969  0.00  0.00    +0.000 A 
ATOM      9  C   UNL     1       5.211   4.583  16.194  0.00  0.00    +0.000 A 
ATOM     10  C   UNL     1       4.270   4.625  17.289  0.00  0.00    +0.000 A 
ENDROOT
BRANCH   1  11
ATOM     11  O   UNL     1       3.766   5.287  19.528  0.00  0.00    +0.000 OA
BRANCH  11  13
ATOM     12  C   UNL     1       1.753   5.972  20.615  0.00  0.00    +0.000 C 
ATOM     13  C   UNL     1       2.832   6.363  19.622  0.00  0.00    +0.000 C 
ENDBRANCH  11  13
ENDBRANCH   1  11
BRANCH  10  14
ATOM     14  C   UNL     1       2.937   3.876  17.166  0.00  0.00    +0.000 C 
BRANCH  14  15
ATOM     15  C   UNL     1       2.833   2.442  17.708  0.00  0.00    +0.000 C 
BRANCH  15  16
ATOM     16  N   UNL     1       2.659   2.394  19.154  0.00  0.00    +0.000 N 
ATOM     17  C   UNL     1       1.423   2.438  19.754  0.00  0.00    +0.000 C 
ATOM     18  C   UNL     1       1.467   2.554  21.254  0.00  0.00    +0.000 C 
ATOM     19  O   UNL     1       0.364   2.421  19.134  0.00  0.00    +0.000 OA
ATOM     20  H   UNL     1       3.488   2.408  19.729  0.00  0.00    +0.000 HD
ENDBRANCH  15  16
ENDBRANCH  14  15
ENDBRANCH  10  14
TORSDOF 5
ENDMDL
