MODEL 1
REMARK VINA RESULT:      -7.6      0.000      0.000
REMARK  Name = 
REMARK  10 active torsions:
REMARK  status: ('A' for Active; 'I' for Inactive)
REMARK    1  A    between atoms: C_1  and  C_2
REMARK    2  A    between atoms: C_2  and  C_3
REMARK    3  A    between atoms: C_2  and  O_4
REMARK    4  A    between atoms: O_4  and  C_5
REMARK    5  A    between atoms: C_5  and  C_7
REMARK    6  A    between atoms: C_10  and  N_11
REMARK    7  A    between atoms: N_11  and  C_12
REMARK    8  A    between atoms: C_12  and  C_13
REMARK    9  A    between atoms: C_15  and  O_16
REMARK   10  A    between atoms: C_19  and  O_20
REMARK                            x       y       z     vdW  Elec       q    Type
REMARK                         _______ _______ _______ _____ _____    ______ ____
ROOT
ATOM      1  C   UNL     1       1.515   9.170  19.015  0.00  0.00    +0.000 A 
ATOM      2  C   UNL     1       2.010   8.744  17.772  0.00  0.00    +0.000 A 
ATOM      3  C   UNL     1       2.580   7.475  17.626  0.00  0.00    +0.000 A 
ATOM      4  C   UNL     1       2.698   6.600  18.712  0.00  0.00    +0.000 A 
ATOM      5  C   UNL     1       2.205   7.037  19.949  0.00  0.00    +0.000 A 
ATOM      6  C   UNL     1       1.618   8.309  20.109  0.00  0.00    +0.000 A 
ATOM      7 CL   UNL     1       0.970   8.663  21.673  0.00  0.00    +0.000 Cl
ENDROOT
BRANCH   1   8
ATOM      8  C   UNL     1       0.799  10.467  19.018  0.00  0.00    +0.000 C 
ATOM      9  O   UNL     1       1.403  11.531  18.981  0.00  0.00    +0.000 OA
BRANCH   8  10
ATOM     10  O   UNL     1      -0.544  10.327  19.121  0.00  0.00    +0.000 OA
BRANCH  10  12
ATOM     11  C   UNL     1      -1.905   9.972  17.134  0.00  0.00    +0.000 C 
ATOM     12  C   UNL     1      -1.313  10.995  18.102  0.00  0.00    +0.000 C 
ATOM     13  C   UNL     1      -2.429  11.780  18.779  0.00  0.00    +0.000 C 
ENDBRANCH  10  12
ENDBRANCH   8  10
ENDBRANCH   1   8
BRANCH   4  14
ATOM     14  N   UNL     1       3.149   5.301  18.485  0.00  0.00    +0.000 N 
ATOM     15  H   UNL     1       2.416   4.599  18.507  0.00  0.00    +0.000 HD
BRANCH  14  16
ATOM     16  C   UNL     1       4.147   5.005  17.450  0.00  0.00    +0.000 C 
BRANCH  16  17
ATOM     17  C   UNL     1       5.516   5.539  17.804  0.00  0.00    +0.000 A 
ATOM     18  C   UNL     1       6.139   5.187  19.014  0.00  0.00    +0.000 A 
ATOM     19  C   UNL     1       7.357   5.759  19.376  0.00  0.00    +0.000 A 
ATOM     20  C   UNL     1       7.984   6.684  18.556  0.00  0.00    +0.000 A 
ATOM     21  C   UNL     1       7.387   7.050  17.352  0.00  0.00    +0.000 A 
ATOM     22  C   UNL     1       6.160   6.487  16.983  0.00  0.00    +0.000 A 
BRANCH  19  23
ATOM     23  O   UNL     1       7.962   5.434  20.553  0.00  0.00    +0.000 OA
ATOM     24  H   UNL     1       8.880   5.173  20.364  0.00  0.00    +0.000 HD
ENDBRANCH  19  23
BRANCH  22  25
ATOM     25  O   UNL     1       5.567   6.872  15.815  0.00  0.00    +0.000 OA
ATOM     26  H   UNL     1       5.873   6.287  15.102  0.00  0.00    +0.000 HD
ENDBRANCH  22  25
ENDBRANCH  16  17
ENDBRANCH  14  16
ENDBRANCH   4  14
TORSDOF 8
ENDMDL
MODEL 2
REMARK VINA RESULT:      -7.3      4.267      7.518
REMARK  Name = 
REMARK  10 active torsions:
REMARK  status: ('A' for Active; 'I' for Inactive)
REMARK    1  A    between atoms: C_1  and  C_2
REMARK    2  A    between atoms: C_2  and  C_3
REMARK    3  A    between atoms: C_2  and  O_4
REMARK    4  A    between atoms: O_4  and  C_5
REMARK    5  A    between atoms: C_5  and  C_7
REMARK    6  A    between atoms: C_10  and  N_11
REMARK    7  A    between atoms: N_11  and  C_12
REMARK    8  A    between atoms: C_12  and  C_13
REMARK    9  A    between atoms: C_15  and  O_16
REMARK   10  A    between atoms: C_19  and  O_20
REMARK                            x       y       z     vdW  Elec       q    Type
REMARK                         _______ _______ _______ _____ _____    ______ ____
ROOT
ATOM      1  C   UNL     1       6.197   5.087  15.965  0.00  0.00    +0.000 A 
ATOM      2  C   UNL     1       4.959   5.696  15.705  0.00  0.00    +0.000 A 
ATOM      3  C   UNL     1       4.149   6.149  16.752  0.00  0.00    +0.000 A 
ATOM      4  C   UNL     1       4.530   5.990  18.088  0.00  0.00    +0.000 A 
ATOM      5  C   UNL     1       5.766   5.376  18.338  0.00  0.00    +0.000 A 
ATOM      6  C   UNL     1       6.597   4.924  17.293  0.00  0.00    +0.000 A 
ATOM      7 CL   UNL     1       8.132   4.276  17.759  0.00  0.00    +0.000 Cl
ENDROOT
BRANCH   1   8
ATOM      8  C   UNL     1       7.034   4.785  14.781  0.00  0.00    +0.000 C 
ATOM      9  O   UNL     1       7.972   5.503  14.462  0.00  0.00    +0.000 OA
BRANCH   8  10
ATOM     10  O   UNL     1       6.607   3.696  14.098  0.00  0.00    +0.000 OA
BRANCH  10  12
ATOM     11  C   UNL     1       7.213   3.036  11.834  0.00  0.00    +0.000 C 
ATOM     12  C   UNL     1       6.319   3.918  12.704  0.00  0.00    +0.000 C 
ATOM     13  C   UNL     1       4.854   3.582  12.456  0.00  0.00    +0.000 C 
ENDBRANCH  10  12
ENDBRANCH   8  10
ENDBRANCH   1   8
BRANCH   4  14
ATOM     14  N   UNL     1       3.754   6.577  19.086  0.00  0.00    +0.000 N 
ATOM     15  H   UNL     1       3.978   7.551  19.264  0.00  0.00    +0.000 HD
BRANCH  14  16
ATOM     16  C   UNL     1       2.310   6.331  19.178  0.00  0.00    +0.000 C 
BRANCH  16  17
ATOM     17  C   UNL     1       1.995   4.899  19.547  0.00  0.00    +0.000 A 
ATOM     18  C   UNL     1       2.325   4.388  20.813  0.00  0.00    +0.000 A 
ATOM     19  C   UNL     1       2.119   3.043  21.110  0.00  0.00    +0.000 A 
ATOM     20  C   UNL     1       1.583   2.178  20.170  0.00  0.00    +0.000 A 
ATOM     21  C   UNL     1       1.248   2.658  18.906  0.00  0.00    +0.000 A 
ATOM     22  C   UNL     1       1.459   4.007  18.595  0.00  0.00    +0.000 A 
BRANCH  19  23
ATOM     23  O   UNL     1       2.449   2.536  22.332  0.00  0.00    +0.000 OA
ATOM     24  H   UNL     1       3.303   2.077  22.252  0.00  0.00    +0.000 HD
ENDBRANCH  19  23
BRANCH  22  25
ATOM     25  O   UNL     1       1.154   4.464  17.346  0.00  0.00    +0.000 OA
ATOM     26  H   UNL     1       0.431   5.110  17.418  0.00  0.00    +0.000 HD
ENDBRANCH  22  25
ENDBRANCH  16  17
ENDBRANCH  14  16
ENDBRANCH   4  14
TORSDOF 8
ENDMDL
MODEL 3
REMARK VINA RESULT:      -7.3      1.298      1.860
REMARK  Name = 
REMARK  10 active torsions:
REMARK  status: ('A' for Active; 'I' for Inactive)
REMARK    1  A    between atoms: C_1  and  C_2
REMARK    2  A    between atoms: C_2  and  C_3
REMARK    3  A    between atoms: C_2  and  O_4
REMARK    4  A    between atoms: O_4  and  C_5
REMARK    5  A    between atoms: C_5  and  C_7
REMARK    6  A    between atoms: C_10  and  N_11
REMARK    7  A    between atoms: N_11  and  C_12
REMARK    8  A    between atoms: C_12  and  C_13
REMARK    9  A    between atoms: C_15  and  O_16
REMARK   10  A    between atoms: C_19  and  O_20
REMARK                            x       y       z     vdW  Elec       q    Type
REMARK                         _______ _______ _______ _____ _____    ______ ____
ROOT
ATOM      1  C   UNL     1       0.973   9.613  19.296  0.00  0.00    +0.000 A 
ATOM      2  C   UNL     1       1.592   9.180  18.113  0.00  0.00    +0.000 A 
ATOM      3  C   UNL     1       2.285   7.965  18.071  0.00  0.00    +0.000 A 
ATOM      4  C   UNL     1       2.405   7.156  19.206  0.00  0.00    +0.000 A 
ATOM      5  C   UNL     1       1.787   7.600  20.383  0.00  0.00    +0.000 A 
ATOM      6  C   UNL     1       1.077   8.816  20.438  0.00  0.00    +0.000 A 
ATOM      7 CL   UNL     1       0.290   9.179  21.935  0.00  0.00    +0.000 Cl
ENDROOT
BRANCH   1   8
ATOM      8  C   UNL     1       0.142  10.835  19.184  0.00  0.00    +0.000 C 
ATOM      9  O   UNL     1      -1.008  10.791  18.768  0.00  0.00    +0.000 OA
BRANCH   8  10
ATOM     10  O   UNL     1       0.813  11.960  19.530  0.00  0.00    +0.000 OA
BRANCH  10  12
ATOM     11  C   UNL     1       0.333  14.243  18.834  0.00  0.00    +0.000 C 
ATOM     12  C   UNL     1       0.997  12.917  18.468  0.00  0.00    +0.000 C 
ATOM     13  C   UNL     1       2.492  13.122  18.260  0.00  0.00    +0.000 C 
ENDBRANCH  10  12
ENDBRANCH   8  10
ENDBRANCH   1   8
BRANCH   4  14
ATOM     14  N   UNL     1       2.988   5.897  19.078  0.00  0.00    +0.000 N 
ATOM     15  H   UNL     1       2.394   5.133  19.385  0.00  0.00    +0.000 HD
BRANCH  14  16
ATOM     16  C   UNL     1       3.766   5.529  17.889  0.00  0.00    +0.000 C 
BRANCH  16  17
ATOM     17  C   UNL     1       5.243   5.803  18.062  0.00  0.00    +0.000 A 
ATOM     18  C   UNL     1       5.927   5.382  19.215  0.00  0.00    +0.000 A 
ATOM     19  C   UNL     1       7.263   5.723  19.409  0.00  0.00    +0.000 A 
ATOM     20  C   UNL     1       7.951   6.481  18.475  0.00  0.00    +0.000 A 
ATOM     21  C   UNL     1       7.296   6.913  17.324  0.00  0.00    +0.000 A 
ATOM     22  C   UNL     1       5.951   6.582  17.123  0.00  0.00    +0.000 A 
BRANCH  19  23
ATOM     23  O   UNL     1       7.931   5.330  20.531  0.00  0.00    +0.000 OA
ATOM     24  H   UNL     1       8.882   5.314  20.331  0.00  0.00    +0.000 HD
ENDBRANCH  19  23
BRANCH  22  25
ATOM     25  O   UNL     1       5.308   7.032  16.006  0.00  0.00    +0.000 OA
ATOM     26  H   UNL     1       5.242   6.301  15.368  0.00  0.00    +0.000 HD
ENDBRANCH  22  25
ENDBRANCH  16  17
ENDBRANCH  14  16
ENDBRANCH   4  14
TORSDOF 8
ENDMDL
MODEL 4
REMARK VINA RESULT:      -7.2      1.511      1.969
REMARK  Name = 
REMARK  10 active torsions:
REMARK  status: ('A' for Active; 'I' for Inactive)
REMARK    1  A    between atoms: C_1  and  C_2
REMARK    2  A    between atoms: C_2  and  C_3
REMARK    3  A    between atoms: C_2  and  O_4
REMARK    4  A    between atoms: O_4  and  C_5
REMARK    5  A    between atoms: C_5  and  C_7
REMARK    6  A    between atoms: C_10  and  N_11
REMARK    7  A    between atoms: N_11  and  C_12
REMARK    8  A    between atoms: C_12  and  C_13
REMARK    9  A    between atoms: C_15  and  O_16
REMARK   10  A    between atoms: C_19  and  O_20
REMARK                            x       y       z     vdW  Elec       q    Type
REMARK                         _______ _______ _______ _____ _____    ______ ____
ROOT
ATOM      1  C   UNL     1       1.550   7.877  20.212  0.00  0.00    +0.000 A 
ATOM      2  C   UNL     1       1.635   6.628  20.847  0.00  0.00    +0.000 A 
ATOM      3  C   UNL     1       2.231   5.537  20.206  0.00  0.00    +0.000 A 
ATOM      4  C   UNL     1       2.740   5.645  18.906  0.00  0.00    +0.000 A 
ATOM      5  C   UNL     1       2.646   6.896  18.279  0.00  0.00    +0.000 A 
ATOM      6  C   UNL     1       2.057   8.006  18.917  0.00  0.00    +0.000 A 
ATOM      7 CL   UNL     1       2.104   9.503  18.051  0.00  0.00    +0.000 Cl
ENDROOT
BRANCH   1   8
ATOM      8  C   UNL     1       1.038   8.993  21.040  0.00  0.00    +0.000 C 
ATOM      9  O   UNL     1       1.718   9.499  21.923  0.00  0.00    +0.000 OA
BRANCH   8  10
ATOM     10  O   UNL     1      -0.241   9.324  20.743  0.00  0.00    +0.000 OA
BRANCH  10  12
ATOM     11  C   UNL     1      -1.290  10.545  18.916  0.00  0.00    +0.000 C 
ATOM     12  C   UNL     1      -0.421  10.634  20.169  0.00  0.00    +0.000 C 
ATOM     13  C   UNL     1      -1.090  11.526  21.206  0.00  0.00    +0.000 C 
ENDBRANCH  10  12
ENDBRANCH   8  10
ENDBRANCH   1   8
BRANCH   4  14
ATOM     14  N   UNL     1       3.442   4.570  18.365  0.00  0.00    +0.000 N 
ATOM     15  H   UNL     1       2.885   3.729  18.251  0.00  0.00    +0.000 HD
BRANCH  14  16
ATOM     16  C   UNL     1       4.381   4.750  17.252  0.00  0.00    +0.000 C 
BRANCH  16  17
ATOM     17  C   UNL     1       5.671   5.406  17.690  0.00  0.00    +0.000 A 
ATOM     18  C   UNL     1       6.291   5.048  18.900  0.00  0.00    +0.000 A 
ATOM     19  C   UNL     1       7.425   5.724  19.342  0.00  0.00    +0.000 A 
ATOM     20  C   UNL     1       7.970   6.762  18.603  0.00  0.00    +0.000 A 
ATOM     21  C   UNL     1       7.375   7.138  17.402  0.00  0.00    +0.000 A 
ATOM     22  C   UNL     1       6.230   6.469  16.953  0.00  0.00    +0.000 A 
BRANCH  19  23
ATOM     23  O   UNL     1       8.024   5.392  20.520  0.00  0.00    +0.000 OA
ATOM     24  H   UNL     1       8.886   5.843  20.563  0.00  0.00    +0.000 HD
ENDBRANCH  19  23
BRANCH  22  25
ATOM     25  O   UNL     1       5.636   6.862  15.789  0.00  0.00    +0.000 OA
ATOM     26  H   UNL     1       4.677   6.929  15.935  0.00  0.00    +0.000 HD
ENDBRANCH  22  25
ENDBRANCH  16  17
ENDBRANCH  14  16
ENDBRANCH   4  14
TORSDOF 8
ENDMDL
MODEL 5
REMARK VINA RESULT:      -7.2      4.631      7.725
REMARK  Name = 
REMARK  10 active torsions:
REMARK  status: ('A' for Active; 'I' for Inactive)
REMARK    1  A    between atoms: C_1  and  C_2
REMARK    2  A    between atoms: C_2  and  C_3
REMARK    3  A    between atoms: C_2  and  O_4
REMARK    4  A    between atoms: O_4  and  C_5
REMARK    5  A    between atoms: C_5  and  C_7
REMARK    6  A    between atoms: C_10  and  N_11
REMARK    7  A    between atoms: N_11  and  C_12
REMARK    8  A    between atoms: C_12  and  C_13
REMARK    9  A    between atoms: C_15  and  O_16
REMARK   10  A    between atoms: C_19  and  O_20
REMARK                            x       y       z     vdW  Elec       q    Type
REMARK                         _______ _______ _______ _____ _____    ______ ____
ROOT
ATOM      1  C   UNL     1       6.412   5.117  15.533  0.00  0.00    +0.000 A 
ATOM      2  C   UNL     1       6.852   4.309  16.593  0.00  0.00    +0.000 A 
ATOM      3  C   UNL     1       6.325   4.466  17.880  0.00  0.00    +0.000 A 
ATOM      4  C   UNL     1       5.364   5.444  18.159  0.00  0.00    +0.000 A 
ATOM      5  C   UNL     1       4.935   6.248  17.093  0.00  0.00    +0.000 A 
ATOM      6  C   UNL     1       5.449   6.095  15.790  0.00  0.00    +0.000 A 
ATOM      7 CL   UNL     1       4.749   7.096  14.566  0.00  0.00    +0.000 Cl
ENDROOT
BRANCH   1   8
ATOM      8  C   UNL     1       6.927   4.762  14.189  0.00  0.00    +0.000 C 
ATOM      9  O   UNL     1       7.710   5.488  13.593  0.00  0.00    +0.000 OA
BRANCH   8  10
ATOM     10  O   UNL     1       6.395   3.613  13.710  0.00  0.00    +0.000 OA
BRANCH  10  12
ATOM     11  C   UNL     1       6.912   2.380  11.674  0.00  0.00    +0.000 C 
ATOM     12  C   UNL     1       6.188   3.579  12.284  0.00  0.00    +0.000 C 
ATOM     13  C   UNL     1       4.691   3.475  12.018  0.00  0.00    +0.000 C 
ENDBRANCH  10  12
ENDBRANCH   8  10
ENDBRANCH   1   8
BRANCH   4  14
ATOM     14  N   UNL     1       4.775   5.470  19.421  0.00  0.00    +0.000 N 
ATOM     15  H   UNL     1       5.374   5.849  20.149  0.00  0.00    +0.000 HD
BRANCH  14  16
ATOM     16  C   UNL     1       3.377   5.877  19.607  0.00  0.00    +0.000 C 
BRANCH  16  17
ATOM     17  C   UNL     1       2.457   4.694  19.808  0.00  0.00    +0.000 A 
ATOM     18  C   UNL     1       2.305   4.102  21.073  0.00  0.00    +0.000 A 
ATOM     19  C   UNL     1       1.532   2.955  21.230  0.00  0.00    +0.000 A 
ATOM     20  C   UNL     1       0.893   2.370  20.147  0.00  0.00    +0.000 A 
ATOM     21  C   UNL     1       1.028   2.936  18.882  0.00  0.00    +0.000 A 
ATOM     22  C   UNL     1       1.810   4.085  18.713  0.00  0.00    +0.000 A 
BRANCH  19  23
ATOM     23  O   UNL     1       1.389   2.366  22.451  0.00  0.00    +0.000 OA
ATOM     24  H   UNL     1       1.252   3.066  23.113  0.00  0.00    +0.000 HD
ENDBRANCH  19  23
BRANCH  22  25
ATOM     25  O   UNL     1       1.962   4.617  17.466  0.00  0.00    +0.000 OA
ATOM     26  H   UNL     1       1.479   5.461  17.426  0.00  0.00    +0.000 HD
ENDBRANCH  22  25
ENDBRANCH  16  17
ENDBRANCH  14  16
ENDBRANCH   4  14
TORSDOF 8
ENDMDL
MODEL 6
REMARK VINA RESULT:      -7.1      1.979      2.760
REMARK  Name = 
REMARK  10 active torsions:
REMARK  status: ('A' for Active; 'I' for Inactive)
REMARK    1  A    between atoms: C_1  and  C_2
REMARK    2  A    between atoms: C_2  and  C_3
REMARK    3  A    between atoms: C_2  and  O_4
REMARK    4  A    between atoms: O_4  and  C_5
REMARK    5  A    between atoms: C_5  and  C_7
REMARK    6  A    between atoms: C_10  and  N_11
REMARK    7  A    between atoms: N_11  and  C_12
REMARK    8  A    between atoms: C_12  and  C_13
REMARK    9  A    between atoms: C_15  and  O_16
REMARK   10  A    between atoms: C_19  and  O_20
REMARK                            x       y       z     vdW  Elec       q    Type
REMARK                         _______ _______ _______ _____ _____    ______ ____
ROOT
ATOM      1  C   UNL     1       1.532   7.980  20.365  0.00  0.00    +0.000 A 
ATOM      2  C   UNL     1       1.721   6.682  20.865  0.00  0.00    +0.000 A 
ATOM      3  C   UNL     1       2.263   5.675  20.058  0.00  0.00    +0.000 A 
ATOM      4  C   UNL     1       2.612   5.920  18.726  0.00  0.00    +0.000 A 
ATOM      5  C   UNL     1       2.416   7.218  18.235  0.00  0.00    +0.000 A 
ATOM      6  C   UNL     1       1.880   8.245  19.038  0.00  0.00    +0.000 A 
ATOM      7 CL   UNL     1       1.789   9.815  18.319  0.00  0.00    +0.000 Cl
ENDROOT
BRANCH   1   8
ATOM      8  C   UNL     1       1.094   8.997  21.349  0.00  0.00    +0.000 C 
ATOM      9  O   UNL     1       1.801   9.316  22.296  0.00  0.00    +0.000 OA
BRANCH   8  10
ATOM     10  O   UNL     1      -0.155   9.460  21.106  0.00  0.00    +0.000 OA
BRANCH  10  12
ATOM     11  C   UNL     1      -1.124  11.441  20.074  0.00  0.00    +0.000 C 
ATOM     12  C   UNL     1      -0.321  10.885  21.248  0.00  0.00    +0.000 C 
ATOM     13  C   UNL     1      -1.055  11.155  22.557  0.00  0.00    +0.000 C 
ENDBRANCH  10  12
ENDBRANCH   8  10
ENDBRANCH   1   8
BRANCH   4  14
ATOM     14  N   UNL     1       3.271   4.924  18.008  0.00  0.00    +0.000 N 
ATOM     15  H   UNL     1       2.668   4.167  17.702  0.00  0.00    +0.000 HD
BRANCH  14  16
ATOM     16  C   UNL     1       4.282   5.249  16.995  0.00  0.00    +0.000 C 
BRANCH  16  17
ATOM     17  C   UNL     1       5.560   5.776  17.608  0.00  0.00    +0.000 A 
ATOM     18  C   UNL     1       6.126   6.986  17.171  0.00  0.00    +0.000 A 
ATOM     19  C   UNL     1       7.353   7.416  17.673  0.00  0.00    +0.000 A 
ATOM     20  C   UNL     1       8.043   6.666  18.612  0.00  0.00    +0.000 A 
ATOM     21  C   UNL     1       7.504   5.462  19.061  0.00  0.00    +0.000 A 
ATOM     22  C   UNL     1       6.276   5.018  18.557  0.00  0.00    +0.000 A 
BRANCH  19  23
ATOM     23  O   UNL     1       7.915   8.581  17.245  0.00  0.00    +0.000 OA
ATOM     24  H   UNL     1       7.233   9.274  17.259  0.00  0.00    +0.000 HD
ENDBRANCH  19  23
BRANCH  22  25
ATOM     25  O   UNL     1       5.768   3.824  18.980  0.00  0.00    +0.000 OA
ATOM     26  H   UNL     1       5.842   3.179  18.255  0.00  0.00    +0.000 HD
ENDBRANCH  22  25
ENDBRANCH  16  17
ENDBRANCH  14  16
ENDBRANCH   4  14
TORSDOF 8
ENDMDL
MODEL 7
REMARK VINA RESULT:      -7.1      2.580      3.733
REMARK  Name = 
REMARK  10 active torsions:
REMARK  status: ('A' for Active; 'I' for Inactive)
REMARK    1  A    between atoms: C_1  and  C_2
REMARK    2  A    between atoms: C_2  and  C_3
REMARK    3  A    between atoms: C_2  and  O_4
REMARK    4  A    between atoms: O_4  and  C_5
REMARK    5  A    between atoms: C_5  and  C_7
REMARK    6  A    between atoms: C_10  and  N_11
REMARK    7  A    between atoms: N_11  and  C_12
REMARK    8  A    between atoms: C_12  and  C_13
REMARK    9  A    between atoms: C_15  and  O_16
REMARK   10  A    between atoms: C_19  and  O_20
REMARK                            x       y       z     vdW  Elec       q    Type
REMARK                         _______ _______ _______ _____ _____    ______ ____
ROOT
ATOM      1  C   UNL     1       0.467   9.733  18.814  0.00  0.00    +0.000 A 
ATOM      2  C   UNL     1       1.286   9.126  17.849  0.00  0.00    +0.000 A 
ATOM      3  C   UNL     1       2.172   8.103  18.202  0.00  0.00    +0.000 A 
ATOM      4  C   UNL     1       2.289   7.666  19.526  0.00  0.00    +0.000 A 
ATOM      5  C   UNL     1       1.470   8.282  20.483  0.00  0.00    +0.000 A 
ATOM      6  C   UNL     1       0.566   9.307  20.141  0.00  0.00    +0.000 A 
ATOM      7 CL   UNL     1      -0.444   9.898  21.414  0.00  0.00    +0.000 Cl
ENDROOT
BRANCH   1   8
ATOM      8  C   UNL     1      -0.536  10.696  18.302  0.00  0.00    +0.000 C 
ATOM      9  O   UNL     1      -0.531  11.869  18.650  0.00  0.00    +0.000 OA
BRANCH   8  10
ATOM     10  O   UNL     1      -1.448  10.120  17.484  0.00  0.00    +0.000 OA
BRANCH  10  12
ATOM     11  C   UNL     1      -2.767  10.772  15.543  0.00  0.00    +0.000 C 
ATOM     12  C   UNL     1      -2.505  10.989  17.032  0.00  0.00    +0.000 C 
ATOM     13  C   UNL     1      -3.762  10.672  17.834  0.00  0.00    +0.000 C 
ENDBRANCH  10  12
ENDBRANCH   8  10
ENDBRANCH   1   8
BRANCH   4  14
ATOM     14  N   UNL     1       3.085   6.556  19.803  0.00  0.00    +0.000 N 
ATOM     15  H   UNL     1       2.703   5.941  20.515  0.00  0.00    +0.000 HD
BRANCH  14  16
ATOM     16  C   UNL     1       3.742   5.798  18.732  0.00  0.00    +0.000 C 
BRANCH  16  17
ATOM     17  C   UNL     1       3.286   4.357  18.686  0.00  0.00    +0.000 A 
ATOM     18  C   UNL     1       1.927   4.032  18.538  0.00  0.00    +0.000 A 
ATOM     19  C   UNL     1       1.505   2.706  18.594  0.00  0.00    +0.000 A 
ATOM     20  C   UNL     1       2.411   1.677  18.795  0.00  0.00    +0.000 A 
ATOM     21  C   UNL     1       3.764   1.971  18.946  0.00  0.00    +0.000 A 
ATOM     22  C   UNL     1       4.197   3.301  18.899  0.00  0.00    +0.000 A 
BRANCH  19  23
ATOM     23  O   UNL     1       0.187   2.384  18.465  0.00  0.00    +0.000 OA
ATOM     24  H   UNL     1       0.091   1.791  17.699  0.00  0.00    +0.000 HD
ENDBRANCH  19  23
BRANCH  22  25
ATOM     25  O   UNL     1       5.520   3.584  19.076  0.00  0.00    +0.000 OA
ATOM     26  H   UNL     1       5.841   4.073  18.299  0.00  0.00    +0.000 HD
ENDBRANCH  22  25
ENDBRANCH  16  17
ENDBRANCH  14  16
ENDBRANCH   4  14
TORSDOF 8
ENDMDL
MODEL 8
REMARK VINA RESULT:      -7.1      4.450      7.030
REMARK  Name = 
REMARK  10 active torsions:
REMARK  status: ('A' for Active; 'I' for Inactive)
REMARK    1  A    between atoms: C_1  and  C_2
REMARK    2  A    between atoms: C_2  and  C_3
REMARK    3  A    between atoms: C_2  and  O_4
REMARK    4  A    between atoms: O_4  and  C_5
REMARK    5  A    between atoms: C_5  and  C_7
REMARK    6  A    between atoms: C_10  and  N_11
REMARK    7  A    between atoms: N_11  and  C_12
REMARK    8  A    between atoms: C_12  and  C_13
REMARK    9  A    between atoms: C_15  and  O_16
REMARK   10  A    between atoms: C_19  and  O_20
REMARK                            x       y       z     vdW  Elec       q    Type
REMARK                         _______ _______ _______ _____ _____    ______ ____
ROOT
ATOM      1  C   UNL     1       6.027   5.336  18.391  0.00  0.00    +0.000 A 
ATOM      2  C   UNL     1       7.088   5.254  19.307  0.00  0.00    +0.000 A 
ATOM      3  C   UNL     1       8.047   6.269  19.385  0.00  0.00    +0.000 A 
ATOM      4  C   UNL     1       7.997   7.384  18.540  0.00  0.00    +0.000 A 
ATOM      5  C   UNL     1       6.936   7.453  17.626  0.00  0.00    +0.000 A 
ATOM      6  C   UNL     1       5.957   6.443  17.544  0.00  0.00    +0.000 A 
ATOM      7 CL   UNL     1       4.659   6.720  16.434  0.00  0.00    +0.000 Cl
ENDROOT
BRANCH   1   8
ATOM      8  C   UNL     1       4.991   4.282  18.502  0.00  0.00    +0.000 C 
ATOM      9  O   UNL     1       5.204   3.237  19.104  0.00  0.00    +0.000 OA
BRANCH   8  10
ATOM     10  O   UNL     1       3.855   4.588  17.832  0.00  0.00    +0.000 OA
BRANCH  10  12
ATOM     11  C   UNL     1       2.456   5.715  19.476  0.00  0.00    +0.000 C 
ATOM     12  C   UNL     1       2.640   4.478  18.599  0.00  0.00    +0.000 C 
ATOM     13  C   UNL     1       1.471   4.347  17.630  0.00  0.00    +0.000 C 
ENDBRANCH  10  12
ENDBRANCH   8  10
ENDBRANCH   1   8
BRANCH   4  14
ATOM     14  N   UNL     1       8.896   8.428  18.748  0.00  0.00    +0.000 N 
ATOM     15  H   UNL     1       9.859   8.195  18.527  0.00  0.00    +0.000 HD
BRANCH  14  16
ATOM     16  C   UNL     1       8.573   9.806  18.361  0.00  0.00    +0.000 C 
BRANCH  16  17
ATOM     17  C   UNL     1       9.697  10.768  18.671  0.00  0.00    +0.000 A 
ATOM     18  C   UNL     1      10.466  11.339  17.643  0.00  0.00    +0.000 A 
ATOM     19  C   UNL     1      11.560  12.147  17.941  0.00  0.00    +0.000 A 
ATOM     20  C   UNL     1      11.917  12.410  19.254  0.00  0.00    +0.000 A 
ATOM     21  C   UNL     1      11.173  11.855  20.293  0.00  0.00    +0.000 A 
ATOM     22  C   UNL     1      10.076  11.035  20.003  0.00  0.00    +0.000 A 
BRANCH  19  23
ATOM     23  O   UNL     1      12.319  12.694  16.950  0.00  0.00    +0.000 OA
ATOM     24  H   UNL     1      12.839  11.984  16.535  0.00  0.00    +0.000 HD
ENDBRANCH  19  23
BRANCH  22  25
ATOM     25  O   UNL     1       9.369  10.472  21.025  0.00  0.00    +0.000 OA
ATOM     26  H   UNL     1       9.807   9.644  21.289  0.00  0.00    +0.000 HD
ENDBRANCH  22  25
ENDBRANCH  16  17
ENDBRANCH  14  16
ENDBRANCH   4  14
TORSDOF 8
ENDMDL
MODEL 9
REMARK VINA RESULT:      -7.0      4.758      7.608
REMARK  Name = 
REMARK  10 active torsions:
REMARK  status: ('A' for Active; 'I' for Inactive)
REMARK    1  A    between atoms: C_1  and  C_2
REMARK    2  A    between atoms: C_2  and  C_3
REMARK    3  A    between atoms: C_2  and  O_4
REMARK    4  A    between atoms: O_4  and  C_5
REMARK    5  A    between atoms: C_5  and  C_7
REMARK    6  A    between atoms: C_10  and  N_11
REMARK    7  A    between atoms: N_11  and  C_12
REMARK    8  A    between atoms: C_12  and  C_13
REMARK    9  A    between atoms: C_15  and  O_16
REMARK   10  A    between atoms: C_19  and  O_20
REMARK                            x       y       z     vdW  Elec       q    Type
REMARK                         _______ _______ _______ _____ _____    ______ ____
ROOT
ATOM      1  C   UNL     1       6.705   5.119  15.335  0.00  0.00    +0.000 A 
ATOM      2  C   UNL     1       7.353   4.358  16.321  0.00  0.00    +0.000 A 
ATOM      3  C   UNL     1       7.033   4.517  17.674  0.00  0.00    +0.000 A 
ATOM      4  C   UNL     1       6.080   5.452  18.092  0.00  0.00    +0.000 A 
ATOM      5  C   UNL     1       5.442   6.210  17.099  0.00  0.00    +0.000 A 
ATOM      6  C   UNL     1       5.746   6.054  15.732  0.00  0.00    +0.000 A 
ATOM      7 CL   UNL     1       4.806   6.992  14.625  0.00  0.00    +0.000 Cl
ENDROOT
BRANCH   1   8
ATOM      8  C   UNL     1       7.014   4.761  13.931  0.00  0.00    +0.000 C 
ATOM      9  O   UNL     1       7.759   5.447  13.245  0.00  0.00    +0.000 OA
BRANCH   8  10
ATOM     10  O   UNL     1       6.348   3.659  13.511  0.00  0.00    +0.000 OA
BRANCH  10  12
ATOM     11  C   UNL     1       6.989   2.386  11.537  0.00  0.00    +0.000 C 
ATOM     12  C   UNL     1       6.171   3.554  12.085  0.00  0.00    +0.000 C 
ATOM     13  C   UNL     1       4.690   3.333  11.799  0.00  0.00    +0.000 C 
ENDBRANCH  10  12
ENDBRANCH   8  10
ENDBRANCH   1   8
BRANCH   4  14
ATOM     14  N   UNL     1       5.702   5.476  19.433  0.00  0.00    +0.000 N 
ATOM     15  H   UNL     1       6.171   6.190  19.981  0.00  0.00    +0.000 HD
BRANCH  14  16
ATOM     16  C   UNL     1       4.300   5.321  19.837  0.00  0.00    +0.000 C 
BRANCH  16  17
ATOM     17  C   UNL     1       3.617   4.180  19.118  0.00  0.00    +0.000 A 
ATOM     18  C   UNL     1       4.113   2.868  19.207  0.00  0.00    +0.000 A 
ATOM     19  C   UNL     1       3.537   1.841  18.465  0.00  0.00    +0.000 A 
ATOM     20  C   UNL     1       2.463   2.084  17.623  0.00  0.00    +0.000 A 
ATOM     21  C   UNL     1       1.952   3.375  17.514  0.00  0.00    +0.000 A 
ATOM     22  C   UNL     1       2.530   4.416  18.251  0.00  0.00    +0.000 A 
BRANCH  19  23
ATOM     23  O   UNL     1       4.020   0.568  18.536  0.00  0.00    +0.000 OA
ATOM     24  H   UNL     1       4.760   0.557  19.167  0.00  0.00    +0.000 HD
ENDBRANCH  19  23
BRANCH  22  25
ATOM     25  O   UNL     1       2.043   5.684  18.118  0.00  0.00    +0.000 OA
ATOM     26  H   UNL     1       1.127   5.634  17.797  0.00  0.00    +0.000 HD
ENDBRANCH  22  25
ENDBRANCH  16  17
ENDBRANCH  14  16
ENDBRANCH   4  14
TORSDOF 8
ENDMDL
