MODEL 1
REMARK VINA RESULT:      -8.3      0.000      0.000
REMARK  Name = 
REMARK  9 active torsions:
REMARK  status: ('A' for Active; 'I' for Inactive)
REMARK    1  A    between atoms: C_1  and  S_2
REMARK    2  A    between atoms: S_2  and  C_3
REMARK    3  A    between atoms: C_6  and  C_7
REMARK    4  A    between atoms: C_7  and  C_8
REMARK    5  A    between atoms: C_8  and  N_9
REMARK    6  A    between atoms: C_10  and  C_12
REMARK    7  A    between atoms: C_13  and  C_14
REMARK    8  A    between atoms: C_22  and  C_23
REMARK    9  A    between atoms: N_24  and  C_25
REMARK                            x       y       z     vdW  Elec       q    Type
REMARK                         _______ _______ _______ _____ _____    ______ ____
ROOT
ATOM      1  C   UNL     1       1.980   9.436  17.931  0.00  0.00    +0.000 C 
ENDROOT
BRANCH   1   2
ATOM      2  N   UNL     1       0.570   9.755  17.751  0.00  0.00    +0.000 N 
ATOM      3  C   UNL     1      -0.280  10.507  18.532  0.00  0.00    +0.000 C 
ATOM      4  O   UNL     1      -1.388  10.772  18.071  0.00  0.00    +0.000 OA
ATOM      5  H   UNL     1       0.163   9.553  16.843  0.00  0.00    +0.000 HD
BRANCH   3   6
ATOM      6  C   UNL     1       0.090  10.845  19.891  0.00  0.00    +0.000 A 
ATOM      7  C   UNL     1       0.750  12.049  20.330  0.00  0.00    +0.000 A 
ATOM      8  N   UNL     1       0.886  12.031  21.666  0.00  0.00    +0.000 NA
ATOM      9  O   UNL     1       0.425  10.824  22.100  0.00  0.00    +0.000 OA
ATOM     10  C   UNL     1      -0.008  10.084  21.048  0.00  0.00    +0.000 A 
ATOM     11  C   UNL     1      -0.408   8.709  21.419  0.00  0.00    +0.000 C 
BRANCH   7  12
ATOM     12  C   UNL     1       1.274  13.201  19.583  0.00  0.00    +0.000 A 
ATOM     13  C   UNL     1       2.426  13.132  18.792  0.00  0.00    +0.000 A 
ATOM     14  C   UNL     1       2.893  14.267  18.121  0.00  0.00    +0.000 A 
ATOM     15  C   UNL     1       2.208  15.477  18.220  0.00  0.00    +0.000 A 
ATOM     16  C   UNL     1       1.053  15.557  18.985  0.00  0.00    +0.000 A 
ATOM     17  C   UNL     1       0.586  14.426  19.657  0.00  0.00    +0.000 A 
ENDBRANCH   7  12
ENDBRANCH   3   6
ENDBRANCH   1   2
BRANCH   1  18
ATOM     18  C   UNL     1       2.238   8.034  18.489  0.00  0.00    +0.000 C 
BRANCH  18  22
ATOM     19  C   UNL     1       4.499   5.570  17.014  0.00  0.00    +0.000 A 
ATOM     20  N   UNL     1       4.843   6.660  16.368  0.00  0.00    +0.000 NA
ATOM     21  N   UNL     1       4.019   7.673  16.770  0.00  0.00    +0.000 NA
ATOM     22  C   UNL     1       3.181   7.200  17.673  0.00  0.00    +0.000 A 
ATOM     23  N   UNL     1       3.439   5.836  17.876  0.00  0.00    +0.000 N 
BRANCH  23  24
ATOM     24  C   UNL     1       2.786   4.969  18.810  0.00  0.00    +0.000 A 
ATOM     25  C   UNL     1       1.714   4.162  18.397  0.00  0.00    +0.000 A 
ATOM     26  C   UNL     1       0.985   3.412  19.321  0.00  0.00    +0.000 A 
ATOM     27  C   UNL     1       1.358   3.421  20.655  0.00  0.00    +0.000 A 
ATOM     28  F   UNL     1       0.654   2.707  21.542  0.00  0.00    +0.000 F 
ATOM     29  C   UNL     1       2.455   4.158  21.078  0.00  0.00    +0.000 A 
ATOM     30  C   UNL     1       3.164   4.943  20.161  0.00  0.00    +0.000 A 
ENDBRANCH  23  24
BRANCH  19  32
ATOM     31  C   UNL     1       6.481   4.358  15.523  0.00  0.00    +0.000 C 
ATOM     32  S   UNL     1       5.138   3.988  16.671  0.00  0.00    +0.000 S 
ENDBRANCH  19  32
ENDBRANCH  18  22
ENDBRANCH   1  18
TORSDOF 7
ENDMDL
MODEL 2
REMARK VINA RESULT:      -8.2      0.359      1.273
REMARK  Name = 
REMARK  9 active torsions:
REMARK  status: ('A' for Active; 'I' for Inactive)
REMARK    1  A    between atoms: C_1  and  S_2
REMARK    2  A    between atoms: S_2  and  C_3
REMARK    3  A    between atoms: C_6  and  C_7
REMARK    4  A    between atoms: C_7  and  C_8
REMARK    5  A    between atoms: C_8  and  N_9
REMARK    6  A    between atoms: C_10  and  C_12
REMARK    7  A    between atoms: C_13  and  C_14
REMARK    8  A    between atoms: C_22  and  C_23
REMARK    9  A    between atoms: N_24  and  C_25
REMARK                            x       y       z     vdW  Elec       q    Type
REMARK                         _______ _______ _______ _____ _____    ______ ____
ROOT
ATOM      1  C   UNL     1       1.815   9.527  17.972  0.00  0.00    +0.000 C 
ENDROOT
BRANCH   1   2
ATOM      2  N   UNL     1       0.427   9.935  17.791  0.00  0.00    +0.000 N 
ATOM      3  C   UNL     1      -0.370  10.750  18.564  0.00  0.00    +0.000 C 
ATOM      4  O   UNL     1      -1.461  11.079  18.102  0.00  0.00    +0.000 OA
ATOM      5  H   UNL     1       0.005   9.747  16.887  0.00  0.00    +0.000 HD
BRANCH   3   6
ATOM      6  C   UNL     1       0.025  11.081  19.916  0.00  0.00    +0.000 A 
ATOM      7  C   UNL     1       0.718  12.269  20.346  0.00  0.00    +0.000 A 
ATOM      8  N   UNL     1       0.871  12.251  21.680  0.00  0.00    +0.000 NA
ATOM      9  O   UNL     1       0.388  11.054  22.122  0.00  0.00    +0.000 OA
ATOM     10  C   UNL     1      -0.076  10.324  21.076  0.00  0.00    +0.000 A 
ATOM     11  C   UNL     1      -0.504   8.959  21.455  0.00  0.00    +0.000 C 
BRANCH   7  12
ATOM     12  C   UNL     1       1.260  13.408  19.590  0.00  0.00    +0.000 A 
ATOM     13  C   UNL     1       0.606  14.642  19.505  0.00  0.00    +0.000 A 
ATOM     14  C   UNL     1       1.157  15.684  18.752  0.00  0.00    +0.000 A 
ATOM     15  C   UNL     1       2.371  15.511  18.089  0.00  0.00    +0.000 A 
ATOM     16  C   UNL     1       3.040  14.298  18.178  0.00  0.00    +0.000 A 
ATOM     17  C   UNL     1       2.492  13.256  18.928  0.00  0.00    +0.000 A 
ENDBRANCH   7  12
ENDBRANCH   3   6
ENDBRANCH   1   2
BRANCH   1  18
ATOM     18  C   UNL     1       1.984   8.123  18.557  0.00  0.00    +0.000 C 
BRANCH  18  22
ATOM     19  C   UNL     1       4.386   5.638  17.371  0.00  0.00    +0.000 A 
ATOM     20  N   UNL     1       4.752   6.700  16.691  0.00  0.00    +0.000 NA
ATOM     21  N   UNL     1       3.884   7.713  16.982  0.00  0.00    +0.000 NA
ATOM     22  C   UNL     1       2.996   7.269  17.852  0.00  0.00    +0.000 A 
ATOM     23  N   UNL     1       3.266   5.924  18.145  0.00  0.00    +0.000 N 
BRANCH  23  24
ATOM     24  C   UNL     1       2.568   5.093  19.079  0.00  0.00    +0.000 A 
ATOM     25  C   UNL     1       2.948   5.073  20.431  0.00  0.00    +0.000 A 
ATOM     26  C   UNL     1       2.365   4.174  21.325  0.00  0.00    +0.000 A 
ATOM     27  C   UNL     1       1.360   3.328  20.886  0.00  0.00    +0.000 A 
ATOM     28  F   UNL     1       0.806   2.461  21.742  0.00  0.00    +0.000 F 
ATOM     29  C   UNL     1       0.920   3.374  19.570  0.00  0.00    +0.000 A 
ATOM     30  C   UNL     1       1.530   4.246  18.662  0.00  0.00    +0.000 A 
ENDBRANCH  23  24
BRANCH  19  32
ATOM     31  C   UNL     1       6.788   4.439  16.724  0.00  0.00    +0.000 C 
ATOM     32  S   UNL     1       5.078   4.055  17.158  0.00  0.00    +0.000 S 
ENDBRANCH  19  32
ENDBRANCH  18  22
ENDBRANCH   1  18
TORSDOF 7
ENDMDL
MODEL 3
REMARK VINA RESULT:      -8.1      4.091      8.575
REMARK  Name = 
REMARK  9 active torsions:
REMARK  status: ('A' for Active; 'I' for Inactive)
REMARK    1  A    between atoms: C_1  and  S_2
REMARK    2  A    between atoms: S_2  and  C_3
REMARK    3  A    between atoms: C_6  and  C_7
REMARK    4  A    between atoms: C_7  and  C_8
REMARK    5  A    between atoms: C_8  and  N_9
REMARK    6  A    between atoms: C_10  and  C_12
REMARK    7  A    between atoms: C_13  and  C_14
REMARK    8  A    between atoms: C_22  and  C_23
REMARK    9  A    between atoms: N_24  and  C_25
REMARK                            x       y       z     vdW  Elec       q    Type
REMARK                         _______ _______ _______ _____ _____    ______ ____
ROOT
ATOM      1  C   UNL     1       2.422   6.984  19.244  0.00  0.00    +0.000 C 
ENDROOT
BRANCH   1   2
ATOM      2  N   UNL     1       1.927   6.084  18.210  0.00  0.00    +0.000 N 
ATOM      3  C   UNL     1       1.959   4.709  18.136  0.00  0.00    +0.000 C 
ATOM      4  O   UNL     1       1.316   4.175  17.234  0.00  0.00    +0.000 OA
ATOM      5  H   UNL     1       1.313   6.483  17.507  0.00  0.00    +0.000 HD
BRANCH   3   6
ATOM      6  C   UNL     1       2.828   3.954  19.013  0.00  0.00    +0.000 A 
ATOM      7  C   UNL     1       4.232   3.693  18.820  0.00  0.00    +0.000 A 
ATOM      8  N   UNL     1       4.715   3.001  19.864  0.00  0.00    +0.000 NA
ATOM      9  O   UNL     1       3.660   2.721  20.682  0.00  0.00    +0.000 OA
ATOM     10  C   UNL     1       2.518   3.241  20.163  0.00  0.00    +0.000 A 
ATOM     11  C   UNL     1       1.304   2.874  20.927  0.00  0.00    +0.000 C 
BRANCH   7  12
ATOM     12  C   UNL     1       5.144   4.034  17.719  0.00  0.00    +0.000 A 
ATOM     13  C   UNL     1       4.833   3.797  16.375  0.00  0.00    +0.000 A 
ATOM     14  C   UNL     1       5.749   4.121  15.369  0.00  0.00    +0.000 A 
ATOM     15  C   UNL     1       6.977   4.697  15.691  0.00  0.00    +0.000 A 
ATOM     16  C   UNL     1       7.293   4.955  17.018  0.00  0.00    +0.000 A 
ATOM     17  C   UNL     1       6.381   4.631  18.024  0.00  0.00    +0.000 A 
ENDBRANCH   7  12
ENDBRANCH   3   6
ENDBRANCH   1   2
BRANCH   1  18
ATOM     18  C   UNL     1       1.870   8.408  19.151  0.00  0.00    +0.000 C 
BRANCH  18  22
ATOM     19  C   UNL     1       0.104  10.137  21.844  0.00  0.00    +0.000 A 
ATOM     20  N   UNL     1       1.045   9.507  22.510  0.00  0.00    +0.000 NA
ATOM     21  N   UNL     1       1.757   8.747  21.628  0.00  0.00    +0.000 NA
ATOM     22  C   UNL     1       1.257   8.925  20.420  0.00  0.00    +0.000 A 
ATOM     23  N   UNL     1       0.177   9.818  20.492  0.00  0.00    +0.000 N 
BRANCH  23  24
ATOM     24  C   UNL     1      -0.602  10.312  19.397  0.00  0.00    +0.000 A 
ATOM     25  C   UNL     1      -0.447  11.637  18.958  0.00  0.00    +0.000 A 
ATOM     26  C   UNL     1      -1.288  12.171  17.981  0.00  0.00    +0.000 A 
ATOM     27  C   UNL     1      -2.254  11.368  17.398  0.00  0.00    +0.000 A 
ATOM     28  F   UNL     1      -3.065  11.882  16.466  0.00  0.00    +0.000 F 
ATOM     29  C   UNL     1      -2.385  10.036  17.766  0.00  0.00    +0.000 A 
ATOM     30  C   UNL     1      -1.569   9.508  18.774  0.00  0.00    +0.000 A 
ENDBRANCH  23  24
BRANCH  19  32
ATOM     31  C   UNL     1      -0.578  12.754  22.402  0.00  0.00    +0.000 C 
ATOM     32  S   UNL     1      -1.170  11.059  22.589  0.00  0.00    +0.000 S 
ENDBRANCH  19  32
ENDBRANCH  18  22
ENDBRANCH   1  18
TORSDOF 7
ENDMDL
MODEL 4
REMARK VINA RESULT:      -8.1      2.171      3.575
REMARK  Name = 
REMARK  9 active torsions:
REMARK  status: ('A' for Active; 'I' for Inactive)
REMARK    1  A    between atoms: C_1  and  S_2
REMARK    2  A    between atoms: S_2  and  C_3
REMARK    3  A    between atoms: C_6  and  C_7
REMARK    4  A    between atoms: C_7  and  C_8
REMARK    5  A    between atoms: C_8  and  N_9
REMARK    6  A    between atoms: C_10  and  C_12
REMARK    7  A    between atoms: C_13  and  C_14
REMARK    8  A    between atoms: C_22  and  C_23
REMARK    9  A    between atoms: N_24  and  C_25
REMARK                            x       y       z     vdW  Elec       q    Type
REMARK                         _______ _______ _______ _____ _____    ______ ____
ROOT
ATOM      1  C   UNL     1       2.373   9.348  18.173  0.00  0.00    +0.000 C 
ENDROOT
BRANCH   1   2
ATOM      2  N   UNL     1       0.960   9.537  17.870  0.00  0.00    +0.000 N 
ATOM      3  C   UNL     1      -0.010  10.244  18.546  0.00  0.00    +0.000 C 
ATOM      4  O   UNL     1      -1.096  10.393  17.989  0.00  0.00    +0.000 OA
ATOM      5  H   UNL     1       0.646   9.262  16.944  0.00  0.00    +0.000 HD
BRANCH   3   6
ATOM      6  C   UNL     1       0.220  10.670  19.910  0.00  0.00    +0.000 A 
ATOM      7  C   UNL     1       0.782  11.926  20.339  0.00  0.00    +0.000 A 
ATOM      8  N   UNL     1       0.797  11.984  21.680  0.00  0.00    +0.000 NA
ATOM      9  O   UNL     1       0.354  10.778  22.139  0.00  0.00    +0.000 OA
ATOM     10  C   UNL     1       0.051   9.965  21.095  0.00  0.00    +0.000 A 
ATOM     11  C   UNL     1      -0.319   8.593  21.506  0.00  0.00    +0.000 C 
BRANCH   7  12
ATOM     12  C   UNL     1       1.320  13.062  19.578  0.00  0.00    +0.000 A 
ATOM     13  C   UNL     1       2.498  12.984  18.828  0.00  0.00    +0.000 A 
ATOM     14  C   UNL     1       2.976  14.106  18.141  0.00  0.00    +0.000 A 
ATOM     15  C   UNL     1       2.277  15.310  18.184  0.00  0.00    +0.000 A 
ATOM     16  C   UNL     1       1.096  15.399  18.909  0.00  0.00    +0.000 A 
ATOM     17  C   UNL     1       0.618  14.282  19.596  0.00  0.00    +0.000 A 
ENDBRANCH   7  12
ENDBRANCH   3   6
ENDBRANCH   1   2
BRANCH   1  18
ATOM     18  C   UNL     1       2.955   8.032  17.651  0.00  0.00    +0.000 C 
BRANCH  18  22
ATOM     19  C   UNL     1       3.058   4.890  19.515  0.00  0.00    +0.000 A 
ATOM     20  N   UNL     1       2.091   5.529  20.133  0.00  0.00    +0.000 NA
ATOM     21  N   UNL     1       1.981   6.773  19.582  0.00  0.00    +0.000 NA
ATOM     22  C   UNL     1       2.874   6.887  18.617  0.00  0.00    +0.000 A 
ATOM     23  N   UNL     1       3.610   5.696  18.524  0.00  0.00    +0.000 N 
BRANCH  23  24
ATOM     24  C   UNL     1       4.636   5.394  17.572  0.00  0.00    +0.000 A 
ATOM     25  C   UNL     1       5.893   6.013  17.665  0.00  0.00    +0.000 A 
ATOM     26  C   UNL     1       6.858   5.829  16.674  0.00  0.00    +0.000 A 
ATOM     27  C   UNL     1       6.591   4.982  15.611  0.00  0.00    +0.000 A 
ATOM     28  F   UNL     1       7.514   4.812  14.656  0.00  0.00    +0.000 F 
ATOM     29  C   UNL     1       5.382   4.306  15.529  0.00  0.00    +0.000 A 
ATOM     30  C   UNL     1       4.398   4.519  16.501  0.00  0.00    +0.000 A 
ENDBRANCH  23  24
BRANCH  19  32
ATOM     31  C   UNL     1       2.527   2.863  21.312  0.00  0.00    +0.000 C 
ATOM     32  S   UNL     1       3.689   3.349  20.019  0.00  0.00    +0.000 S 
ENDBRANCH  19  32
ENDBRANCH  18  22
ENDBRANCH   1  18
TORSDOF 7
ENDMDL
MODEL 5
REMARK VINA RESULT:      -8.0      2.266      3.650
REMARK  Name = 
REMARK  9 active torsions:
REMARK  status: ('A' for Active; 'I' for Inactive)
REMARK    1  A    between atoms: C_1  and  S_2
REMARK    2  A    between atoms: S_2  and  C_3
REMARK    3  A    between atoms: C_6  and  C_7
REMARK    4  A    between atoms: C_7  and  C_8
REMARK    5  A    between atoms: C_8  and  N_9
REMARK    6  A    between atoms: C_10  and  C_12
REMARK    7  A    between atoms: C_13  and  C_14
REMARK    8  A    between atoms: C_22  and  C_23
REMARK    9  A    between atoms: N_24  and  C_25
REMARK                            x       y       z     vdW  Elec       q    Type
REMARK                         _______ _______ _______ _____ _____    ______ ____
ROOT
ATOM      1  C   UNL     1       2.386   9.020  18.338  0.00  0.00    +0.000 C 
ENDROOT
BRANCH   1   2
ATOM      2  N   UNL     1       1.011   9.311  17.955  0.00  0.00    +0.000 N 
ATOM      3  C   UNL     1       0.063  10.101  18.568  0.00  0.00    +0.000 C 
ATOM      4  O   UNL     1      -0.976  10.323  17.950  0.00  0.00    +0.000 OA
ATOM      5  H   UNL     1       0.728   9.048  17.016  0.00  0.00    +0.000 HD
BRANCH   3   6
ATOM      6  C   UNL     1       0.250  10.528  19.939  0.00  0.00    +0.000 A 
ATOM      7  C   UNL     1       0.749  11.804  20.384  0.00  0.00    +0.000 A 
ATOM      8  N   UNL     1       0.738  11.855  21.725  0.00  0.00    +0.000 NA
ATOM      9  O   UNL     1       0.339  10.629  22.170  0.00  0.00    +0.000 OA
ATOM     10  C   UNL     1       0.091   9.809  21.116  0.00  0.00    +0.000 A 
ATOM     11  C   UNL     1      -0.226   8.420  21.513  0.00  0.00    +0.000 C 
BRANCH   7  12
ATOM     12  C   UNL     1       1.249  12.968  19.639  0.00  0.00    +0.000 A 
ATOM     13  C   UNL     1       0.600  14.207  19.641  0.00  0.00    +0.000 A 
ATOM     14  C   UNL     1       1.110  15.275  18.893  0.00  0.00    +0.000 A 
ATOM     15  C   UNL     1       2.279  15.122  18.150  0.00  0.00    +0.000 A 
ATOM     16  C   UNL     1       2.945  13.904  18.153  0.00  0.00    +0.000 A 
ATOM     17  C   UNL     1       2.437  12.837  18.896  0.00  0.00    +0.000 A 
ENDBRANCH   7  12
ENDBRANCH   3   6
ENDBRANCH   1   2
BRANCH   1  18
ATOM     18  C   UNL     1       2.960   7.753  17.700  0.00  0.00    +0.000 C 
BRANCH  18  22
ATOM     19  C   UNL     1       3.313   4.525  19.377  0.00  0.00    +0.000 A 
ATOM     20  N   UNL     1       2.328   5.066  20.056  0.00  0.00    +0.000 NA
ATOM     21  N   UNL     1       2.124   6.330  19.580  0.00  0.00    +0.000 NA
ATOM     22  C   UNL     1       2.979   6.553  18.600  0.00  0.00    +0.000 A 
ATOM     23  N   UNL     1       3.783   5.418  18.419  0.00  0.00    +0.000 N 
BRANCH  23  24
ATOM     24  C   UNL     1       4.797   5.235  17.425  0.00  0.00    +0.000 A 
ATOM     25  C   UNL     1       6.053   5.844  17.573  0.00  0.00    +0.000 A 
ATOM     26  C   UNL     1       7.004   5.783  16.553  0.00  0.00    +0.000 A 
ATOM     27  C   UNL     1       6.725   5.065  15.402  0.00  0.00    +0.000 A 
ATOM     28  F   UNL     1       7.635   5.012  14.421  0.00  0.00    +0.000 F 
ATOM     29  C   UNL     1       5.517   4.398  15.258  0.00  0.00    +0.000 A 
ATOM     30  C   UNL     1       4.546   4.490  16.262  0.00  0.00    +0.000 A 
ENDBRANCH  23  24
BRANCH  19  32
ATOM     31  C   UNL     1       3.257   1.874  18.612  0.00  0.00    +0.000 C 
ATOM     32  S   UNL     1       4.053   3.002  19.775  0.00  0.00    +0.000 S 
ENDBRANCH  19  32
ENDBRANCH  18  22
ENDBRANCH   1  18
TORSDOF 7
ENDMDL
MODEL 6
REMARK VINA RESULT:      -7.9      4.091      8.478
REMARK  Name = 
REMARK  9 active torsions:
REMARK  status: ('A' for Active; 'I' for Inactive)
REMARK    1  A    between atoms: C_1  and  S_2
REMARK    2  A    between atoms: S_2  and  C_3
REMARK    3  A    between atoms: C_6  and  C_7
REMARK    4  A    between atoms: C_7  and  C_8
REMARK    5  A    between atoms: C_8  and  N_9
REMARK    6  A    between atoms: C_10  and  C_12
REMARK    7  A    between atoms: C_13  and  C_14
REMARK    8  A    between atoms: C_22  and  C_23
REMARK    9  A    between atoms: N_24  and  C_25
REMARK                            x       y       z     vdW  Elec       q    Type
REMARK                         _______ _______ _______ _____ _____    ______ ____
ROOT
ATOM      1  C   UNL     1       2.739   7.546  18.637  0.00  0.00    +0.000 C 
ENDROOT
BRANCH   1   2
ATOM      2  N   UNL     1       3.482   7.410  17.390  0.00  0.00    +0.000 N 
ATOM      3  C   UNL     1       4.518   6.565  17.059  0.00  0.00    +0.000 C 
ATOM      4  O   UNL     1       4.862   6.525  15.879  0.00  0.00    +0.000 OA
ATOM      5  H   UNL     1       3.097   7.869  16.571  0.00  0.00    +0.000 HD
BRANCH   3   6
ATOM      6  C   UNL     1       5.245   5.864  18.096  0.00  0.00    +0.000 A 
ATOM      7  C   UNL     1       4.717   4.874  19.000  0.00  0.00    +0.000 A 
ATOM      8  N   UNL     1       5.698   4.411  19.792  0.00  0.00    +0.000 NA
ATOM      9  O   UNL     1       6.820   5.129  19.501  0.00  0.00    +0.000 OA
ATOM     10  C   UNL     1       6.555   6.035  18.525  0.00  0.00    +0.000 A 
ATOM     11  C   UNL     1       7.688   6.941  18.239  0.00  0.00    +0.000 C 
BRANCH   7  12
ATOM     12  C   UNL     1       3.357   4.347  19.181  0.00  0.00    +0.000 A 
ATOM     13  C   UNL     1       2.632   3.745  18.147  0.00  0.00    +0.000 A 
ATOM     14  C   UNL     1       1.331   3.281  18.371  0.00  0.00    +0.000 A 
ATOM     15  C   UNL     1       0.746   3.401  19.630  0.00  0.00    +0.000 A 
ATOM     16  C   UNL     1       1.459   3.979  20.672  0.00  0.00    +0.000 A 
ATOM     17  C   UNL     1       2.757   4.443  20.450  0.00  0.00    +0.000 A 
ENDBRANCH   7  12
ENDBRANCH   3   6
ENDBRANCH   1   2
BRANCH   1  18
ATOM     18  C   UNL     1       1.764   8.725  18.658  0.00  0.00    +0.000 C 
BRANCH  18  22
ATOM     19  C   UNL     1       0.199  10.110  21.657  0.00  0.00    +0.000 A 
ATOM     20  N   UNL     1       1.242   9.495  22.166  0.00  0.00    +0.000 NA
ATOM     21  N   UNL     1       1.900   8.858  21.153  0.00  0.00    +0.000 NA
ATOM     22  C   UNL     1       1.262   9.097  20.023  0.00  0.00    +0.000 A 
ATOM     23  N   UNL     1       0.144   9.905  20.282  0.00  0.00    +0.000 N 
BRANCH  23  24
ATOM     24  C   UNL     1      -0.777  10.429  19.320  0.00  0.00    +0.000 A 
ATOM     25  C   UNL     1      -1.805   9.621  18.809  0.00  0.00    +0.000 A 
ATOM     26  C   UNL     1      -2.628  10.076  17.777  0.00  0.00    +0.000 A 
ATOM     27  C   UNL     1      -2.463  11.361  17.288  0.00  0.00    +0.000 A 
ATOM     28  F   UNL     1      -3.248  11.794  16.294  0.00  0.00    +0.000 F 
ATOM     29  C   UNL     1      -1.498  12.203  17.821  0.00  0.00    +0.000 A 
ATOM     30  C   UNL     1      -0.645  11.737  18.828  0.00  0.00    +0.000 A 
ENDBRANCH  23  24
BRANCH  19  32
ATOM     31  C   UNL     1      -0.664  12.631  22.380  0.00  0.00    +0.000 C 
ATOM     32  S   UNL     1      -1.040  10.879  22.605  0.00  0.00    +0.000 S 
ENDBRANCH  19  32
ENDBRANCH  18  22
ENDBRANCH   1  18
TORSDOF 7
ENDMDL
MODEL 7
REMARK VINA RESULT:      -7.8      4.114      8.263
REMARK  Name = 
REMARK  9 active torsions:
REMARK  status: ('A' for Active; 'I' for Inactive)
REMARK    1  A    between atoms: C_1  and  S_2
REMARK    2  A    between atoms: S_2  and  C_3
REMARK    3  A    between atoms: C_6  and  C_7
REMARK    4  A    between atoms: C_7  and  C_8
REMARK    5  A    between atoms: C_8  and  N_9
REMARK    6  A    between atoms: C_10  and  C_12
REMARK    7  A    between atoms: C_13  and  C_14
REMARK    8  A    between atoms: C_22  and  C_23
REMARK    9  A    between atoms: N_24  and  C_25
REMARK                            x       y       z     vdW  Elec       q    Type
REMARK                         _______ _______ _______ _____ _____    ______ ____
ROOT
ATOM      1  C   UNL     1       2.645   7.428  18.980  0.00  0.00    +0.000 C 
ENDROOT
BRANCH   1   2
ATOM      2  N   UNL     1       2.457   6.512  20.098  0.00  0.00    +0.000 N 
ATOM      3  C   UNL     1       2.696   5.158  20.190  0.00  0.00    +0.000 C 
ATOM      4  O   UNL     1       2.618   4.643  21.304  0.00  0.00    +0.000 OA
ATOM      5  H   UNL     1       2.286   6.925  21.009  0.00  0.00    +0.000 HD
BRANCH   3   6
ATOM      6  C   UNL     1       2.898   4.372  18.991  0.00  0.00    +0.000 A 
ATOM      7  C   UNL     1       4.045   4.409  18.120  0.00  0.00    +0.000 A 
ATOM      8  N   UNL     1       3.899   3.506  17.136  0.00  0.00    +0.000 NA
ATOM      9  O   UNL     1       2.661   2.952  17.282  0.00  0.00    +0.000 OA
ATOM     10  C   UNL     1       2.031   3.493  18.356  0.00  0.00    +0.000 A 
ATOM     11  C   UNL     1       0.633   3.036  18.510  0.00  0.00    +0.000 C 
BRANCH   7  12
ATOM     12  C   UNL     1       5.256   5.241  18.137  0.00  0.00    +0.000 A 
ATOM     13  C   UNL     1       5.500   6.246  17.195  0.00  0.00    +0.000 A 
ATOM     14  C   UNL     1       6.682   6.993  17.246  0.00  0.00    +0.000 A 
ATOM     15  C   UNL     1       7.624   6.756  18.245  0.00  0.00    +0.000 A 
ATOM     16  C   UNL     1       7.388   5.775  19.199  0.00  0.00    +0.000 A 
ATOM     17  C   UNL     1       6.210   5.027  19.149  0.00  0.00    +0.000 A 
ENDBRANCH   7  12
ENDBRANCH   3   6
ENDBRANCH   1   2
BRANCH   1  18
ATOM     18  C   UNL     1       1.542   8.479  18.839  0.00  0.00    +0.000 C 
BRANCH  18  22
ATOM     19  C   UNL     1       0.094  10.376  21.607  0.00  0.00    +0.000 A 
ATOM     20  N   UNL     1       1.090   9.762  22.203  0.00  0.00    +0.000 NA
ATOM     21  N   UNL     1       1.695   8.944  21.292  0.00  0.00    +0.000 NA
ATOM     22  C   UNL     1       1.073   9.071  20.135  0.00  0.00    +0.000 A 
ATOM     23  N   UNL     1       0.019   9.988  20.273  0.00  0.00    +0.000 N 
BRANCH  23  24
ATOM     24  C   UNL     1      -0.863  10.441  19.241  0.00  0.00    +0.000 A 
ATOM     25  C   UNL     1      -1.872   9.597  18.749  0.00  0.00    +0.000 A 
ATOM     26  C   UNL     1      -2.654   9.976  17.657  0.00  0.00    +0.000 A 
ATOM     27  C   UNL     1      -2.468  11.223  17.084  0.00  0.00    +0.000 A 
ATOM     28  F   UNL     1      -3.213  11.583  16.032  0.00  0.00    +0.000 F 
ATOM     29  C   UNL     1      -1.523  12.103  17.592  0.00  0.00    +0.000 A 
ATOM     30  C   UNL     1      -0.710  11.711  18.662  0.00  0.00    +0.000 A 
ENDBRANCH  23  24
BRANCH  19  32
ATOM     31  C   UNL     1      -0.442  13.026  22.166  0.00  0.00    +0.000 C 
ATOM     32  S   UNL     1      -1.082  11.359  22.431  0.00  0.00    +0.000 S 
ENDBRANCH  19  32
ENDBRANCH  18  22
ENDBRANCH   1  18
TORSDOF 7
ENDMDL
MODEL 8
REMARK VINA RESULT:      -7.8      4.116      8.585
REMARK  Name = 
REMARK  9 active torsions:
REMARK  status: ('A' for Active; 'I' for Inactive)
REMARK    1  A    between atoms: C_1  and  S_2
REMARK    2  A    between atoms: S_2  and  C_3
REMARK    3  A    between atoms: C_6  and  C_7
REMARK    4  A    between atoms: C_7  and  C_8
REMARK    5  A    between atoms: C_8  and  N_9
REMARK    6  A    between atoms: C_10  and  C_12
REMARK    7  A    between atoms: C_13  and  C_14
REMARK    8  A    between atoms: C_22  and  C_23
REMARK    9  A    between atoms: N_24  and  C_25
REMARK                            x       y       z     vdW  Elec       q    Type
REMARK                         _______ _______ _______ _____ _____    ______ ____
ROOT
ATOM      1  C   UNL     1       2.824   7.528  18.666  0.00  0.00    +0.000 C 
ENDROOT
BRANCH   1   2
ATOM      2  N   UNL     1       3.528   7.327  17.406  0.00  0.00    +0.000 N 
ATOM      3  C   UNL     1       4.529   6.440  17.076  0.00  0.00    +0.000 C 
ATOM      4  O   UNL     1       4.839   6.349  15.890  0.00  0.00    +0.000 OA
ATOM      5  H   UNL     1       3.135   7.771  16.582  0.00  0.00    +0.000 HD
BRANCH   3   6
ATOM      6  C   UNL     1       5.262   5.752  18.118  0.00  0.00    +0.000 A 
ATOM      7  C   UNL     1       4.741   4.769  19.034  0.00  0.00    +0.000 A 
ATOM      8  N   UNL     1       5.727   4.318  19.827  0.00  0.00    +0.000 NA
ATOM      9  O   UNL     1       6.845   5.036  19.524  0.00  0.00    +0.000 OA
ATOM     10  C   UNL     1       6.573   5.931  18.540  0.00  0.00    +0.000 A 
ATOM     11  C   UNL     1       7.703   6.838  18.240  0.00  0.00    +0.000 C 
BRANCH   7  12
ATOM     12  C   UNL     1       3.384   4.239  19.226  0.00  0.00    +0.000 A 
ATOM     13  C   UNL     1       2.653   4.433  20.404  0.00  0.00    +0.000 A 
ATOM     14  C   UNL     1       1.373   3.885  20.540  0.00  0.00    +0.000 A 
ATOM     15  C   UNL     1       0.803   3.154  19.500  0.00  0.00    +0.000 A 
ATOM     16  C   UNL     1       1.508   2.969  18.318  0.00  0.00    +0.000 A 
ATOM     17  C   UNL     1       2.786   3.513  18.180  0.00  0.00    +0.000 A 
ENDBRANCH   7  12
ENDBRANCH   3   6
ENDBRANCH   1   2
BRANCH   1  18
ATOM     18  C   UNL     1       1.758   8.625  18.619  0.00  0.00    +0.000 C 
BRANCH  18  22
ATOM     19  C   UNL     1       0.186  10.157  21.541  0.00  0.00    +0.000 A 
ATOM     20  N   UNL     1       1.224   9.564  22.084  0.00  0.00    +0.000 NA
ATOM     21  N   UNL     1       1.884   8.876  21.105  0.00  0.00    +0.000 NA
ATOM     22  C   UNL     1       1.251   9.063  19.962  0.00  0.00    +0.000 A 
ATOM     23  N   UNL     1       0.135   9.886  20.177  0.00  0.00    +0.000 N 
BRANCH  23  24
ATOM     24  C   UNL     1      -0.780  10.367  19.187  0.00  0.00    +0.000 A 
ATOM     25  C   UNL     1      -0.701  11.693  18.733  0.00  0.00    +0.000 A 
ATOM     26  C   UNL     1      -1.664  12.213  17.868  0.00  0.00    +0.000 A 
ATOM     27  C   UNL     1      -2.681  11.394  17.407  0.00  0.00    +0.000 A 
ATOM     28  F   UNL     1      -3.609  11.896  16.583  0.00  0.00    +0.000 F 
ATOM     29  C   UNL     1      -2.745  10.061  17.788  0.00  0.00    +0.000 A 
ATOM     30  C   UNL     1      -1.804   9.547  18.687  0.00  0.00    +0.000 A 
ENDBRANCH  23  24
BRANCH  19  32
ATOM     31  C   UNL     1      -0.589  12.708  22.257  0.00  0.00    +0.000 C 
ATOM     32  S   UNL     1      -1.055  10.974  22.446  0.00  0.00    +0.000 S 
ENDBRANCH  19  32
ENDBRANCH  18  22
ENDBRANCH   1  18
TORSDOF 7
ENDMDL
MODEL 9
REMARK VINA RESULT:      -7.8      2.265      3.430
REMARK  Name = 
REMARK  9 active torsions:
REMARK  status: ('A' for Active; 'I' for Inactive)
REMARK    1  A    between atoms: C_1  and  S_2
REMARK    2  A    between atoms: S_2  and  C_3
REMARK    3  A    between atoms: C_6  and  C_7
REMARK    4  A    between atoms: C_7  and  C_8
REMARK    5  A    between atoms: C_8  and  N_9
REMARK    6  A    between atoms: C_10  and  C_12
REMARK    7  A    between atoms: C_13  and  C_14
REMARK    8  A    between atoms: C_22  and  C_23
REMARK    9  A    between atoms: N_24  and  C_25
REMARK                            x       y       z     vdW  Elec       q    Type
REMARK                         _______ _______ _______ _____ _____    ______ ____
ROOT
ATOM      1  C   UNL     1       2.164   8.798  18.776  0.00  0.00    +0.000 C 
ENDROOT
BRANCH   1   2
ATOM      2  N   UNL     1       0.910   9.295  18.224  0.00  0.00    +0.000 N 
ATOM      3  C   UNL     1       0.061  10.277  18.686  0.00  0.00    +0.000 C 
ATOM      4  O   UNL     1      -0.851  10.633  17.943  0.00  0.00    +0.000 OA
ATOM      5  H   UNL     1       0.683   9.021  17.274  0.00  0.00    +0.000 HD
BRANCH   3   6
ATOM      6  C   UNL     1       0.179  10.759  20.046  0.00  0.00    +0.000 A 
ATOM      7  C   UNL     1       0.678  12.045  20.465  0.00  0.00    +0.000 A 
ATOM      8  N   UNL     1       0.592  12.153  21.801  0.00  0.00    +0.000 NA
ATOM      9  O   UNL     1       0.145  10.954  22.272  0.00  0.00    +0.000 OA
ATOM     10  C   UNL     1      -0.060  10.095  21.241  0.00  0.00    +0.000 A 
ATOM     11  C   UNL     1      -0.426   8.729  21.678  0.00  0.00    +0.000 C 
BRANCH   7  12
ATOM     12  C   UNL     1       1.243  13.166  19.702  0.00  0.00    +0.000 A 
ATOM     13  C   UNL     1       2.398  13.047  18.920  0.00  0.00    +0.000 A 
ATOM     14  C   UNL     1       2.905  14.155  18.232  0.00  0.00    +0.000 A 
ATOM     15  C   UNL     1       2.258  15.388  18.305  0.00  0.00    +0.000 A 
ATOM     16  C   UNL     1       1.101  15.517  19.061  0.00  0.00    +0.000 A 
ATOM     17  C   UNL     1       0.594  14.413  19.750  0.00  0.00    +0.000 A 
ENDBRANCH   7  12
ENDBRANCH   3   6
ENDBRANCH   1   2
BRANCH   1  18
ATOM     18  C   UNL     1       2.755   7.608  18.015  0.00  0.00    +0.000 C 
BRANCH  18  22
ATOM     19  C   UNL     1       3.435   4.319  19.456  0.00  0.00    +0.000 A 
ATOM     20  N   UNL     1       2.442   4.734  20.208  0.00  0.00    +0.000 NA
ATOM     21  N   UNL     1       2.118   6.005  19.827  0.00  0.00    +0.000 NA
ATOM     22  C   UNL     1       2.908   6.358  18.831  0.00  0.00    +0.000 A 
ATOM     23  N   UNL     1       3.790   5.306  18.542  0.00  0.00    +0.000 N 
BRANCH  23  24
ATOM     24  C   UNL     1       4.769   5.270  17.498  0.00  0.00    +0.000 A 
ATOM     25  C   UNL     1       4.470   4.665  16.267  0.00  0.00    +0.000 A 
ATOM     26  C   UNL     1       5.454   4.506  15.289  0.00  0.00    +0.000 A 
ATOM     27  C   UNL     1       6.727   5.001  15.515  0.00  0.00    +0.000 A 
ATOM     28  F   UNL     1       7.672   4.842  14.580  0.00  0.00    +0.000 F 
ATOM     29  C   UNL     1       7.032   5.661  16.697  0.00  0.00    +0.000 A 
ATOM     30  C   UNL     1       6.059   5.787  17.695  0.00  0.00    +0.000 A 
ENDBRANCH  23  24
BRANCH  19  32
ATOM     31  C   UNL     1       3.497   1.704  18.573  0.00  0.00    +0.000 C 
ATOM     32  S   UNL     1       4.308   2.838  19.720  0.00  0.00    +0.000 S 
ENDBRANCH  19  32
ENDBRANCH  18  22
ENDBRANCH   1  18
TORSDOF 7
ENDMDL
