MODEL 1
REMARK VINA RESULT:      -7.2      0.000      0.000
REMARK  Name = 
REMARK  5 active torsions:
REMARK  status: ('A' for Active; 'I' for Inactive)
REMARK    1  A    between atoms: N_1  and  C_2
REMARK    2  A    between atoms: C_5  and  O_6
REMARK    3  A    between atoms: C_7  and  N_8
REMARK    4  A    between atoms: C_9  and  C_11
REMARK    5  A    between atoms: C_11  and  C_12
REMARK                            x       y       z     vdW  Elec       q    Type
REMARK                         _______ _______ _______ _____ _____    ______ ____
ROOT
ATOM      1  C   UNL     1       7.672   5.848  19.376  0.00  0.00    +0.000 A 
ATOM      2  C   UNL     1       8.199   6.736  18.431  0.00  0.00    +0.000 A 
ATOM      3  C   UNL     1       7.433   7.168  17.344  0.00  0.00    +0.000 A 
ATOM      4  C   UNL     1       6.143   6.677  17.187  0.00  0.00    +0.000 A 
ATOM      5  C   UNL     1       5.595   5.797  18.122  0.00  0.00    +0.000 A 
ATOM      6  C   UNL     1       6.373   5.357  19.194  0.00  0.00    +0.000 A 
ENDROOT
BRANCH   5   7
ATOM      7  N   UNL     1       4.262   5.373  17.916  0.00  0.00    +0.000 N 
ATOM      8  C   UNL     1       3.171   6.217  18.010  0.00  0.00    +0.000 C 
ATOM      9  O   UNL     1       3.227   7.425  18.244  0.00  0.00    +0.000 OA
ATOM     10  H   UNL     1       4.168   4.586  17.278  0.00  0.00    +0.000 HD
BRANCH   8  11
ATOM     11  C   UNL     1       1.842   5.516  17.799  0.00  0.00    +0.000 C 
BRANCH  11  12
ATOM     12  C   UNL     1       1.559   4.365  18.734  0.00  0.00    +0.000 A 
ATOM     13  C   UNL     1       1.516   3.050  18.244  0.00  0.00    +0.000 A 
ATOM     14  C   UNL     1       1.346   1.968  19.111  0.00  0.00    +0.000 A 
ATOM     15  C   UNL     1       1.220   2.179  20.483  0.00  0.00    +0.000 A 
ATOM     16  C   UNL     1       1.261   3.483  20.981  0.00  0.00    +0.000 A 
ATOM     17  C   UNL     1       1.430   4.567  20.116  0.00  0.00    +0.000 A 
ENDBRANCH  11  12
ENDBRANCH   8  11
ENDBRANCH   5   7
BRANCH   1  18
ATOM     18  N   UNL     1       8.512   5.284  20.346  0.00  0.00    +0.000 N 
ATOM     19  H   UNL     1       9.029   4.473  20.023  0.00  0.00    +0.000 HD
ATOM     20  H   UNL     1       9.109   5.961  20.812  0.00  0.00    +0.000 HD
ENDBRANCH   1  18
BRANCH   4  21
ATOM     21  O   UNL     1       5.362   7.072  16.131  0.00  0.00    +0.000 OA
ATOM     22  H   UNL     1       5.288   8.039  16.156  0.00  0.00    +0.000 HD
ENDBRANCH   4  21
TORSDOF 5
ENDMDL
MODEL 2
REMARK VINA RESULT:      -7.0      1.152      1.474
REMARK  Name = 
REMARK  5 active torsions:
REMARK  status: ('A' for Active; 'I' for Inactive)
REMARK    1  A    between atoms: N_1  and  C_2
REMARK    2  A    between atoms: C_5  and  O_6
REMARK    3  A    between atoms: C_7  and  N_8
REMARK    4  A    between atoms: C_9  and  C_11
REMARK    5  A    between atoms: C_11  and  C_12
REMARK                            x       y       z     vdW  Elec       q    Type
REMARK                         _______ _______ _______ _____ _____    ______ ____
ROOT
ATOM      1  C   UNL     1       7.763   5.837  19.421  0.00  0.00    +0.000 A 
ATOM      2  C   UNL     1       8.170   6.820  18.511  0.00  0.00    +0.000 A 
ATOM      3  C   UNL     1       7.341   7.214  17.458  0.00  0.00    +0.000 A 
ATOM      4  C   UNL     1       6.109   6.592  17.296  0.00  0.00    +0.000 A 
ATOM      5  C   UNL     1       5.679   5.613  18.195  0.00  0.00    +0.000 A 
ATOM      6  C   UNL     1       6.522   5.214  19.234  0.00  0.00    +0.000 A 
ENDROOT
BRANCH   5   7
ATOM      7  N   UNL     1       4.398   5.055  17.989  0.00  0.00    +0.000 N 
ATOM      8  C   UNL     1       4.111   4.157  16.978  0.00  0.00    +0.000 C 
ATOM      9  O   UNL     1       4.929   3.714  16.171  0.00  0.00    +0.000 OA
ATOM     10  H   UNL     1       3.837   4.975  18.834  0.00  0.00    +0.000 HD
BRANCH   8  11
ATOM     11  C   UNL     1       2.652   3.743  16.929  0.00  0.00    +0.000 C 
BRANCH  11  12
ATOM     12  C   UNL     1       2.012   3.462  18.267  0.00  0.00    +0.000 A 
ATOM     13  C   UNL     1       2.112   2.186  18.845  0.00  0.00    +0.000 A 
ATOM     14  C   UNL     1       1.603   1.938  20.123  0.00  0.00    +0.000 A 
ATOM     15  C   UNL     1       0.990   2.958  20.846  0.00  0.00    +0.000 A 
ATOM     16  C   UNL     1       0.884   4.231  20.281  0.00  0.00    +0.000 A 
ATOM     17  C   UNL     1       1.391   4.482  19.003  0.00  0.00    +0.000 A 
ENDBRANCH  11  12
ENDBRANCH   8  11
ENDBRANCH   5   7
BRANCH   1  18
ATOM     18  N   UNL     1       8.678   5.326  20.350  0.00  0.00    +0.000 N 
ATOM     19  H   UNL     1       9.592   5.118  19.959  0.00  0.00    +0.000 HD
ATOM     20  H   UNL     1       8.741   5.872  21.204  0.00  0.00    +0.000 HD
ENDBRANCH   1  18
BRANCH   4  21
ATOM     21  O   UNL     1       5.270   6.945  16.272  0.00  0.00    +0.000 OA
ATOM     22  H   UNL     1       5.704   7.639  15.751  0.00  0.00    +0.000 HD
ENDBRANCH   4  21
TORSDOF 5
ENDMDL
MODEL 3
REMARK VINA RESULT:      -6.9      0.171      1.144
REMARK  Name = 
REMARK  5 active torsions:
REMARK  status: ('A' for Active; 'I' for Inactive)
REMARK    1  A    between atoms: N_1  and  C_2
REMARK    2  A    between atoms: C_5  and  O_6
REMARK    3  A    between atoms: C_7  and  N_8
REMARK    4  A    between atoms: C_9  and  C_11
REMARK    5  A    between atoms: C_11  and  C_12
REMARK                            x       y       z     vdW  Elec       q    Type
REMARK                         _______ _______ _______ _____ _____    ______ ____
ROOT
ATOM      1  C   UNL     1       7.676   5.850  19.373  0.00  0.00    +0.000 A 
ATOM      2  C   UNL     1       8.228   6.696  18.403  0.00  0.00    +0.000 A 
ATOM      3  C   UNL     1       7.472   7.128  17.311  0.00  0.00    +0.000 A 
ATOM      4  C   UNL     1       6.164   6.680  17.172  0.00  0.00    +0.000 A 
ATOM      5  C   UNL     1       5.591   5.842  18.130  0.00  0.00    +0.000 A 
ATOM      6  C   UNL     1       6.360   5.401  19.209  0.00  0.00    +0.000 A 
ENDROOT
BRANCH   5   7
ATOM      7  N   UNL     1       4.243   5.461  17.941  0.00  0.00    +0.000 N 
ATOM      8  C   UNL     1       3.182   6.341  18.033  0.00  0.00    +0.000 C 
ATOM      9  O   UNL     1       3.281   7.550  18.249  0.00  0.00    +0.000 OA
ATOM     10  H   UNL     1       4.118   4.668  17.316  0.00  0.00    +0.000 HD
BRANCH   8  11
ATOM     11  C   UNL     1       1.828   5.683  17.843  0.00  0.00    +0.000 C 
BRANCH  11  12
ATOM     12  C   UNL     1       1.584   4.448  18.676  0.00  0.00    +0.000 A 
ATOM     13  C   UNL     1       1.489   4.545  20.073  0.00  0.00    +0.000 A 
ATOM     14  C   UNL     1       1.173   3.425  20.848  0.00  0.00    +0.000 A 
ATOM     15  C   UNL     1       0.942   2.192  20.242  0.00  0.00    +0.000 A 
ATOM     16  C   UNL     1       1.034   2.085  18.852  0.00  0.00    +0.000 A 
ATOM     17  C   UNL     1       1.351   3.201  18.075  0.00  0.00    +0.000 A 
ENDBRANCH  11  12
ENDBRANCH   8  11
ENDBRANCH   5   7
BRANCH   1  18
ATOM     18  N   UNL     1       8.501   5.281  20.352  0.00  0.00    +0.000 N 
ATOM     19  H   UNL     1       8.094   4.476  20.818  0.00  0.00    +0.000 HD
ATOM     20  H   UNL     1       9.449   5.101  20.033  0.00  0.00    +0.000 HD
ENDBRANCH   1  18
BRANCH   4  21
ATOM     21  O   UNL     1       5.392   7.076  16.111  0.00  0.00    +0.000 OA
ATOM     22  H   UNL     1       4.470   7.121  16.410  0.00  0.00    +0.000 HD
ENDBRANCH   4  21
TORSDOF 5
ENDMDL
MODEL 4
REMARK VINA RESULT:      -6.9      2.052      2.601
REMARK  Name = 
REMARK  5 active torsions:
REMARK  status: ('A' for Active; 'I' for Inactive)
REMARK    1  A    between atoms: N_1  and  C_2
REMARK    2  A    between atoms: C_5  and  O_6
REMARK    3  A    between atoms: C_7  and  N_8
REMARK    4  A    between atoms: C_9  and  C_11
REMARK    5  A    between atoms: C_11  and  C_12
REMARK                            x       y       z     vdW  Elec       q    Type
REMARK                         _______ _______ _______ _____ _____    ______ ____
ROOT
ATOM      1  C   UNL     1       6.815   4.907  15.318  0.00  0.00    +0.000 A 
ATOM      2  C   UNL     1       7.829   4.736  16.268  0.00  0.00    +0.000 A 
ATOM      3  C   UNL     1       7.526   4.592  17.625  0.00  0.00    +0.000 A 
ATOM      4  C   UNL     1       6.199   4.656  18.034  0.00  0.00    +0.000 A 
ATOM      5  C   UNL     1       5.172   4.819  17.102  0.00  0.00    +0.000 A 
ATOM      6  C   UNL     1       5.485   4.980  15.751  0.00  0.00    +0.000 A 
ENDROOT
BRANCH   5   7
ATOM      7  N   UNL     1       3.846   4.834  17.590  0.00  0.00    +0.000 N 
ATOM      8  C   UNL     1       3.170   5.992  17.926  0.00  0.00    +0.000 C 
ATOM      9  O   UNL     1       3.618   7.133  17.811  0.00  0.00    +0.000 OA
ATOM     10  H   UNL     1       3.274   4.057  17.266  0.00  0.00    +0.000 HD
BRANCH   8  11
ATOM     11  C   UNL     1       1.777   5.744  18.476  0.00  0.00    +0.000 C 
BRANCH  11  12
ATOM     12  C   UNL     1       1.676   4.666  19.528  0.00  0.00    +0.000 A 
ATOM     13  C   UNL     1       1.044   3.447  19.233  0.00  0.00    +0.000 A 
ATOM     14  C   UNL     1       1.024   2.407  20.167  0.00  0.00    +0.000 A 
ATOM     15  C   UNL     1       1.637   2.565  21.408  0.00  0.00    +0.000 A 
ATOM     16  C   UNL     1       2.269   3.773  21.712  0.00  0.00    +0.000 A 
ATOM     17  C   UNL     1       2.290   4.815  20.781  0.00  0.00    +0.000 A 
ENDBRANCH  11  12
ENDBRANCH   8  11
ENDBRANCH   5   7
BRANCH   1  18
ATOM     18  N   UNL     1       7.147   5.237  13.997  0.00  0.00    +0.000 N 
ATOM     19  H   UNL     1       7.806   4.596  13.565  0.00  0.00    +0.000 HD
ATOM     20  H   UNL     1       6.341   5.416  13.406  0.00  0.00    +0.000 HD
ENDBRANCH   1  18
BRANCH   4  21
ATOM     21  O   UNL     1       5.862   4.526  19.356  0.00  0.00    +0.000 OA
ATOM     22  H   UNL     1       5.086   3.946  19.413  0.00  0.00    +0.000 HD
ENDBRANCH   4  21
TORSDOF 5
ENDMDL
MODEL 5
REMARK VINA RESULT:      -6.9      2.107      2.868
REMARK  Name = 
REMARK  5 active torsions:
REMARK  status: ('A' for Active; 'I' for Inactive)
REMARK    1  A    between atoms: N_1  and  C_2
REMARK    2  A    between atoms: C_5  and  O_6
REMARK    3  A    between atoms: C_7  and  N_8
REMARK    4  A    between atoms: C_9  and  C_11
REMARK    5  A    between atoms: C_11  and  C_12
REMARK                            x       y       z     vdW  Elec       q    Type
REMARK                         _______ _______ _______ _____ _____    ______ ____
ROOT
ATOM      1  C   UNL     1       6.722   4.877  15.115  0.00  0.00    +0.000 A 
ATOM      2  C   UNL     1       7.785   4.680  16.005  0.00  0.00    +0.000 A 
ATOM      3  C   UNL     1       7.558   4.546  17.378  0.00  0.00    +0.000 A 
ATOM      4  C   UNL     1       6.260   4.646  17.863  0.00  0.00    +0.000 A 
ATOM      5  C   UNL     1       5.184   4.835  16.993  0.00  0.00    +0.000 A 
ATOM      6  C   UNL     1       5.422   4.985  15.625  0.00  0.00    +0.000 A 
ENDROOT
BRANCH   5   7
ATOM      7  N   UNL     1       3.889   4.885  17.556  0.00  0.00    +0.000 N 
ATOM      8  C   UNL     1       3.266   6.061  17.930  0.00  0.00    +0.000 C 
ATOM      9  O   UNL     1       3.738   7.190  17.788  0.00  0.00    +0.000 OA
ATOM     10  H   UNL     1       3.279   4.124  17.267  0.00  0.00    +0.000 HD
BRANCH   8  11
ATOM     11  C   UNL     1       1.901   5.851  18.561  0.00  0.00    +0.000 C 
BRANCH  11  12
ATOM     12  C   UNL     1       1.800   4.688  19.517  0.00  0.00    +0.000 A 
ATOM     13  C   UNL     1       2.387   4.766  20.790  0.00  0.00    +0.000 A 
ATOM     14  C   UNL     1       2.223   3.734  21.719  0.00  0.00    +0.000 A 
ATOM     15  C   UNL     1       1.467   2.610  21.394  0.00  0.00    +0.000 A 
ATOM     16  C   UNL     1       0.879   2.521  20.130  0.00  0.00    +0.000 A 
ATOM     17  C   UNL     1       1.042   3.551  19.199  0.00  0.00    +0.000 A 
ENDBRANCH  11  12
ENDBRANCH   8  11
ENDBRANCH   5   7
BRANCH   1  18
ATOM     18  N   UNL     1       6.985   5.195  13.776  0.00  0.00    +0.000 N 
ATOM     19  H   UNL     1       6.266   4.886  13.129  0.00  0.00    +0.000 HD
ATOM     20  H   UNL     1       7.242   6.167  13.630  0.00  0.00    +0.000 HD
ENDBRANCH   1  18
BRANCH   4  21
ATOM     21  O   UNL     1       5.996   4.527  19.203  0.00  0.00    +0.000 OA
ATOM     22  H   UNL     1       6.306   3.655  19.495  0.00  0.00    +0.000 HD
ENDBRANCH   4  21
TORSDOF 5
ENDMDL
MODEL 6
REMARK VINA RESULT:      -6.8      2.201      6.146
REMARK  Name = 
REMARK  5 active torsions:
REMARK  status: ('A' for Active; 'I' for Inactive)
REMARK    1  A    between atoms: N_1  and  C_2
REMARK    2  A    between atoms: C_5  and  O_6
REMARK    3  A    between atoms: C_7  and  N_8
REMARK    4  A    between atoms: C_9  and  C_11
REMARK    5  A    between atoms: C_11  and  C_12
REMARK                            x       y       z     vdW  Elec       q    Type
REMARK                         _______ _______ _______ _____ _____    ______ ____
ROOT
ATOM      1  C   UNL     1       2.069   3.208  20.887  0.00  0.00    +0.000 A 
ATOM      2  C   UNL     1       0.831   2.851  20.341  0.00  0.00    +0.000 A 
ATOM      3  C   UNL     1       0.518   3.146  19.012  0.00  0.00    +0.000 A 
ATOM      4  C   UNL     1       1.441   3.836  18.236  0.00  0.00    +0.000 A 
ATOM      5  C   UNL     1       2.686   4.196  18.758  0.00  0.00    +0.000 A 
ATOM      6  C   UNL     1       2.982   3.912  20.092  0.00  0.00    +0.000 A 
ENDROOT
BRANCH   5   7
ATOM      7  N   UNL     1       3.587   4.860  17.895  0.00  0.00    +0.000 N 
ATOM      8  C   UNL     1       4.474   4.200  17.066  0.00  0.00    +0.000 C 
ATOM      9  O   UNL     1       4.561   2.977  16.951  0.00  0.00    +0.000 OA
ATOM     10  H   UNL     1       3.265   5.771  17.576  0.00  0.00    +0.000 HD
BRANCH   8  11
ATOM     11  C   UNL     1       5.375   5.132  16.276  0.00  0.00    +0.000 C 
BRANCH  11  12
ATOM     12  C   UNL     1       6.435   5.847  17.079  0.00  0.00    +0.000 A 
ATOM     13  C   UNL     1       6.646   7.223  16.904  0.00  0.00    +0.000 A 
ATOM     14  C   UNL     1       7.559   7.915  17.704  0.00  0.00    +0.000 A 
ATOM     15  C   UNL     1       8.274   7.245  18.695  0.00  0.00    +0.000 A 
ATOM     16  C   UNL     1       8.072   5.875  18.878  0.00  0.00    +0.000 A 
ATOM     17  C   UNL     1       7.160   5.181  18.078  0.00  0.00    +0.000 A 
ENDBRANCH  11  12
ENDBRANCH   8  11
ENDBRANCH   5   7
BRANCH   1  18
ATOM     18  N   UNL     1       2.288   3.073  22.265  0.00  0.00    +0.000 N 
ATOM     19  H   UNL     1       2.047   2.158  22.633  0.00  0.00    +0.000 HD
ATOM     20  H   UNL     1       3.210   3.377  22.563  0.00  0.00    +0.000 HD
ENDBRANCH   1  18
BRANCH   4  21
ATOM     21  O   UNL     1       1.170   4.150  16.929  0.00  0.00    +0.000 OA
ATOM     22  H   UNL     1       0.242   4.426  16.872  0.00  0.00    +0.000 HD
ENDBRANCH   4  21
TORSDOF 5
ENDMDL
MODEL 7
REMARK VINA RESULT:      -6.8      3.624      4.649
REMARK  Name = 
REMARK  5 active torsions:
REMARK  status: ('A' for Active; 'I' for Inactive)
REMARK    1  A    between atoms: N_1  and  C_2
REMARK    2  A    between atoms: C_5  and  O_6
REMARK    3  A    between atoms: C_7  and  N_8
REMARK    4  A    between atoms: C_9  and  C_11
REMARK    5  A    between atoms: C_11  and  C_12
REMARK                            x       y       z     vdW  Elec       q    Type
REMARK                         _______ _______ _______ _____ _____    ______ ____
ROOT
ATOM      1  C   UNL     1       5.660   3.344  12.232  0.00  0.00    +0.000 A 
ATOM      2  C   UNL     1       6.860   3.946  11.835  0.00  0.00    +0.000 A 
ATOM      3  C   UNL     1       7.601   4.728  12.725  0.00  0.00    +0.000 A 
ATOM      4  C   UNL     1       7.117   4.935  14.010  0.00  0.00    +0.000 A 
ATOM      5  C   UNL     1       5.927   4.338  14.430  0.00  0.00    +0.000 A 
ATOM      6  C   UNL     1       5.184   3.573  13.529  0.00  0.00    +0.000 A 
ENDROOT
BRANCH   5   7
ATOM      7  N   UNL     1       5.520   4.561  15.765  0.00  0.00    +0.000 N 
ATOM      8  C   UNL     1       5.105   5.791  16.240  0.00  0.00    +0.000 C 
ATOM      9  O   UNL     1       5.006   6.815  15.563  0.00  0.00    +0.000 OA
ATOM     10  H   UNL     1       5.120   3.744  16.221  0.00  0.00    +0.000 HD
BRANCH   8  11
ATOM     11  C   UNL     1       4.770   5.789  17.720  0.00  0.00    +0.000 C 
BRANCH  11  12
ATOM     12  C   UNL     1       3.743   4.771  18.152  0.00  0.00    +0.000 A 
ATOM     13  C   UNL     1       2.399   4.916  17.771  0.00  0.00    +0.000 A 
ATOM     14  C   UNL     1       1.456   3.935  18.087  0.00  0.00    +0.000 A 
ATOM     15  C   UNL     1       1.838   2.791  18.784  0.00  0.00    +0.000 A 
ATOM     16  C   UNL     1       3.171   2.636  19.168  0.00  0.00    +0.000 A 
ATOM     17  C   UNL     1       4.117   3.616  18.855  0.00  0.00    +0.000 A 
ENDBRANCH  11  12
ENDBRANCH   8  11
ENDBRANCH   5   7
BRANCH   1  18
ATOM     18  N   UNL     1       4.842   2.725  11.277  0.00  0.00    +0.000 N 
ATOM     19  H   UNL     1       5.354   2.259  10.534  0.00  0.00    +0.000 HD
ATOM     20  H   UNL     1       4.123   2.132  11.679  0.00  0.00    +0.000 HD
ENDBRANCH   1  18
BRANCH   4  21
ATOM     21  O   UNL     1       7.812   5.700  14.911  0.00  0.00    +0.000 OA
ATOM     22  H   UNL     1       7.295   6.503  15.086  0.00  0.00    +0.000 HD
ENDBRANCH   4  21
TORSDOF 5
ENDMDL
MODEL 8
REMARK VINA RESULT:      -6.8      2.183      6.145
REMARK  Name = 
REMARK  5 active torsions:
REMARK  status: ('A' for Active; 'I' for Inactive)
REMARK    1  A    between atoms: N_1  and  C_2
REMARK    2  A    between atoms: C_5  and  O_6
REMARK    3  A    between atoms: C_7  and  N_8
REMARK    4  A    between atoms: C_9  and  C_11
REMARK    5  A    between atoms: C_11  and  C_12
REMARK                            x       y       z     vdW  Elec       q    Type
REMARK                         _______ _______ _______ _____ _____    ______ ____
ROOT
ATOM      1  C   UNL     1       2.023   3.152  20.907  0.00  0.00    +0.000 A 
ATOM      2  C   UNL     1       0.781   2.825  20.349  0.00  0.00    +0.000 A 
ATOM      3  C   UNL     1       0.475   3.161  19.028  0.00  0.00    +0.000 A 
ATOM      4  C   UNL     1       1.407   3.861  18.273  0.00  0.00    +0.000 A 
ATOM      5  C   UNL     1       2.655   4.192  18.806  0.00  0.00    +0.000 A 
ATOM      6  C   UNL     1       2.946   3.867  20.133  0.00  0.00    +0.000 A 
ENDROOT
BRANCH   5   7
ATOM      7  N   UNL     1       3.566   4.868  17.964  0.00  0.00    +0.000 N 
ATOM      8  C   UNL     1       4.433   4.222  17.103  0.00  0.00    +0.000 C 
ATOM      9  O   UNL     1       4.491   3.002  16.940  0.00  0.00    +0.000 OA
ATOM     10  H   UNL     1       3.263   5.798  17.683  0.00  0.00    +0.000 HD
BRANCH   8  11
ATOM     11  C   UNL     1       5.349   5.163  16.343  0.00  0.00    +0.000 C 
BRANCH  11  12
ATOM     12  C   UNL     1       6.318   5.952  17.192  0.00  0.00    +0.000 A 
ATOM     13  C   UNL     1       7.033   5.320  18.221  0.00  0.00    +0.000 A 
ATOM     14  C   UNL     1       7.999   6.016  18.953  0.00  0.00    +0.000 A 
ATOM     15  C   UNL     1       8.269   7.352  18.668  0.00  0.00    +0.000 A 
ATOM     16  C   UNL     1       7.563   7.991  17.646  0.00  0.00    +0.000 A 
ATOM     17  C   UNL     1       6.596   7.298  16.913  0.00  0.00    +0.000 A 
ENDBRANCH  11  12
ENDBRANCH   8  11
ENDBRANCH   5   7
BRANCH   1  18
ATOM     18  N   UNL     1       2.239   2.975  22.280  0.00  0.00    +0.000 N 
ATOM     19  H   UNL     1       1.874   3.728  22.855  0.00  0.00    +0.000 HD
ATOM     20  H   UNL     1       1.961   2.060  22.622  0.00  0.00    +0.000 HD
ENDBRANCH   1  18
BRANCH   4  21
ATOM     21  O   UNL     1       1.142   4.216  16.976  0.00  0.00    +0.000 OA
ATOM     22  H   UNL     1       1.978   4.479  16.558  0.00  0.00    +0.000 HD
ENDBRANCH   4  21
TORSDOF 5
ENDMDL
MODEL 9
REMARK VINA RESULT:      -6.8      3.651      4.671
REMARK  Name = 
REMARK  5 active torsions:
REMARK  status: ('A' for Active; 'I' for Inactive)
REMARK    1  A    between atoms: N_1  and  C_2
REMARK    2  A    between atoms: C_5  and  O_6
REMARK    3  A    between atoms: C_7  and  N_8
REMARK    4  A    between atoms: C_9  and  C_11
REMARK    5  A    between atoms: C_11  and  C_12
REMARK                            x       y       z     vdW  Elec       q    Type
REMARK                         _______ _______ _______ _____ _____    ______ ____
ROOT
ATOM      1  C   UNL     1       5.663   3.301  12.223  0.00  0.00    +0.000 A 
ATOM      2  C   UNL     1       6.866   3.889  11.814  0.00  0.00    +0.000 A 
ATOM      3  C   UNL     1       7.611   4.686  12.688  0.00  0.00    +0.000 A 
ATOM      4  C   UNL     1       7.127   4.923  13.968  0.00  0.00    +0.000 A 
ATOM      5  C   UNL     1       5.933   4.342  14.399  0.00  0.00    +0.000 A 
ATOM      6  C   UNL     1       5.187   3.562  13.514  0.00  0.00    +0.000 A 
ENDROOT
BRANCH   5   7
ATOM      7  N   UNL     1       5.526   4.597  15.728  0.00  0.00    +0.000 N 
ATOM      8  C   UNL     1       5.114   5.839  16.175  0.00  0.00    +0.000 C 
ATOM      9  O   UNL     1       5.019   6.848  15.475  0.00  0.00    +0.000 OA
ATOM     10  H   UNL     1       5.123   3.792  16.203  0.00  0.00    +0.000 HD
BRANCH   8  11
ATOM     11  C   UNL     1       4.779   5.872  17.654  0.00  0.00    +0.000 C 
BRANCH  11  12
ATOM     12  C   UNL     1       3.793   4.828  18.120  0.00  0.00    +0.000 A 
ATOM     13  C   UNL     1       4.202   3.811  18.998  0.00  0.00    +0.000 A 
ATOM     14  C   UNL     1       3.280   2.893  19.508  0.00  0.00    +0.000 A 
ATOM     15  C   UNL     1       1.935   2.976  19.155  0.00  0.00    +0.000 A 
ATOM     16  C   UNL     1       1.517   3.983  18.282  0.00  0.00    +0.000 A 
ATOM     17  C   UNL     1       2.436   4.902  17.769  0.00  0.00    +0.000 A 
ENDBRANCH  11  12
ENDBRANCH   8  11
ENDBRANCH   5   7
BRANCH   1  18
ATOM     18  N   UNL     1       4.843   2.666  11.281  0.00  0.00    +0.000 N 
ATOM     19  H   UNL     1       5.009   1.668  11.196  0.00  0.00    +0.000 HD
ATOM     20  H   UNL     1       3.857   2.885  11.386  0.00  0.00    +0.000 HD
ENDBRANCH   1  18
BRANCH   4  21
ATOM     21  O   UNL     1       7.825   5.705  14.852  0.00  0.00    +0.000 OA
ATOM     22  H   UNL     1       8.721   5.828  14.503  0.00  0.00    +0.000 HD
ENDBRANCH   4  21
TORSDOF 5
ENDMDL
