MODEL 1
REMARK VINA RESULT:      -7.2      0.000      0.000
REMARK  Name = 
REMARK  10 active torsions:
REMARK  status: ('A' for Active; 'I' for Inactive)
REMARK    1  A    between atoms: C_1  and  O_2
REMARK    2  A    between atoms: O_2  and  C_3
REMARK    3  A    between atoms: C_8  and  N_9
REMARK    4  A    between atoms: C_10  and  C_12
REMARK    5  A    between atoms: C_12  and  N_13
REMARK    6  A    between atoms: C_16  and  N_17
REMARK    7  A    between atoms: N_17  and  C_18
REMARK    8  A    between atoms: N_17  and  C_19
REMARK    9  A    between atoms: C_20  and  N_21
REMARK   10  A    between atoms: N_22  and  C_23
REMARK                            x       y       z     vdW  Elec       q    Type
REMARK                         _______ _______ _______ _____ _____    ______ ____
ROOT
ATOM      1  N   UNL     1       3.571   6.333  18.089  0.00  0.00    +0.000 N 
ATOM      2  C   UNL     1       2.763   5.243  18.249  0.00  0.00    +0.000 A 
ATOM      3  O   UNL     1       1.645   5.206  17.729  0.00  0.00    +0.000 OA
ATOM      4  C   UNL     1       3.302   4.102  19.076  0.00  0.00    +0.000 A 
ATOM      5  C   UNL     1       4.657   3.960  19.003  0.00  0.00    +0.000 A 
ATOM      6  N   UNL     1       5.435   4.925  18.371  0.00  0.00    +0.000 N 
ATOM      7  C   UNL     1       6.862   4.753  18.142  0.00  0.00    +0.000 C 
ATOM      8  C   UNL     1       4.926   6.150  17.933  0.00  0.00    +0.000 A 
ATOM      9  O   UNL     1       5.641   6.981  17.367  0.00  0.00    +0.000 OA
ENDROOT
BRANCH   4  10
ATOM     10  N   UNL     1       2.407   3.205  19.744  0.00  0.00    +0.000 N 
ATOM     11  C   UNL     1       1.591   3.662  20.886  0.00  0.00    +0.000 C 
ATOM     12  C   UNL     1       1.720   2.103  19.044  0.00  0.00    +0.000 C 
ENDBRANCH   4  10
BRANCH   5  13
ATOM     13  N   UNL     1       5.229   2.800  19.525  0.00  0.00    +0.000 N 
ATOM     14  H   UNL     1       5.208   2.847  20.545  0.00  0.00    +0.000 HD
ATOM     15  H   UNL     1       4.793   1.947  19.206  0.00  0.00    +0.000 HD
ENDBRANCH   5  13
BRANCH   1  16
ATOM     16  C   UNL     1       2.968   7.513  17.475  0.00  0.00    +0.000 C 
BRANCH  16  18
ATOM     17  N   UNL     1       1.272   9.235  17.920  0.00  0.00    +0.000 N 
ATOM     18  C   UNL     1       2.092   8.261  18.481  0.00  0.00    +0.000 C 
ATOM     19  O   UNL     1       2.103   7.934  19.667  0.00  0.00    +0.000 OA
ATOM     20  H   UNL     1       1.065   9.152  16.921  0.00  0.00    +0.000 HD
BRANCH  17  26
ATOM     21  C   UNL     1      -0.864  10.390  18.250  0.00  0.00    +0.000 A 
ATOM     22  C   UNL     1      -1.628  11.349  18.935  0.00  0.00    +0.000 A 
ATOM     23  C   UNL     1      -1.090  12.056  20.009  0.00  0.00    +0.000 A 
ATOM     24  C   UNL     1       0.225  11.831  20.392  0.00  0.00    +0.000 A 
ATOM     25  C   UNL     1       1.005  10.908  19.698  0.00  0.00    +0.000 A 
ATOM     26  C   UNL     1       0.477  10.170  18.631  0.00  0.00    +0.000 A 
BRANCH  21  28
ATOM     27  C   UNL     1      -2.663  10.021  16.751  0.00  0.00    +0.000 C 
ATOM     28  O   UNL     1      -1.364   9.639  17.209  0.00  0.00    +0.000 OA
ENDBRANCH  21  28
ENDBRANCH  17  26
ENDBRANCH  16  18
ENDBRANCH   1  16
TORSDOF 6
ENDMDL
MODEL 2
REMARK VINA RESULT:      -7.2      1.233      1.845
REMARK  Name = 
REMARK  10 active torsions:
REMARK  status: ('A' for Active; 'I' for Inactive)
REMARK    1  A    between atoms: C_1  and  O_2
REMARK    2  A    between atoms: O_2  and  C_3
REMARK    3  A    between atoms: C_8  and  N_9
REMARK    4  A    between atoms: C_10  and  C_12
REMARK    5  A    between atoms: C_12  and  N_13
REMARK    6  A    between atoms: C_16  and  N_17
REMARK    7  A    between atoms: N_17  and  C_18
REMARK    8  A    between atoms: N_17  and  C_19
REMARK    9  A    between atoms: C_20  and  N_21
REMARK   10  A    between atoms: N_22  and  C_23
REMARK                            x       y       z     vdW  Elec       q    Type
REMARK                         _______ _______ _______ _____ _____    ______ ____
ROOT
ATOM      1  N   UNL     1       3.522   6.307  18.077  0.00  0.00    +0.000 N 
ATOM      2  C   UNL     1       2.727   5.209  18.248  0.00  0.00    +0.000 A 
ATOM      3  O   UNL     1       1.613   5.152  17.722  0.00  0.00    +0.000 OA
ATOM      4  C   UNL     1       3.276   4.085  19.092  0.00  0.00    +0.000 A 
ATOM      5  C   UNL     1       4.633   3.960  19.028  0.00  0.00    +0.000 A 
ATOM      6  N   UNL     1       5.402   4.926  18.387  0.00  0.00    +0.000 N 
ATOM      7  C   UNL     1       6.833   4.770  18.169  0.00  0.00    +0.000 C 
ATOM      8  C   UNL     1       4.880   6.139  17.932  0.00  0.00    +0.000 A 
ATOM      9  O   UNL     1       5.588   6.972  17.359  0.00  0.00    +0.000 OA
ENDROOT
BRANCH   4  10
ATOM     10  N   UNL     1       2.388   3.186  19.766  0.00  0.00    +0.000 N 
ATOM     11  C   UNL     1       1.548   3.651  20.887  0.00  0.00    +0.000 C 
ATOM     12  C   UNL     1       1.732   2.056  19.080  0.00  0.00    +0.000 C 
ENDBRANCH   4  10
BRANCH   5  13
ATOM     13  N   UNL     1       5.217   2.813  19.568  0.00  0.00    +0.000 N 
ATOM     14  H   UNL     1       5.363   2.953  20.569  0.00  0.00    +0.000 HD
ATOM     15  H   UNL     1       4.689   1.969  19.407  0.00  0.00    +0.000 HD
ENDBRANCH   5  13
BRANCH   1  16
ATOM     16  C   UNL     1       2.908   7.472  17.446  0.00  0.00    +0.000 C 
BRANCH  16  18
ATOM     17  N   UNL     1       1.411   9.359  17.934  0.00  0.00    +0.000 N 
ATOM     18  C   UNL     1       2.149   8.311  18.475  0.00  0.00    +0.000 C 
ATOM     19  O   UNL     1       2.171   7.993  19.663  0.00  0.00    +0.000 OA
ATOM     20  H   UNL     1       1.160   9.290  16.944  0.00  0.00    +0.000 HD
BRANCH  17  26
ATOM     21  C   UNL     1       1.308  11.663  18.762  0.00  0.00    +0.000 A 
ATOM     22  C   UNL     1       0.656  12.647  19.523  0.00  0.00    +0.000 A 
ATOM     23  C   UNL     1      -0.561  12.377  20.147  0.00  0.00    +0.000 A 
ATOM     24  C   UNL     1      -1.125  11.114  20.040  0.00  0.00    +0.000 A 
ATOM     25  C   UNL     1      -0.471  10.118  19.317  0.00  0.00    +0.000 A 
ATOM     26  C   UNL     1       0.741  10.374  18.663  0.00  0.00    +0.000 A 
BRANCH  21  28
ATOM     27  C   UNL     1       3.004  13.223  18.207  0.00  0.00    +0.000 C 
ATOM     28  O   UNL     1       2.491  11.893  18.096  0.00  0.00    +0.000 OA
ENDBRANCH  21  28
ENDBRANCH  17  26
ENDBRANCH  16  18
ENDBRANCH   1  16
TORSDOF 6
ENDMDL
MODEL 3
REMARK VINA RESULT:      -6.8      1.402      1.560
REMARK  Name = 
REMARK  10 active torsions:
REMARK  status: ('A' for Active; 'I' for Inactive)
REMARK    1  A    between atoms: C_1  and  O_2
REMARK    2  A    between atoms: O_2  and  C_3
REMARK    3  A    between atoms: C_8  and  N_9
REMARK    4  A    between atoms: C_10  and  C_12
REMARK    5  A    between atoms: C_12  and  N_13
REMARK    6  A    between atoms: C_16  and  N_17
REMARK    7  A    between atoms: N_17  and  C_18
REMARK    8  A    between atoms: N_17  and  C_19
REMARK    9  A    between atoms: C_20  and  N_21
REMARK   10  A    between atoms: N_22  and  C_23
REMARK                            x       y       z     vdW  Elec       q    Type
REMARK                         _______ _______ _______ _____ _____    ______ ____
ROOT
ATOM      1  N   UNL     1       3.396   6.305  18.011  0.00  0.00    +0.000 N 
ATOM      2  C   UNL     1       2.645   5.187  18.239  0.00  0.00    +0.000 A 
ATOM      3  O   UNL     1       1.521   5.073  17.743  0.00  0.00    +0.000 OA
ATOM      4  C   UNL     1       3.251   4.113  19.108  0.00  0.00    +0.000 A 
ATOM      5  C   UNL     1       4.610   4.032  19.016  0.00  0.00    +0.000 A 
ATOM      6  N   UNL     1       5.330   5.000  18.324  0.00  0.00    +0.000 N 
ATOM      7  C   UNL     1       6.760   4.885  18.076  0.00  0.00    +0.000 C 
ATOM      8  C   UNL     1       4.756   6.178  17.839  0.00  0.00    +0.000 A 
ATOM      9  O   UNL     1       5.421   7.013  17.220  0.00  0.00    +0.000 OA
ENDROOT
BRANCH   4  10
ATOM     10  N   UNL     1       2.411   3.209  19.835  0.00  0.00    +0.000 N 
ATOM     11  C   UNL     1       1.627   3.672  20.996  0.00  0.00    +0.000 C 
ATOM     12  C   UNL     1       1.732   2.068  19.192  0.00  0.00    +0.000 C 
ENDBRANCH   4  10
BRANCH   5  13
ATOM     13  N   UNL     1       5.246   2.926  19.581  0.00  0.00    +0.000 N 
ATOM     14  H   UNL     1       6.053   3.244  20.118  0.00  0.00    +0.000 HD
ATOM     15  H   UNL     1       4.644   2.357  20.158  0.00  0.00    +0.000 HD
ENDBRANCH   5  13
BRANCH   1  16
ATOM     16  C   UNL     1       2.728   7.424  17.355  0.00  0.00    +0.000 C 
BRANCH  16  18
ATOM     17  N   UNL     1       1.545   8.048  19.418  0.00  0.00    +0.000 N 
ATOM     18  C   UNL     1       2.344   8.500  18.372  0.00  0.00    +0.000 C 
ATOM     19  O   UNL     1       2.794   9.640  18.258  0.00  0.00    +0.000 OA
ATOM     20  H   UNL     1       1.561   7.044  19.615  0.00  0.00    +0.000 HD
BRANCH  17  26
ATOM     21  C   UNL     1      -0.018   9.833  20.030  0.00  0.00    +0.000 A 
ATOM     22  C   UNL     1      -0.592  10.654  21.014  0.00  0.00    +0.000 A 
ATOM     23  C   UNL     1      -0.268  10.488  22.360  0.00  0.00    +0.000 A 
ATOM     24  C   UNL     1       0.652   9.518  22.733  0.00  0.00    +0.000 A 
ATOM     25  C   UNL     1       1.255   8.720  21.762  0.00  0.00    +0.000 A 
ATOM     26  C   UNL     1       0.927   8.854  20.407  0.00  0.00    +0.000 A 
BRANCH  21  28
ATOM     27  C   UNL     1      -1.653  10.411  18.415  0.00  0.00    +0.000 C 
ATOM     28  O   UNL     1      -0.335   9.933  18.694  0.00  0.00    +0.000 OA
ENDBRANCH  21  28
ENDBRANCH  17  26
ENDBRANCH  16  18
ENDBRANCH   1  16
TORSDOF 6
ENDMDL
MODEL 4
REMARK VINA RESULT:      -6.7      3.484      7.449
REMARK  Name = 
REMARK  10 active torsions:
REMARK  status: ('A' for Active; 'I' for Inactive)
REMARK    1  A    between atoms: C_1  and  O_2
REMARK    2  A    between atoms: O_2  and  C_3
REMARK    3  A    between atoms: C_8  and  N_9
REMARK    4  A    between atoms: C_10  and  C_12
REMARK    5  A    between atoms: C_12  and  N_13
REMARK    6  A    between atoms: C_16  and  N_17
REMARK    7  A    between atoms: N_17  and  C_18
REMARK    8  A    between atoms: N_17  and  C_19
REMARK    9  A    between atoms: C_20  and  N_21
REMARK   10  A    between atoms: N_22  and  C_23
REMARK                            x       y       z     vdW  Elec       q    Type
REMARK                         _______ _______ _______ _____ _____    ______ ____
ROOT
ATOM      1  N   UNL     1       4.538   5.840  18.084  0.00  0.00    +0.000 N 
ATOM      2  C   UNL     1       4.813   4.669  18.731  0.00  0.00    +0.000 A 
ATOM      3  O   UNL     1       5.971   4.252  18.815  0.00  0.00    +0.000 OA
ATOM      4  C   UNL     1       3.647   3.926  19.336  0.00  0.00    +0.000 A 
ATOM      5  C   UNL     1       2.638   4.737  19.764  0.00  0.00    +0.000 A 
ATOM      6  N   UNL     1       2.650   6.096  19.466  0.00  0.00    +0.000 N 
ATOM      7  C   UNL     1       1.676   7.028  20.015  0.00  0.00    +0.000 C 
ATOM      8  C   UNL     1       3.571   6.678  18.590  0.00  0.00    +0.000 A 
ATOM      9  O   UNL     1       3.560   7.889  18.354  0.00  0.00    +0.000 OA
ENDROOT
BRANCH   4  10
ATOM     10  N   UNL     1       3.716   2.509  19.536  0.00  0.00    +0.000 N 
ATOM     11  C   UNL     1       3.579   1.577  18.400  0.00  0.00    +0.000 C 
ATOM     12  C   UNL     1       4.545   1.897  20.592  0.00  0.00    +0.000 C 
ENDBRANCH   4  10
BRANCH   5  13
ATOM     13  N   UNL     1       1.631   4.181  20.554  0.00  0.00    +0.000 N 
ATOM     14  H   UNL     1       1.803   4.422  21.531  0.00  0.00    +0.000 HD
ATOM     15  H   UNL     1       0.698   4.456  20.285  0.00  0.00    +0.000 HD
ENDBRANCH   5  13
BRANCH   1  16
ATOM     16  C   UNL     1       5.628   6.440  17.321  0.00  0.00    +0.000 C 
BRANCH  16  18
ATOM     17  N   UNL     1       5.956   4.862  15.465  0.00  0.00    +0.000 N 
ATOM     18  C   UNL     1       5.489   6.121  15.832  0.00  0.00    +0.000 C 
ATOM     19  O   UNL     1       4.937   6.924  15.081  0.00  0.00    +0.000 OA
ATOM     20  H   UNL     1       6.027   4.158  16.204  0.00  0.00    +0.000 HD
BRANCH  17  26
ATOM     21  C   UNL     1       7.198   4.743  13.356  0.00  0.00    +0.000 A 
ATOM     22  C   UNL     1       7.293   4.285  12.032  0.00  0.00    +0.000 A 
ATOM     23  C   UNL     1       6.322   3.439  11.498  0.00  0.00    +0.000 A 
ATOM     24  C   UNL     1       5.234   3.064  12.272  0.00  0.00    +0.000 A 
ATOM     25  C   UNL     1       5.110   3.540  13.576  0.00  0.00    +0.000 A 
ATOM     26  C   UNL     1       6.085   4.372  14.141  0.00  0.00    +0.000 A 
BRANCH  21  28
ATOM     27  C   UNL     1       9.165   6.032  13.056  0.00  0.00    +0.000 C 
ATOM     28  O   UNL     1       8.151   5.548  13.940  0.00  0.00    +0.000 OA
ENDBRANCH  21  28
ENDBRANCH  17  26
ENDBRANCH  16  18
ENDBRANCH   1  16
TORSDOF 6
ENDMDL
MODEL 5
REMARK VINA RESULT:      -6.7      1.277      1.586
REMARK  Name = 
REMARK  10 active torsions:
REMARK  status: ('A' for Active; 'I' for Inactive)
REMARK    1  A    between atoms: C_1  and  O_2
REMARK    2  A    between atoms: O_2  and  C_3
REMARK    3  A    between atoms: C_8  and  N_9
REMARK    4  A    between atoms: C_10  and  C_12
REMARK    5  A    between atoms: C_12  and  N_13
REMARK    6  A    between atoms: C_16  and  N_17
REMARK    7  A    between atoms: N_17  and  C_18
REMARK    8  A    between atoms: N_17  and  C_19
REMARK    9  A    between atoms: C_20  and  N_21
REMARK   10  A    between atoms: N_22  and  C_23
REMARK                            x       y       z     vdW  Elec       q    Type
REMARK                         _______ _______ _______ _____ _____    ______ ____
ROOT
ATOM      1  N   UNL     1       3.135   6.066  18.153  0.00  0.00    +0.000 N 
ATOM      2  C   UNL     1       2.458   4.899  18.367  0.00  0.00    +0.000 A 
ATOM      3  O   UNL     1       1.333   4.728  17.891  0.00  0.00    +0.000 OA
ATOM      4  C   UNL     1       3.148   3.844  19.197  0.00  0.00    +0.000 A 
ATOM      5  C   UNL     1       4.506   3.848  19.076  0.00  0.00    +0.000 A 
ATOM      6  N   UNL     1       5.151   4.875  18.394  0.00  0.00    +0.000 N 
ATOM      7  C   UNL     1       6.580   4.854  18.115  0.00  0.00    +0.000 C 
ATOM      8  C   UNL     1       4.496   6.027  17.950  0.00  0.00    +0.000 A 
ATOM      9  O   UNL     1       5.096   6.916  17.340  0.00  0.00    +0.000 OA
ENDROOT
BRANCH   4  10
ATOM     10  N   UNL     1       2.380   2.873  19.917  0.00  0.00    +0.000 N 
ATOM     11  C   UNL     1       1.786   3.198  21.228  0.00  0.00    +0.000 C 
ATOM     12  C   UNL     1       1.570   1.841  19.240  0.00  0.00    +0.000 C 
ENDBRANCH   4  10
BRANCH   5  13
ATOM     13  N   UNL     1       5.220   2.770  19.600  0.00  0.00    +0.000 N 
ATOM     14  H   UNL     1       5.807   3.101  20.367  0.00  0.00    +0.000 HD
ATOM     15  H   UNL     1       4.640   2.004  19.908  0.00  0.00    +0.000 HD
ENDBRANCH   5  13
BRANCH   1  16
ATOM     16  C   UNL     1       2.386   7.158  17.539  0.00  0.00    +0.000 C 
BRANCH  16  18
ATOM     17  N   UNL     1       1.581   9.434  18.001  0.00  0.00    +0.000 N 
ATOM     18  C   UNL     1       2.134   8.279  18.547  0.00  0.00    +0.000 C 
ATOM     19  O   UNL     1       2.357   8.092  19.743  0.00  0.00    +0.000 OA
ATOM     20  H   UNL     1       1.093   9.338  17.107  0.00  0.00    +0.000 HD
BRANCH  17  26
ATOM     21  C   UNL     1       0.359  10.793  19.632  0.00  0.00    +0.000 A 
ATOM     22  C   UNL     1       0.149  12.031  20.261  0.00  0.00    +0.000 A 
ATOM     23  C   UNL     1       0.967  13.123  19.977  0.00  0.00    +0.000 A 
ATOM     24  C   UNL     1       1.986  12.997  19.043  0.00  0.00    +0.000 A 
ATOM     25  C   UNL     1       2.182  11.784  18.386  0.00  0.00    +0.000 A 
ATOM     26  C   UNL     1       1.387  10.667  18.673  0.00  0.00    +0.000 A 
BRANCH  21  28
ATOM     27  C   UNL     1      -0.433   9.289  21.284  0.00  0.00    +0.000 C 
ATOM     28  O   UNL     1      -0.397   9.675  19.909  0.00  0.00    +0.000 OA
ENDBRANCH  21  28
ENDBRANCH  17  26
ENDBRANCH  16  18
ENDBRANCH   1  16
TORSDOF 6
ENDMDL
MODEL 6
REMARK VINA RESULT:      -6.6      3.485      7.552
REMARK  Name = 
REMARK  10 active torsions:
REMARK  status: ('A' for Active; 'I' for Inactive)
REMARK    1  A    between atoms: C_1  and  O_2
REMARK    2  A    between atoms: O_2  and  C_3
REMARK    3  A    between atoms: C_8  and  N_9
REMARK    4  A    between atoms: C_10  and  C_12
REMARK    5  A    between atoms: C_12  and  N_13
REMARK    6  A    between atoms: C_16  and  N_17
REMARK    7  A    between atoms: N_17  and  C_18
REMARK    8  A    between atoms: N_17  and  C_19
REMARK    9  A    between atoms: C_20  and  N_21
REMARK   10  A    between atoms: N_22  and  C_23
REMARK                            x       y       z     vdW  Elec       q    Type
REMARK                         _______ _______ _______ _____ _____    ______ ____
ROOT
ATOM      1  N   UNL     1       5.135   5.659  18.056  0.00  0.00    +0.000 N 
ATOM      2  C   UNL     1       4.981   4.693  19.010  0.00  0.00    +0.000 A 
ATOM      3  O   UNL     1       5.955   4.261  19.631  0.00  0.00    +0.000 OA
ATOM      4  C   UNL     1       3.580   4.194  19.265  0.00  0.00    +0.000 A 
ATOM      5  C   UNL     1       2.614   5.136  19.066  0.00  0.00    +0.000 A 
ATOM      6  N   UNL     1       2.932   6.363  18.493  0.00  0.00    +0.000 N 
ATOM      7  C   UNL     1       1.971   7.452  18.389  0.00  0.00    +0.000 C 
ATOM      8  C   UNL     1       4.183   6.645  17.937  0.00  0.00    +0.000 A 
ATOM      9  O   UNL     1       4.436   7.748  17.444  0.00  0.00    +0.000 OA
ENDROOT
BRANCH   4  10
ATOM     10  N   UNL     1       3.365   2.881  19.797  0.00  0.00    +0.000 N 
ATOM     11  C   UNL     1       2.879   2.694  21.178  0.00  0.00    +0.000 C 
ATOM     12  C   UNL     1       2.941   1.745  18.956  0.00  0.00    +0.000 C 
ENDBRANCH   4  10
BRANCH   5  13
ATOM     13  N   UNL     1       1.319   4.859  19.506  0.00  0.00    +0.000 N 
ATOM     14  H   UNL     1       1.370   4.305  20.363  0.00  0.00    +0.000 HD
ATOM     15  H   UNL     1       0.751   5.679  19.654  0.00  0.00    +0.000 HD
ENDBRANCH   5  13
BRANCH   1  16
ATOM     16  C   UNL     1       6.503   5.981  17.662  0.00  0.00    +0.000 C 
BRANCH  16  18
ATOM     17  N   UNL     1       6.254   5.438  15.278  0.00  0.00    +0.000 N 
ATOM     18  C   UNL     1       6.934   5.145  16.457  0.00  0.00    +0.000 C 
ATOM     19  O   UNL     1       7.860   4.342  16.566  0.00  0.00    +0.000 OA
ATOM     20  H   UNL     1       5.804   6.355  15.216  0.00  0.00    +0.000 HD
BRANCH  17  26
ATOM     21  C   UNL     1       7.437   4.942  13.191  0.00  0.00    +0.000 A 
ATOM     22  C   UNL     1       7.496   4.255  11.967  0.00  0.00    +0.000 A 
ATOM     23  C   UNL     1       6.512   3.332  11.618  0.00  0.00    +0.000 A 
ATOM     24  C   UNL     1       5.446   3.104  12.477  0.00  0.00    +0.000 A 
ATOM     25  C   UNL     1       5.357   3.804  13.679  0.00  0.00    +0.000 A 
ATOM     26  C   UNL     1       6.347   4.720  14.059  0.00  0.00    +0.000 A 
BRANCH  21  28
ATOM     27  C   UNL     1       9.370   6.180  12.599  0.00  0.00    +0.000 C 
ATOM     28  O   UNL     1       8.405   5.834  13.596  0.00  0.00    +0.000 OA
ENDBRANCH  21  28
ENDBRANCH  17  26
ENDBRANCH  16  18
ENDBRANCH   1  16
TORSDOF 6
ENDMDL
MODEL 7
REMARK VINA RESULT:      -6.6      2.520      8.103
REMARK  Name = 
REMARK  10 active torsions:
REMARK  status: ('A' for Active; 'I' for Inactive)
REMARK    1  A    between atoms: C_1  and  O_2
REMARK    2  A    between atoms: O_2  and  C_3
REMARK    3  A    between atoms: C_8  and  N_9
REMARK    4  A    between atoms: C_10  and  C_12
REMARK    5  A    between atoms: C_12  and  N_13
REMARK    6  A    between atoms: C_16  and  N_17
REMARK    7  A    between atoms: N_17  and  C_18
REMARK    8  A    between atoms: N_17  and  C_19
REMARK    9  A    between atoms: C_20  and  N_21
REMARK   10  A    between atoms: N_22  and  C_23
REMARK                            x       y       z     vdW  Elec       q    Type
REMARK                         _______ _______ _______ _____ _____    ______ ____
ROOT
ATOM      1  N   UNL     1       0.448  10.101  19.766  0.00  0.00    +0.000 N 
ATOM      2  C   UNL     1       0.296  11.103  20.681  0.00  0.00    +0.000 A 
ATOM      3  O   UNL     1       1.255  11.497  21.348  0.00  0.00    +0.000 OA
ATOM      4  C   UNL     1      -1.082  11.701  20.826  0.00  0.00    +0.000 A 
ATOM      5  C   UNL     1      -1.811  11.694  19.673  0.00  0.00    +0.000 A 
ATOM      6  N   UNL     1      -1.351  11.011  18.552  0.00  0.00    +0.000 N 
ATOM      7  C   UNL     1      -2.016  11.089  17.259  0.00  0.00    +0.000 C 
ATOM      8  C   UNL     1      -0.237  10.167  18.574  0.00  0.00    +0.000 A 
ATOM      9  O   UNL     1       0.150   9.583  17.559  0.00  0.00    +0.000 OA
ENDROOT
BRANCH   4  10
ATOM     10  N   UNL     1      -1.476  12.322  22.056  0.00  0.00    +0.000 N 
ATOM     11  C   UNL     1      -1.734  11.513  23.263  0.00  0.00    +0.000 C 
ATOM     12  C   UNL     1      -1.027  13.673  22.440  0.00  0.00    +0.000 C 
ENDBRANCH   4  10
BRANCH   5  13
ATOM     13  N   UNL     1      -2.992  12.436  19.633  0.00  0.00    +0.000 N 
ATOM     14  H   UNL     1      -2.784  13.375  19.290  0.00  0.00    +0.000 HD
ATOM     15  H   UNL     1      -3.722  12.015  19.078  0.00  0.00    +0.000 HD
ENDBRANCH   5  13
BRANCH   1  16
ATOM     16  C   UNL     1       1.720   9.385  19.781  0.00  0.00    +0.000 C 
BRANCH  16  18
ATOM     17  N   UNL     1       2.369   7.014  19.793  0.00  0.00    +0.000 N 
ATOM     18  C   UNL     1       1.548   7.982  20.364  0.00  0.00    +0.000 C 
ATOM     19  O   UNL     1       0.780   7.800  21.309  0.00  0.00    +0.000 OA
ATOM     20  H   UNL     1       3.210   7.342  19.312  0.00  0.00    +0.000 HD
BRANCH  17  26
ATOM     21  C   UNL     1       3.459   4.821  19.848  0.00  0.00    +0.000 A 
ATOM     22  C   UNL     1       3.378   3.433  20.052  0.00  0.00    +0.000 A 
ATOM     23  C   UNL     1       2.187   2.843  20.473  0.00  0.00    +0.000 A 
ATOM     24  C   UNL     1       1.060   3.628  20.670  0.00  0.00    +0.000 A 
ATOM     25  C   UNL     1       1.119   5.001  20.438  0.00  0.00    +0.000 A 
ATOM     26  C   UNL     1       2.310   5.619  20.036  0.00  0.00    +0.000 A 
BRANCH  21  28
ATOM     27  C   UNL     1       5.592   4.619  18.835  0.00  0.00    +0.000 C 
ATOM     28  O   UNL     1       4.622   5.454  19.470  0.00  0.00    +0.000 OA
ENDBRANCH  21  28
ENDBRANCH  17  26
ENDBRANCH  16  18
ENDBRANCH   1  16
TORSDOF 6
ENDMDL
MODEL 8
REMARK VINA RESULT:      -6.4      4.569      9.472
REMARK  Name = 
REMARK  10 active torsions:
REMARK  status: ('A' for Active; 'I' for Inactive)
REMARK    1  A    between atoms: C_1  and  O_2
REMARK    2  A    between atoms: O_2  and  C_3
REMARK    3  A    between atoms: C_8  and  N_9
REMARK    4  A    between atoms: C_10  and  C_12
REMARK    5  A    between atoms: C_12  and  N_13
REMARK    6  A    between atoms: C_16  and  N_17
REMARK    7  A    between atoms: N_17  and  C_18
REMARK    8  A    between atoms: N_17  and  C_19
REMARK    9  A    between atoms: C_20  and  N_21
REMARK   10  A    between atoms: N_22  and  C_23
REMARK                            x       y       z     vdW  Elec       q    Type
REMARK                         _______ _______ _______ _____ _____    ______ ____
ROOT
ATOM      1  N   UNL     1      -3.513  12.108  19.351  0.00  0.00    +0.000 N 
ATOM      2  C   UNL     1      -3.369  12.839  20.495  0.00  0.00    +0.000 A 
ATOM      3  O   UNL     1      -2.422  13.619  20.629  0.00  0.00    +0.000 OA
ATOM      4  C   UNL     1      -4.414  12.654  21.568  0.00  0.00    +0.000 A 
ATOM      5  C   UNL     1      -5.654  12.355  21.085  0.00  0.00    +0.000 A 
ATOM      6  N   UNL     1      -5.835  12.067  19.736  0.00  0.00    +0.000 N 
ATOM      7  C   UNL     1      -7.152  11.881  19.144  0.00  0.00    +0.000 C 
ATOM      8  C   UNL     1      -4.774  11.896  18.842  0.00  0.00    +0.000 A 
ATOM      9  O   UNL     1      -4.969  11.649  17.649  0.00  0.00    +0.000 OA
ENDROOT
BRANCH   4  10
ATOM     10  N   UNL     1      -4.097  12.916  22.941  0.00  0.00    +0.000 N 
ATOM     11  C   UNL     1      -3.058  12.135  23.639  0.00  0.00    +0.000 C 
ATOM     12  C   UNL     1      -4.201  14.262  23.535  0.00  0.00    +0.000 C 
ENDBRANCH   4  10
BRANCH   5  13
ATOM     13  N   UNL     1      -6.736  12.405  21.964  0.00  0.00    +0.000 N 
ATOM     14  H   UNL     1      -7.016  11.453  22.202  0.00  0.00    +0.000 HD
ATOM     15  H   UNL     1      -6.560  12.938  22.802  0.00  0.00    +0.000 HD
ENDBRANCH   5  13
BRANCH   1  16
ATOM     16  C   UNL     1      -2.395  12.128  18.413  0.00  0.00    +0.000 C 
BRANCH  16  18
ATOM     17  N   UNL     1      -0.453  10.777  19.083  0.00  0.00    +0.000 N 
ATOM     18  C   UNL     1      -1.668  10.782  18.405  0.00  0.00    +0.000 C 
ATOM     19  O   UNL     1      -2.199   9.801  17.886  0.00  0.00    +0.000 OA
ATOM     20  H   UNL     1      -0.306  11.510  19.782  0.00  0.00    +0.000 HD
BRANCH  17  26
ATOM     21  C   UNL     1       0.668   8.958  20.281  0.00  0.00    +0.000 A 
ATOM     22  C   UNL     1       1.633   7.938  20.304  0.00  0.00    +0.000 A 
ATOM     23  C   UNL     1       2.386   7.642  19.169  0.00  0.00    +0.000 A 
ATOM     24  C   UNL     1       2.201   8.380  18.008  0.00  0.00    +0.000 A 
ATOM     25  C   UNL     1       1.271   9.418  17.983  0.00  0.00    +0.000 A 
ATOM     26  C   UNL     1       0.488   9.717  19.105  0.00  0.00    +0.000 A 
BRANCH  21  28
ATOM     27  C   UNL     1       0.575   9.487  22.590  0.00  0.00    +0.000 C 
ATOM     28  O   UNL     1      -0.126   9.261  21.365  0.00  0.00    +0.000 OA
ENDBRANCH  21  28
ENDBRANCH  17  26
ENDBRANCH  16  18
ENDBRANCH   1  16
TORSDOF 6
ENDMDL
MODEL 9
REMARK VINA RESULT:      -6.4      1.461      1.690
REMARK  Name = 
REMARK  10 active torsions:
REMARK  status: ('A' for Active; 'I' for Inactive)
REMARK    1  A    between atoms: C_1  and  O_2
REMARK    2  A    between atoms: O_2  and  C_3
REMARK    3  A    between atoms: C_8  and  N_9
REMARK    4  A    between atoms: C_10  and  C_12
REMARK    5  A    between atoms: C_12  and  N_13
REMARK    6  A    between atoms: C_16  and  N_17
REMARK    7  A    between atoms: N_17  and  C_18
REMARK    8  A    between atoms: N_17  and  C_19
REMARK    9  A    between atoms: C_20  and  N_21
REMARK   10  A    between atoms: N_22  and  C_23
REMARK                            x       y       z     vdW  Elec       q    Type
REMARK                         _______ _______ _______ _____ _____    ______ ____
ROOT
ATOM      1  N   UNL     1       3.228   6.180  18.728  0.00  0.00    +0.000 N 
ATOM      2  C   UNL     1       2.465   5.052  18.843  0.00  0.00    +0.000 A 
ATOM      3  O   UNL     1       1.286   5.051  18.480  0.00  0.00    +0.000 OA
ATOM      4  C   UNL     1       3.129   3.826  19.420  0.00  0.00    +0.000 A 
ATOM      5  C   UNL     1       4.462   3.740  19.143  0.00  0.00    +0.000 A 
ATOM      6  N   UNL     1       5.131   4.806  18.551  0.00  0.00    +0.000 N 
ATOM      7  C   UNL     1       6.515   4.714  18.108  0.00  0.00    +0.000 C 
ATOM      8  C   UNL     1       4.550   6.063  18.364  0.00  0.00    +0.000 A 
ATOM      9  O   UNL     1       5.168   6.986  17.828  0.00  0.00    +0.000 OA
ENDROOT
BRANCH   4  10
ATOM     10  N   UNL     1       2.347   2.818  20.071  0.00  0.00    +0.000 N 
ATOM     11  C   UNL     1       1.822   3.031  21.434  0.00  0.00    +0.000 C 
ATOM     12  C   UNL     1       1.466   1.896  19.330  0.00  0.00    +0.000 C 
ENDBRANCH   4  10
BRANCH   5  13
ATOM     13  N   UNL     1       5.117   2.538  19.414  0.00  0.00    +0.000 N 
ATOM     14  H   UNL     1       4.466   1.764  19.269  0.00  0.00    +0.000 HD
ATOM     15  H   UNL     1       5.956   2.396  18.872  0.00  0.00    +0.000 HD
ENDBRANCH   5  13
BRANCH   1  16
ATOM     16  C   UNL     1       2.530   7.412  18.374  0.00  0.00    +0.000 C 
BRANCH  16  18
ATOM     17  N   UNL     1       1.113   9.174  19.339  0.00  0.00    +0.000 N 
ATOM     18  C   UNL     1       1.854   8.025  19.601  0.00  0.00    +0.000 C 
ATOM     19  O   UNL     1       1.938   7.464  20.693  0.00  0.00    +0.000 OA
ATOM     20  H   UNL     1       0.803   9.318  18.375  0.00  0.00    +0.000 HD
BRANCH  17  26
ATOM     21  C   UNL     1       0.238  11.368  19.989  0.00  0.00    +0.000 A 
ATOM     22  C   UNL     1      -0.317  12.208  20.968  0.00  0.00    +0.000 A 
ATOM     23  C   UNL     1      -0.632  11.717  22.234  0.00  0.00    +0.000 A 
ATOM     24  C   UNL     1      -0.372  10.390  22.543  0.00  0.00    +0.000 A 
ATOM     25  C   UNL     1       0.210   9.554  21.591  0.00  0.00    +0.000 A 
ATOM     26  C   UNL     1       0.514  10.021  20.306  0.00  0.00    +0.000 A 
BRANCH  21  28
ATOM     27  C   UNL     1      -0.125  13.002  18.311  0.00  0.00    +0.000 C 
ATOM     28  O   UNL     1       0.530  11.797  18.713  0.00  0.00    +0.000 OA
ENDBRANCH  21  28
ENDBRANCH  17  26
ENDBRANCH  16  18
ENDBRANCH   1  16
TORSDOF 6
ENDMDL
