MODEL 1
REMARK VINA RESULT:      -8.6      0.000      0.000
REMARK  Name = 
REMARK  5 active torsions:
REMARK  status: ('A' for Active; 'I' for Inactive)
REMARK    1  A    between atoms: C_2  and  C_3
REMARK    2  A    between atoms: C_6  and  C_7
REMARK    3  A    between atoms: C_9  and  C_10
REMARK    4  A    between atoms: N_24  and  C_25
REMARK    5  A    between atoms: C_25  and  C_26
REMARK                            x       y       z     vdW  Elec       q    Type
REMARK                         _______ _______ _______ _____ _____    ______ ____
ROOT
ATOM      1  O   UNL     1      -2.748  11.239  18.963  0.00  0.00    +0.000 OA
ATOM      2  C   UNL     1      -1.828  11.390  19.767  0.00  0.00    +0.000 C 
ATOM      3  N   UNL     1      -1.901  12.296  20.823  0.00  0.00    +0.000 N 
ATOM      4  C   UNL     1      -0.964  12.435  21.943  0.00  0.00    +0.000 C 
ATOM      5  C   UNL     1      -0.757  13.924  22.292  0.00  0.00    +0.000 C 
ATOM      6  N   UNL     1      -2.011  14.609  22.670  0.00  0.00    +0.000 NA
ATOM      7  C   UNL     1      -2.986  14.423  21.561  0.00  0.00    +0.000 C 
ATOM      8  C   UNL     1      -3.182  12.977  21.057  0.00  0.00    +0.000 C 
ENDROOT
BRANCH   2   9
ATOM      9  C   UNL     1      -0.650  10.506  19.606  0.00  0.00    +0.000 A 
ATOM     10  C   UNL     1      -0.202   9.653  20.610  0.00  0.00    +0.000 A 
ATOM     11  C   UNL     1       0.785   8.708  20.332  0.00  0.00    +0.000 A 
ATOM     12  C   UNL     1       1.442   8.702  19.093  0.00  0.00    +0.000 A 
ATOM     13  C   UNL     1       1.085   9.660  18.135  0.00  0.00    +0.000 A 
ATOM     14  C   UNL     1       0.037  10.549  18.384  0.00  0.00    +0.000 A 
BRANCH  12  15
ATOM     15  C   UNL     1       2.495   7.727  18.867  0.00  0.00    +0.000 A 
ATOM     16  N   UNL     1       3.275   7.575  17.821  0.00  0.00    +0.000 NA
ATOM     17  C   UNL     1       4.001   6.455  18.152  0.00  0.00    +0.000 A 
ATOM     18  N   UNL     1       3.705   5.948  19.361  0.00  0.00    +0.000 NA
ATOM     19  O   UNL     1       2.707   6.793  19.836  0.00  0.00    +0.000 OA
BRANCH  17  20
ATOM     20  C   UNL     1       4.991   5.882  17.249  0.00  0.00    +0.000 A 
ATOM     21  C   UNL     1       4.839   6.010  15.857  0.00  0.00    +0.000 A 
ATOM     22  C   UNL     1       5.790   5.459  14.993  0.00  0.00    +0.000 A 
ATOM     23  C   UNL     1       6.881   4.782  15.517  0.00  0.00    +0.000 A 
ATOM     24  F   UNL     1       7.794   4.248  14.682  0.00  0.00    +0.000 F 
ATOM     25  C   UNL     1       7.049   4.640  16.887  0.00  0.00    +0.000 A 
ATOM     26  C   UNL     1       6.100   5.188  17.754  0.00  0.00    +0.000 A 
ENDBRANCH  17  20
ENDBRANCH  12  15
ENDBRANCH   2   9
BRANCH   6  27
ATOM     27  C   UNL     1      -2.445  14.121  23.996  0.00  0.00    +0.000 C 
BRANCH  27  28
ATOM     28  C   UNL     1      -3.936  14.150  24.202  0.00  0.00    +0.000 A 
ATOM     29  C   UNL     1      -4.663  15.358  24.079  0.00  0.00    +0.000 A 
ATOM     30  C   UNL     1      -6.052  15.335  23.941  0.00  0.00    +0.000 A 
ATOM     31  C   UNL     1      -6.650  14.096  23.882  0.00  0.00    +0.000 A 
ATOM     32  C   UNL     1      -5.951  12.930  24.111  0.00  0.00    +0.000 A 
ATOM     33  C   UNL     1      -4.602  12.924  24.335  0.00  0.00    +0.000 A 
ATOM     34  O   UNL     1      -6.705  11.820  23.876  0.00  0.00    +0.000 OA
ATOM     35  C   UNL     1      -7.741  12.442  23.093  0.00  0.00    +0.000 C 
ATOM     36  O   UNL     1      -7.915  13.834  23.443  0.00  0.00    +0.000 OA
ENDBRANCH  27  28
ENDBRANCH   6  27
TORSDOF 5
ENDMDL
MODEL 2
REMARK VINA RESULT:      -8.5      3.852      6.414
REMARK  Name = 
REMARK  5 active torsions:
REMARK  status: ('A' for Active; 'I' for Inactive)
REMARK    1  A    between atoms: C_2  and  C_3
REMARK    2  A    between atoms: C_6  and  C_7
REMARK    3  A    between atoms: C_9  and  C_10
REMARK    4  A    between atoms: N_24  and  C_25
REMARK    5  A    between atoms: C_25  and  C_26
REMARK                            x       y       z     vdW  Elec       q    Type
REMARK                         _______ _______ _______ _____ _____    ______ ____
ROOT
ATOM      1  O   UNL     1      -0.155   8.497  21.599  0.00  0.00    +0.000 OA
ATOM      2  C   UNL     1       0.504   9.096  20.748  0.00  0.00    +0.000 C 
ATOM      3  N   UNL     1       0.490  10.484  20.635  0.00  0.00    +0.000 N 
ATOM      4  C   UNL     1       1.360  11.318  19.798  0.00  0.00    +0.000 C 
ATOM      5  C   UNL     1       0.559  12.485  19.183  0.00  0.00    +0.000 C 
ATOM      6  N   UNL     1      -0.058  13.362  20.201  0.00  0.00    +0.000 NA
ATOM      7  C   UNL     1      -0.898  12.513  21.087  0.00  0.00    +0.000 C 
ATOM      8  C   UNL     1      -0.223  11.251  21.667  0.00  0.00    +0.000 C 
ENDROOT
BRANCH   2   9
ATOM      9  C   UNL     1       1.380   8.272  19.882  0.00  0.00    +0.000 A 
ATOM     10  C   UNL     1       1.784   8.677  18.613  0.00  0.00    +0.000 A 
ATOM     11  C   UNL     1       2.760   7.953  17.930  0.00  0.00    +0.000 A 
ATOM     12  C   UNL     1       3.237   6.736  18.439  0.00  0.00    +0.000 A 
ATOM     13  C   UNL     1       2.719   6.262  19.651  0.00  0.00    +0.000 A 
ATOM     14  C   UNL     1       1.805   7.030  20.375  0.00  0.00    +0.000 A 
BRANCH  12  15
ATOM     15  C   UNL     1       4.222   5.996  17.669  0.00  0.00    +0.000 A 
ATOM     16  N   UNL     1       4.486   6.055  16.383  0.00  0.00    +0.000 NA
ATOM     17  C   UNL     1       5.443   5.079  16.232  0.00  0.00    +0.000 A 
ATOM     18  N   UNL     1       5.778   4.458  17.376  0.00  0.00    +0.000 NA
ATOM     19  O   UNL     1       4.969   5.068  18.330  0.00  0.00    +0.000 OA
BRANCH  17  20
ATOM     20  C   UNL     1       6.019   4.757  14.933  0.00  0.00    +0.000 A 
ATOM     21  C   UNL     1       7.230   5.347  14.529  0.00  0.00    +0.000 A 
ATOM     22  C   UNL     1       7.780   5.036  13.281  0.00  0.00    +0.000 A 
ATOM     23  C   UNL     1       7.122   4.147  12.444  0.00  0.00    +0.000 A 
ATOM     24  F   UNL     1       7.652   3.854  11.240  0.00  0.00    +0.000 F 
ATOM     25  C   UNL     1       5.924   3.558  12.820  0.00  0.00    +0.000 A 
ATOM     26  C   UNL     1       5.370   3.866  14.065  0.00  0.00    +0.000 A 
ENDBRANCH  17  20
ENDBRANCH  12  15
ENDBRANCH   2   9
BRANCH   6  27
ATOM     27  C   UNL     1       1.004  14.141  20.872  0.00  0.00    +0.000 C 
BRANCH  27  28
ATOM     28  C   UNL     1       1.940  14.844  19.926  0.00  0.00    +0.000 A 
ATOM     29  C   UNL     1       1.512  15.970  19.182  0.00  0.00    +0.000 A 
ATOM     30  C   UNL     1       2.445  16.809  18.572  0.00  0.00    +0.000 A 
ATOM     31  C   UNL     1       3.774  16.513  18.775  0.00  0.00    +0.000 A 
ATOM     32  C   UNL     1       4.181  15.357  19.408  0.00  0.00    +0.000 A 
ATOM     33  C   UNL     1       3.291  14.469  19.942  0.00  0.00    +0.000 A 
ATOM     34  O   UNL     1       5.528  15.328  19.614  0.00  0.00    +0.000 OA
ATOM     35  C   UNL     1       5.789  16.733  19.437  0.00  0.00    +0.000 C 
ATOM     36  O   UNL     1       4.828  17.350  18.551  0.00  0.00    +0.000 OA
ENDBRANCH  27  28
ENDBRANCH   6  27
TORSDOF 5
ENDMDL
MODEL 3
REMARK VINA RESULT:      -8.4      4.112      6.675
REMARK  Name = 
REMARK  5 active torsions:
REMARK  status: ('A' for Active; 'I' for Inactive)
REMARK    1  A    between atoms: C_2  and  C_3
REMARK    2  A    between atoms: C_6  and  C_7
REMARK    3  A    between atoms: C_9  and  C_10
REMARK    4  A    between atoms: N_24  and  C_25
REMARK    5  A    between atoms: C_25  and  C_26
REMARK                            x       y       z     vdW  Elec       q    Type
REMARK                         _______ _______ _______ _____ _____    ______ ____
ROOT
ATOM      1  O   UNL     1      -0.346   9.135  21.430  0.00  0.00    +0.000 OA
ATOM      2  C   UNL     1       0.446   9.631  20.628  0.00  0.00    +0.000 C 
ATOM      3  N   UNL     1       0.640  11.006  20.524  0.00  0.00    +0.000 N 
ATOM      4  C   UNL     1       1.673  11.705  19.752  0.00  0.00    +0.000 C 
ATOM      5  C   UNL     1       1.091  12.974  19.094  0.00  0.00    +0.000 C 
ATOM      6  N   UNL     1       0.542  13.933  20.076  0.00  0.00    +0.000 NA
ATOM      7  C   UNL     1      -0.468  13.215  20.901  0.00  0.00    +0.000 C 
ATOM      8  C   UNL     1      -0.021  11.870  21.513  0.00  0.00    +0.000 C 
ENDROOT
BRANCH   2   9
ATOM      9  C   UNL     1       1.249   8.688  19.814  0.00  0.00    +0.000 A 
ATOM     10  C   UNL     1       1.529   8.901  18.468  0.00  0.00    +0.000 A 
ATOM     11  C   UNL     1       2.447   8.083  17.810  0.00  0.00    +0.000 A 
ATOM     12  C   UNL     1       2.985   6.954  18.445  0.00  0.00    +0.000 A 
ATOM     13  C   UNL     1       2.586   6.664  19.757  0.00  0.00    +0.000 A 
ATOM     14  C   UNL     1       1.733   7.532  20.443  0.00  0.00    +0.000 A 
BRANCH  12  15
ATOM     15  C   UNL     1       3.904   6.108  17.704  0.00  0.00    +0.000 A 
ATOM     16  N   UNL     1       4.343   6.238  16.473  0.00  0.00    +0.000 NA
ATOM     17  C   UNL     1       5.108   5.106  16.310  0.00  0.00    +0.000 A 
ATOM     18  N   UNL     1       5.162   4.321  17.399  0.00  0.00    +0.000 NA
ATOM     19  O   UNL     1       4.365   4.986  18.325  0.00  0.00    +0.000 OA
BRANCH  17  20
ATOM     20  C   UNL     1       5.779   4.803  15.053  0.00  0.00    +0.000 A 
ATOM     21  C   UNL     1       5.185   3.930  14.124  0.00  0.00    +0.000 A 
ATOM     22  C   UNL     1       5.832   3.642  12.918  0.00  0.00    +0.000 A 
ATOM     23  C   UNL     1       7.064   4.217  12.647  0.00  0.00    +0.000 A 
ATOM     24  F   UNL     1       7.687   3.933  11.486  0.00  0.00    +0.000 F 
ATOM     25  C   UNL     1       7.670   5.078  13.550  0.00  0.00    +0.000 A 
ATOM     26  C   UNL     1       7.028   5.368  14.757  0.00  0.00    +0.000 A 
ENDBRANCH  17  20
ENDBRANCH  12  15
ENDBRANCH   2   9
BRANCH   6  27
ATOM     27  C   UNL     1       1.658  14.551  20.821  0.00  0.00    +0.000 C 
BRANCH  27  28
ATOM     28  C   UNL     1       2.737  15.126  19.942  0.00  0.00    +0.000 A 
ATOM     29  C   UNL     1       2.425  16.054  18.920  0.00  0.00    +0.000 A 
ATOM     30  C   UNL     1       3.430  16.827  18.336  0.00  0.00    +0.000 A 
ATOM     31  C   UNL     1       4.703  16.671  18.837  0.00  0.00    +0.000 A 
ATOM     32  C   UNL     1       5.018  15.691  19.754  0.00  0.00    +0.000 A 
ATOM     33  C   UNL     1       4.071  14.859  20.283  0.00  0.00    +0.000 A 
ATOM     34  O   UNL     1       6.298  15.799  20.208  0.00  0.00    +0.000 OA
ATOM     35  C   UNL     1       6.541  17.159  19.802  0.00  0.00    +0.000 C 
ATOM     36  O   UNL     1       5.752  17.524  18.647  0.00  0.00    +0.000 OA
ENDBRANCH  27  28
ENDBRANCH   6  27
TORSDOF 5
ENDMDL
MODEL 4
REMARK VINA RESULT:      -8.4      5.944      8.789
REMARK  Name = 
REMARK  5 active torsions:
REMARK  status: ('A' for Active; 'I' for Inactive)
REMARK    1  A    between atoms: C_2  and  C_3
REMARK    2  A    between atoms: C_6  and  C_7
REMARK    3  A    between atoms: C_9  and  C_10
REMARK    4  A    between atoms: N_24  and  C_25
REMARK    5  A    between atoms: C_25  and  C_26
REMARK                            x       y       z     vdW  Elec       q    Type
REMARK                         _______ _______ _______ _____ _____    ______ ____
ROOT
ATOM      1  O   UNL     1      -0.239  14.058  18.606  0.00  0.00    +0.000 OA
ATOM      2  C   UNL     1       0.904  13.610  18.702  0.00  0.00    +0.000 C 
ATOM      3  N   UNL     1       2.029  14.431  18.697  0.00  0.00    +0.000 N 
ATOM      4  C   UNL     1       3.415  14.045  18.988  0.00  0.00    +0.000 C 
ATOM      5  C   UNL     1       4.389  14.776  18.040  0.00  0.00    +0.000 C 
ATOM      6  N   UNL     1       4.303  16.248  18.147  0.00  0.00    +0.000 NA
ATOM      7  C   UNL     1       2.888  16.642  17.909  0.00  0.00    +0.000 C 
ATOM      8  C   UNL     1       1.819  15.886  18.728  0.00  0.00    +0.000 C 
ENDROOT
BRANCH   2   9
ATOM      9  C   UNL     1       1.032  12.147  18.897  0.00  0.00    +0.000 A 
ATOM     10  C   UNL     1       1.556  11.299  17.926  0.00  0.00    +0.000 A 
ATOM     11  C   UNL     1       1.831   9.968  18.239  0.00  0.00    +0.000 A 
ATOM     12  C   UNL     1       1.451   9.430  19.477  0.00  0.00    +0.000 A 
ATOM     13  C   UNL     1       0.793  10.256  20.398  0.00  0.00    +0.000 A 
ATOM     14  C   UNL     1       0.595  11.610  20.116  0.00  0.00    +0.000 A 
BRANCH  12  15
ATOM     15  C   UNL     1       1.720   8.027  19.740  0.00  0.00    +0.000 A 
ATOM     16  N   UNL     1       2.232   7.116  18.944  0.00  0.00    +0.000 NA
ATOM     17  C   UNL     1       2.166   5.978  19.714  0.00  0.00    +0.000 A 
ATOM     18  N   UNL     1       1.660   6.178  20.943  0.00  0.00    +0.000 NA
ATOM     19  O   UNL     1       1.366   7.538  20.962  0.00  0.00    +0.000 OA
BRANCH  17  20
ATOM     20  C   UNL     1       2.602   4.682  19.214  0.00  0.00    +0.000 A 
ATOM     21  C   UNL     1       2.092   3.498  19.774  0.00  0.00    +0.000 A 
ATOM     22  C   UNL     1       2.512   2.254  19.291  0.00  0.00    +0.000 A 
ATOM     23  C   UNL     1       3.439   2.197  18.261  0.00  0.00    +0.000 A 
ATOM     24  F   UNL     1       3.846   0.997  17.802  0.00  0.00    +0.000 F 
ATOM     25  C   UNL     1       3.960   3.352  17.697  0.00  0.00    +0.000 A 
ATOM     26  C   UNL     1       3.543   4.597  18.177  0.00  0.00    +0.000 A 
ENDBRANCH  17  20
ENDBRANCH  12  15
ENDBRANCH   2   9
BRANCH   6  27
ATOM     27  C   UNL     1       4.879  16.671  19.441  0.00  0.00    +0.000 C 
BRANCH  27  28
ATOM     28  C   UNL     1       6.331  16.311  19.612  0.00  0.00    +0.000 A 
ATOM     29  C   UNL     1       6.722  15.240  20.450  0.00  0.00    +0.000 A 
ATOM     30  C   UNL     1       8.005  14.700  20.354  0.00  0.00    +0.000 A 
ATOM     31  C   UNL     1       8.830  15.225  19.385  0.00  0.00    +0.000 A 
ATOM     32  C   UNL     1       8.482  16.337  18.648  0.00  0.00    +0.000 A 
ATOM     33  C   UNL     1       7.264  16.944  18.778  0.00  0.00    +0.000 A 
ATOM     34  O   UNL     1       9.384  16.607  17.663  0.00  0.00    +0.000 OA
ATOM     35  C   UNL     1      10.035  15.323  17.629  0.00  0.00    +0.000 C 
ATOM     36  O   UNL     1       9.976  14.657  18.911  0.00  0.00    +0.000 OA
ENDBRANCH  27  28
ENDBRANCH   6  27
TORSDOF 5
ENDMDL
MODEL 5
REMARK VINA RESULT:      -8.2      3.405      5.359
REMARK  Name = 
REMARK  5 active torsions:
REMARK  status: ('A' for Active; 'I' for Inactive)
REMARK    1  A    between atoms: C_2  and  C_3
REMARK    2  A    between atoms: C_6  and  C_7
REMARK    3  A    between atoms: C_9  and  C_10
REMARK    4  A    between atoms: N_24  and  C_25
REMARK    5  A    between atoms: C_25  and  C_26
REMARK                            x       y       z     vdW  Elec       q    Type
REMARK                         _______ _______ _______ _____ _____    ______ ____
ROOT
ATOM      1  O   UNL     1      -0.563   8.943  22.484  0.00  0.00    +0.000 OA
ATOM      2  C   UNL     1       0.041   9.469  21.549  0.00  0.00    +0.000 C 
ATOM      3  N   UNL     1       0.022  10.844  21.329  0.00  0.00    +0.000 N 
ATOM      4  C   UNL     1       0.838  11.606  20.376  0.00  0.00    +0.000 C 
ATOM      5  C   UNL     1       0.001  12.726  19.723  0.00  0.00    +0.000 C 
ATOM      6  N   UNL     1      -0.549  13.683  20.706  0.00  0.00    +0.000 NA
ATOM      7  C   UNL     1      -1.332  12.911  21.708  0.00  0.00    +0.000 C 
ATOM      8  C   UNL     1      -0.623  11.694  22.340  0.00  0.00    +0.000 C 
ENDROOT
BRANCH   2   9
ATOM      9  C   UNL     1       0.859   8.575  20.697  0.00  0.00    +0.000 A 
ATOM     10  C   UNL     1       1.277   8.926  19.417  0.00  0.00    +0.000 A 
ATOM     11  C   UNL     1       2.203   8.130  18.744  0.00  0.00    +0.000 A 
ATOM     12  C   UNL     1       2.610   6.898  19.277  0.00  0.00    +0.000 A 
ATOM     13  C   UNL     1       2.072   6.483  20.503  0.00  0.00    +0.000 A 
ATOM     14  C   UNL     1       1.212   7.321  21.215  0.00  0.00    +0.000 A 
BRANCH  12  15
ATOM     15  C   UNL     1       3.542   6.082  18.518  0.00  0.00    +0.000 A 
ATOM     16  N   UNL     1       3.984   6.249  17.292  0.00  0.00    +0.000 NA
ATOM     17  C   UNL     1       4.764   5.132  17.103  0.00  0.00    +0.000 A 
ATOM     18  N   UNL     1       4.825   4.320  18.172  0.00  0.00    +0.000 NA
ATOM     19  O   UNL     1       4.016   4.951  19.112  0.00  0.00    +0.000 OA
BRANCH  17  20
ATOM     20  C   UNL     1       5.443   4.870  15.841  0.00  0.00    +0.000 A 
ATOM     21  C   UNL     1       4.825   4.084  14.853  0.00  0.00    +0.000 A 
ATOM     22  C   UNL     1       5.480   3.835  13.643  0.00  0.00    +0.000 A 
ATOM     23  C   UNL     1       6.744   4.363  13.426  0.00  0.00    +0.000 A 
ATOM     24  F   UNL     1       7.374   4.116  12.260  0.00  0.00    +0.000 F 
ATOM     25  C   UNL     1       7.375   5.137  14.389  0.00  0.00    +0.000 A 
ATOM     26  C   UNL     1       6.724   5.388  15.600  0.00  0.00    +0.000 A 
ENDBRANCH  17  20
ENDBRANCH  12  15
ENDBRANCH   2   9
BRANCH   6  27
ATOM     27  C   UNL     1       0.554  14.505  21.245  0.00  0.00    +0.000 C 
BRANCH  27  28
ATOM     28  C   UNL     1       0.951  15.656  20.360  0.00  0.00    +0.000 A 
ATOM     29  C   UNL     1       2.202  15.669  19.699  0.00  0.00    +0.000 A 
ATOM     30  C   UNL     1       2.434  16.547  18.640  0.00  0.00    +0.000 A 
ATOM     31  C   UNL     1       1.380  17.346  18.254  0.00  0.00    +0.000 A 
ATOM     32  C   UNL     1       0.203  17.406  18.968  0.00  0.00    +0.000 A 
ATOM     33  C   UNL     1      -0.024  16.620  20.063  0.00  0.00    +0.000 A 
ATOM     34  O   UNL     1      -0.745  18.156  18.340  0.00  0.00    +0.000 OA
ATOM     35  C   UNL     1      -0.160  18.160  17.025  0.00  0.00    +0.000 C 
ATOM     36  O   UNL     1       1.278  18.028  17.076  0.00  0.00    +0.000 OA
ENDBRANCH  27  28
ENDBRANCH   6  27
TORSDOF 5
ENDMDL
MODEL 6
REMARK VINA RESULT:      -8.1      3.346      5.129
REMARK  Name = 
REMARK  5 active torsions:
REMARK  status: ('A' for Active; 'I' for Inactive)
REMARK    1  A    between atoms: C_2  and  C_3
REMARK    2  A    between atoms: C_6  and  C_7
REMARK    3  A    between atoms: C_9  and  C_10
REMARK    4  A    between atoms: N_24  and  C_25
REMARK    5  A    between atoms: C_25  and  C_26
REMARK                            x       y       z     vdW  Elec       q    Type
REMARK                         _______ _______ _______ _____ _____    ______ ____
ROOT
ATOM      1  O   UNL     1      -1.965  10.807  23.465  0.00  0.00    +0.000 OA
ATOM      2  C   UNL     1      -1.236  11.214  22.559  0.00  0.00    +0.000 C 
ATOM      3  N   UNL     1      -1.222  12.547  22.155  0.00  0.00    +0.000 N 
ATOM      4  C   UNL     1      -0.281  13.188  21.230  0.00  0.00    +0.000 C 
ATOM      5  C   UNL     1      -1.017  14.197  20.324  0.00  0.00    +0.000 C 
ATOM      6  N   UNL     1      -1.696  15.268  21.084  0.00  0.00    +0.000 NA
ATOM      7  C   UNL     1      -2.611  14.623  22.064  0.00  0.00    +0.000 C 
ATOM      8  C   UNL     1      -1.999  13.513  22.946  0.00  0.00    +0.000 C 
ENDROOT
BRANCH   2   9
ATOM      9  C   UNL     1      -0.310  10.228  21.955  0.00  0.00    +0.000 A 
ATOM     10  C   UNL     1      -0.034   8.995  22.538  0.00  0.00    +0.000 A 
ATOM     11  C   UNL     1       0.688   8.036  21.828  0.00  0.00    +0.000 A 
ATOM     12  C   UNL     1       1.271   8.348  20.591  0.00  0.00    +0.000 A 
ATOM     13  C   UNL     1       1.109   9.641  20.077  0.00  0.00    +0.000 A 
ATOM     14  C   UNL     1       0.314  10.572  20.748  0.00  0.00    +0.000 A 
BRANCH  12  15
ATOM     15  C   UNL     1       2.051   7.329  19.911  0.00  0.00    +0.000 A 
ATOM     16  N   UNL     1       2.758   7.424  18.808  0.00  0.00    +0.000 NA
ATOM     17  C   UNL     1       3.194   6.132  18.622  0.00  0.00    +0.000 A 
ATOM     18  N   UNL     1       2.797   5.278  19.581  0.00  0.00    +0.000 NA
ATOM     19  O   UNL     1       2.041   6.072  20.438  0.00  0.00    +0.000 OA
BRANCH  17  20
ATOM     20  C   UNL     1       4.002   5.748  17.473  0.00  0.00    +0.000 A 
ATOM     21  C   UNL     1       4.504   6.729  16.600  0.00  0.00    +0.000 A 
ATOM     22  C   UNL     1       5.280   6.357  15.498  0.00  0.00    +0.000 A 
ATOM     23  C   UNL     1       5.548   5.015  15.269  0.00  0.00    +0.000 A 
ATOM     24  F   UNL     1       6.293   4.660  14.204  0.00  0.00    +0.000 F 
ATOM     25  C   UNL     1       5.060   4.030  16.116  0.00  0.00    +0.000 A 
ATOM     26  C   UNL     1       4.283   4.398  17.218  0.00  0.00    +0.000 A 
ENDBRANCH  17  20
ENDBRANCH  12  15
ENDBRANCH   2   9
BRANCH   6  27
ATOM     27  C   UNL     1      -0.676  16.172  21.655  0.00  0.00    +0.000 C 
BRANCH  27  28
ATOM     28  C   UNL     1      -0.048  17.100  20.649  0.00  0.00    +0.000 A 
ATOM     29  C   UNL     1       1.357  17.160  20.494  0.00  0.00    +0.000 A 
ATOM     30  C   UNL     1       1.919  17.754  19.362  0.00  0.00    +0.000 A 
ATOM     31  C   UNL     1       1.044  18.219  18.407  0.00  0.00    +0.000 A 
ATOM     32  C   UNL     1      -0.319  18.255  18.613  0.00  0.00    +0.000 A 
ATOM     33  C   UNL     1      -0.896  17.760  19.749  0.00  0.00    +0.000 A 
ATOM     34  O   UNL     1      -1.001  18.631  17.495  0.00  0.00    +0.000 OA
ATOM     35  C   UNL     1       0.042  18.390  16.532  0.00  0.00    +0.000 C 
ATOM     36  O   UNL     1       1.356  18.537  17.117  0.00  0.00    +0.000 OA
ENDBRANCH  27  28
ENDBRANCH   6  27
TORSDOF 5
ENDMDL
MODEL 7
REMARK VINA RESULT:      -8.1      6.000      8.675
REMARK  Name = 
REMARK  5 active torsions:
REMARK  status: ('A' for Active; 'I' for Inactive)
REMARK    1  A    between atoms: C_2  and  C_3
REMARK    2  A    between atoms: C_6  and  C_7
REMARK    3  A    between atoms: C_9  and  C_10
REMARK    4  A    between atoms: N_24  and  C_25
REMARK    5  A    between atoms: C_25  and  C_26
REMARK                            x       y       z     vdW  Elec       q    Type
REMARK                         _______ _______ _______ _____ _____    ______ ____
ROOT
ATOM      1  O   UNL     1      -0.156  13.926  18.586  0.00  0.00    +0.000 OA
ATOM      2  C   UNL     1       1.024  13.619  18.761  0.00  0.00    +0.000 C 
ATOM      3  N   UNL     1       2.051  14.559  18.730  0.00  0.00    +0.000 N 
ATOM      4  C   UNL     1       3.456  14.355  19.102  0.00  0.00    +0.000 C 
ATOM      5  C   UNL     1       4.387  15.116  18.134  0.00  0.00    +0.000 C 
ATOM      6  N   UNL     1       4.135  16.573  18.117  0.00  0.00    +0.000 NA
ATOM      7  C   UNL     1       2.698  16.785  17.795  0.00  0.00    +0.000 C 
ATOM      8  C   UNL     1       1.682  15.978  18.633  0.00  0.00    +0.000 C 
ENDROOT
BRANCH   2   9
ATOM      9  C   UNL     1       1.302  12.199  19.080  0.00  0.00    +0.000 A 
ATOM     10  C   UNL     1       0.979  11.622  20.304  0.00  0.00    +0.000 A 
ATOM     11  C   UNL     1       1.086  10.242  20.473  0.00  0.00    +0.000 A 
ATOM     12  C   UNL     1       1.657   9.440  19.474  0.00  0.00    +0.000 A 
ATOM     13  C   UNL     1       2.114  10.050  18.298  0.00  0.00    +0.000 A 
ATOM     14  C   UNL     1       1.927  11.420  18.096  0.00  0.00    +0.000 A 
BRANCH  12  15
ATOM     15  C   UNL     1       1.789   8.014  19.714  0.00  0.00    +0.000 A 
ATOM     16  N   UNL     1       2.378   7.099  18.979  0.00  0.00    +0.000 NA
ATOM     17  C   UNL     1       2.106   5.941  19.671  0.00  0.00    +0.000 A 
ATOM     18  N   UNL     1       1.401   6.131  20.799  0.00  0.00    +0.000 NA
ATOM     19  O   UNL     1       1.192   7.506  20.829  0.00  0.00    +0.000 OA
BRANCH  17  20
ATOM     20  C   UNL     1       2.545   4.636  19.195  0.00  0.00    +0.000 A 
ATOM     21  C   UNL     1       3.793   4.122  19.587  0.00  0.00    +0.000 A 
ATOM     22  C   UNL     1       4.212   2.868  19.129  0.00  0.00    +0.000 A 
ATOM     23  C   UNL     1       3.391   2.139  18.281  0.00  0.00    +0.000 A 
ATOM     24  F   UNL     1       3.800   0.934  17.837  0.00  0.00    +0.000 F 
ATOM     25  C   UNL     1       2.158   2.630  17.877  0.00  0.00    +0.000 A 
ATOM     26  C   UNL     1       1.736   3.882  18.332  0.00  0.00    +0.000 A 
ENDBRANCH  17  20
ENDBRANCH  12  15
ENDBRANCH   2   9
BRANCH   6  27
ATOM     27  C   UNL     1       4.602  17.156  19.391  0.00  0.00    +0.000 C 
BRANCH  27  28
ATOM     28  C   UNL     1       6.063  16.923  19.673  0.00  0.00    +0.000 A 
ATOM     29  C   UNL     1       6.475  16.162  20.793  0.00  0.00    +0.000 A 
ATOM     30  C   UNL     1       7.779  15.672  20.873  0.00  0.00    +0.000 A 
ATOM     31  C   UNL     1       8.604  15.923  19.800  0.00  0.00    +0.000 A 
ATOM     32  C   UNL     1       8.231  16.754  18.765  0.00  0.00    +0.000 A 
ATOM     33  C   UNL     1       6.989  17.321  18.699  0.00  0.00    +0.000 A 
ATOM     34  O   UNL     1       9.142  16.759  17.752  0.00  0.00    +0.000 OA
ATOM     35  C   UNL     1       9.841  15.550  18.103  0.00  0.00    +0.000 C 
ATOM     36  O   UNL     1       9.780  15.288  19.523  0.00  0.00    +0.000 OA
ENDBRANCH  27  28
ENDBRANCH   6  27
TORSDOF 5
ENDMDL
MODEL 8
REMARK VINA RESULT:      -8.0      3.500      5.709
REMARK  Name = 
REMARK  5 active torsions:
REMARK  status: ('A' for Active; 'I' for Inactive)
REMARK    1  A    between atoms: C_2  and  C_3
REMARK    2  A    between atoms: C_6  and  C_7
REMARK    3  A    between atoms: C_9  and  C_10
REMARK    4  A    between atoms: N_24  and  C_25
REMARK    5  A    between atoms: C_25  and  C_26
REMARK                            x       y       z     vdW  Elec       q    Type
REMARK                         _______ _______ _______ _____ _____    ______ ____
ROOT
ATOM      1  O   UNL     1      -2.520  11.688  23.168  0.00  0.00    +0.000 OA
ATOM      2  C   UNL     1      -1.511  12.054  22.565  0.00  0.00    +0.000 C 
ATOM      3  N   UNL     1      -1.166  13.397  22.433  0.00  0.00    +0.000 N 
ATOM      4  C   UNL     1       0.088  13.947  21.906  0.00  0.00    +0.000 C 
ATOM      5  C   UNL     1      -0.190  15.201  21.051  0.00  0.00    +0.000 C 
ATOM      6  N   UNL     1      -0.869  16.276  21.805  0.00  0.00    +0.000 NA
ATOM      7  C   UNL     1      -2.115  15.709  22.388  0.00  0.00    +0.000 C 
ATOM      8  C   UNL     1      -1.964  14.387  23.171  0.00  0.00    +0.000 C 
ENDROOT
BRANCH   2   9
ATOM      9  C   UNL     1      -0.627  10.988  22.036  0.00  0.00    +0.000 A 
ATOM     10  C   UNL     1      -0.074   9.997  22.842  0.00  0.00    +0.000 A 
ATOM     11  C   UNL     1       0.586   8.915  22.259  0.00  0.00    +0.000 A 
ATOM     12  C   UNL     1       0.830   8.883  20.879  0.00  0.00    +0.000 A 
ATOM     13  C   UNL     1       0.395   9.957  20.092  0.00  0.00    +0.000 A 
ATOM     14  C   UNL     1      -0.341  10.998  20.664  0.00  0.00    +0.000 A 
BRANCH  12  15
ATOM     15  C   UNL     1       1.560   7.756  20.325  0.00  0.00    +0.000 A 
ATOM     16  N   UNL     1       2.301   7.698  19.242  0.00  0.00    +0.000 NA
ATOM     17  C   UNL     1       2.655   6.370  19.195  0.00  0.00    +0.000 A 
ATOM     18  N   UNL     1       2.176   5.639  20.217  0.00  0.00    +0.000 NA
ATOM     19  O   UNL     1       1.451   6.559  20.968  0.00  0.00    +0.000 OA
BRANCH  17  20
ATOM     20  C   UNL     1       3.468   5.825  18.116  0.00  0.00    +0.000 A 
ATOM     21  C   UNL     1       3.403   4.457  17.800  0.00  0.00    +0.000 A 
ATOM     22  C   UNL     1       4.184   3.937  16.763  0.00  0.00    +0.000 A 
ATOM     23  C   UNL     1       5.028   4.779  16.053  0.00  0.00    +0.000 A 
ATOM     24  F   UNL     1       5.783   4.274  15.058  0.00  0.00    +0.000 F 
ATOM     25  C   UNL     1       5.112   6.131  16.351  0.00  0.00    +0.000 A 
ATOM     26  C   UNL     1       4.333   6.654  17.386  0.00  0.00    +0.000 A 
ENDBRANCH  17  20
ENDBRANCH  12  15
ENDBRANCH   2   9
BRANCH   6  27
ATOM     27  C   UNL     1       0.084  16.863  22.769  0.00  0.00    +0.000 C 
BRANCH  27  28
ATOM     28  C   UNL     1       1.431  17.186  22.180  0.00  0.00    +0.000 A 
ATOM     29  C   UNL     1       2.624  16.874  22.876  0.00  0.00    +0.000 A 
ATOM     30  C   UNL     1       3.849  16.865  22.208  0.00  0.00    +0.000 A 
ATOM     31  C   UNL     1       3.822  17.120  20.856  0.00  0.00    +0.000 A 
ATOM     32  C   UNL     1       2.676  17.528  20.208  0.00  0.00    +0.000 A 
ATOM     33  C   UNL     1       1.474  17.632  20.851  0.00  0.00    +0.000 A 
ATOM     34  O   UNL     1       2.843  17.600  18.857  0.00  0.00    +0.000 OA
ATOM     35  C   UNL     1       4.033  16.795  18.759  0.00  0.00    +0.000 C 
ATOM     36  O   UNL     1       4.824  16.857  19.967  0.00  0.00    +0.000 OA
ENDBRANCH  27  28
ENDBRANCH   6  27
TORSDOF 5
ENDMDL
MODEL 9
REMARK VINA RESULT:      -8.0      3.460      4.521
REMARK  Name = 
REMARK  5 active torsions:
REMARK  status: ('A' for Active; 'I' for Inactive)
REMARK    1  A    between atoms: C_2  and  C_3
REMARK    2  A    between atoms: C_6  and  C_7
REMARK    3  A    between atoms: C_9  and  C_10
REMARK    4  A    between atoms: N_24  and  C_25
REMARK    5  A    between atoms: C_25  and  C_26
REMARK                            x       y       z     vdW  Elec       q    Type
REMARK                         _______ _______ _______ _____ _____    ______ ____
ROOT
ATOM      1  O   UNL     1       0.946   8.666  22.276  0.00  0.00    +0.000 OA
ATOM      2  C   UNL     1       0.981   9.032  21.101  0.00  0.00    +0.000 C 
ATOM      3  N   UNL     1       0.508  10.277  20.693  0.00  0.00    +0.000 N 
ATOM      4  C   UNL     1       0.660  10.899  19.373  0.00  0.00    +0.000 C 
ATOM      5  C   UNL     1      -0.631  11.645  18.976  0.00  0.00    +0.000 C 
ATOM      6  N   UNL     1      -0.999  12.711  19.932  0.00  0.00    +0.000 NA
ATOM      7  C   UNL     1      -1.100  12.097  21.284  0.00  0.00    +0.000 C 
ATOM      8  C   UNL     1       0.096  11.230  21.734  0.00  0.00    +0.000 C 
ENDROOT
BRANCH   2   9
ATOM      9  C   UNL     1       1.619   8.108  20.134  0.00  0.00    +0.000 A 
ATOM     10  C   UNL     1       1.905   8.469  18.821  0.00  0.00    +0.000 A 
ATOM     11  C   UNL     1       2.679   7.629  18.021  0.00  0.00    +0.000 A 
ATOM     12  C   UNL     1       3.052   6.354  18.472  0.00  0.00    +0.000 A 
ATOM     13  C   UNL     1       2.636   5.940  19.744  0.00  0.00    +0.000 A 
ATOM     14  C   UNL     1       1.935   6.816  20.576  0.00  0.00    +0.000 A 
BRANCH  12  15
ATOM     15  C   UNL     1       3.820   5.497  17.585  0.00  0.00    +0.000 A 
ATOM     16  N   UNL     1       4.460   5.807  16.480  0.00  0.00    +0.000 NA
ATOM     17  C   UNL     1       4.920   4.584  16.051  0.00  0.00    +0.000 A 
ATOM     18  N   UNL     1       4.602   3.563  16.866  0.00  0.00    +0.000 NA
ATOM     19  O   UNL     1       3.875   4.169  17.886  0.00  0.00    +0.000 OA
BRANCH  17  20
ATOM     20  C   UNL     1       5.672   4.433  14.813  0.00  0.00    +0.000 A 
ATOM     21  C   UNL     1       6.912   5.075  14.654  0.00  0.00    +0.000 A 
ATOM     22  C   UNL     1       7.632   4.929  13.464  0.00  0.00    +0.000 A 
ATOM     23  C   UNL     1       7.113   4.150  12.441  0.00  0.00    +0.000 A 
ATOM     24  F   UNL     1       7.807   4.015  11.293  0.00  0.00    +0.000 F 
ATOM     25  C   UNL     1       5.889   3.511  12.573  0.00  0.00    +0.000 A 
ATOM     26  C   UNL     1       5.166   3.656  13.760  0.00  0.00    +0.000 A 
ENDBRANCH  17  20
ENDBRANCH  12  15
ENDBRANCH   2   9
BRANCH   6  27
ATOM     27  C   UNL     1      -0.039  13.827  19.803  0.00  0.00    +0.000 C 
BRANCH  27  28
ATOM     28  C   UNL     1      -0.390  15.036  20.628  0.00  0.00    +0.000 A 
ATOM     29  C   UNL     1      -1.601  15.737  20.414  0.00  0.00    +0.000 A 
ATOM     30  C   UNL     1      -2.078  16.632  21.372  0.00  0.00    +0.000 A 
ATOM     31  C   UNL     1      -1.344  16.751  22.531  0.00  0.00    +0.000 A 
ATOM     32  C   UNL     1      -0.114  16.149  22.687  0.00  0.00    +0.000 A 
ATOM     33  C   UNL     1       0.423  15.334  21.731  0.00  0.00    +0.000 A 
ATOM     34  O   UNL     1       0.374  16.291  23.951  0.00  0.00    +0.000 OA
ATOM     35  C   UNL     1      -0.859  16.646  24.605  0.00  0.00    +0.000 C 
ATOM     36  O   UNL     1      -1.774  17.306  23.702  0.00  0.00    +0.000 OA
ENDBRANCH  27  28
ENDBRANCH   6  27
TORSDOF 5
ENDMDL
