MODEL 1
REMARK VINA RESULT:      -8.7      0.000      0.000
REMARK  Name = 
REMARK  9 active torsions:
REMARK  status: ('A' for Active; 'I' for Inactive)
REMARK    1  A    between atoms: C_1  and  C_2
REMARK    2  A    between atoms: C_5  and  C_6
REMARK    3  A    between atoms: C_12  and  C_13
REMARK    4  A    between atoms: C_16  and  C_17
REMARK    5  A    between atoms: C_18  and  C_19
REMARK    6  A    between atoms: C_19  and  C_20
REMARK    7  A    between atoms: C_20  and  C_21
REMARK    8  A    between atoms: N_23  and  C_24
REMARK    9  A    between atoms: C_24  and  C_25
REMARK                            x       y       z     vdW  Elec       q    Type
REMARK                         _______ _______ _______ _____ _____    ______ ____
ROOT
ATOM      1  C   UNL     1       1.840   4.117  21.487  0.00  0.00    +0.000 C 
ATOM      2  C   UNL     1       2.053   5.203  20.455  0.00  0.00    +0.000 A 
ATOM      3  N   UNL     1       1.575   6.375  20.772  0.00  0.00    +0.000 NA
ATOM      4  C   UNL     1       1.757   7.404  19.887  0.00  0.00    +0.000 A 
ATOM      5  C   UNL     1       1.401   8.754  19.909  0.00  0.00    +0.000 A 
ATOM      6  C   UNL     1       1.905   9.263  18.674  0.00  0.00    +0.000 A 
ATOM      7  C   UNL     1       1.828  10.619  18.070  0.00  0.00    +0.000 C 
ATOM      8  N   UNL     1       2.526   8.325  17.958  0.00  0.00    +0.000 NA
ATOM      9  N   UNL     1       2.432   7.188  18.683  0.00  0.00    +0.000 N 
ATOM     10  C   UNL     1       2.938   5.923  18.331  0.00  0.00    +0.000 A 
ATOM     11  C   UNL     1       3.675   5.831  17.018  0.00  0.00    +0.000 C 
ATOM     12  C   UNL     1       2.782   4.860  19.162  0.00  0.00    +0.000 A 
ENDROOT
BRANCH   5  13
ATOM     13  C   UNL     1       0.648   9.431  20.971  0.00  0.00    +0.000 A 
ATOM     14  C   UNL     1      -0.253  10.469  20.670  0.00  0.00    +0.000 A 
ATOM     15  C   UNL     1      -1.061  11.048  21.654  0.00  0.00    +0.000 A 
ATOM     16  C   UNL     1      -0.949  10.635  22.978  0.00  0.00    +0.000 A 
ATOM     17  C   UNL     1      -0.030   9.641  23.309  0.00  0.00    +0.000 A 
ATOM     18  C   UNL     1       0.755   9.040  22.315  0.00  0.00    +0.000 A 
ENDBRANCH   5  13
BRANCH  12  19
ATOM     19  C   UNL     1       3.395   3.489  18.898  0.00  0.00    +0.000 C 
BRANCH  19  20
ATOM     20  C   UNL     1       4.774   3.212  19.501  0.00  0.00    +0.000 C 
BRANCH  20  21
ATOM     21  C   UNL     1       5.850   4.182  18.994  0.00  0.00    +0.000 C 
ATOM     22  O   UNL     1       6.270   5.125  19.653  0.00  0.00    +0.000 OA
ATOM     23  N   UNL     1       6.284   3.882  17.729  0.00  0.00    +0.000 N 
ATOM     24  H   UNL     1       5.926   3.059  17.251  0.00  0.00    +0.000 HD
BRANCH  23  25
ATOM     25  C   UNL     1       7.308   4.632  17.027  0.00  0.00    +0.000 C 
BRANCH  25  26
ATOM     26  C   UNL     1       7.030   4.589  15.567  0.00  0.00    +0.000 A 
ATOM     27  C   UNL     1       6.091   3.931  14.800  0.00  0.00    +0.000 A 
ATOM     28  C   UNL     1       6.359   4.273  13.452  0.00  0.00    +0.000 A 
ATOM     29  C   UNL     1       7.446   5.114  13.481  0.00  0.00    +0.000 A 
ATOM     30  O   UNL     1       7.862   5.314  14.759  0.00  0.00    +0.000 OA
ENDBRANCH  25  26
ENDBRANCH  23  25
ENDBRANCH  20  21
ENDBRANCH  19  20
ENDBRANCH  12  19
TORSDOF 6
ENDMDL
MODEL 2
REMARK VINA RESULT:      -8.3      0.838      1.267
REMARK  Name = 
REMARK  9 active torsions:
REMARK  status: ('A' for Active; 'I' for Inactive)
REMARK    1  A    between atoms: C_1  and  C_2
REMARK    2  A    between atoms: C_5  and  C_6
REMARK    3  A    between atoms: C_12  and  C_13
REMARK    4  A    between atoms: C_16  and  C_17
REMARK    5  A    between atoms: C_18  and  C_19
REMARK    6  A    between atoms: C_19  and  C_20
REMARK    7  A    between atoms: C_20  and  C_21
REMARK    8  A    between atoms: N_23  and  C_24
REMARK    9  A    between atoms: C_24  and  C_25
REMARK                            x       y       z     vdW  Elec       q    Type
REMARK                         _______ _______ _______ _____ _____    ______ ____
ROOT
ATOM      1  C   UNL     1       1.932   4.820  20.995  0.00  0.00    +0.000 C 
ATOM      2  C   UNL     1       2.085   6.036  20.108  0.00  0.00    +0.000 A 
ATOM      3  N   UNL     1       1.470   7.110  20.522  0.00  0.00    +0.000 NA
ATOM      4  C   UNL     1       1.591   8.249  19.772  0.00  0.00    +0.000 A 
ATOM      5  C   UNL     1       1.093   9.545  19.921  0.00  0.00    +0.000 A 
ATOM      6  C   UNL     1       1.608  10.244  18.788  0.00  0.00    +0.000 A 
ATOM      7  C   UNL     1       1.422  11.648  18.336  0.00  0.00    +0.000 C 
ATOM      8  N   UNL     1       2.364   9.463  18.015  0.00  0.00    +0.000 NA
ATOM      9  N   UNL     1       2.350   8.244  18.599  0.00  0.00    +0.000 N 
ATOM     10  C   UNL     1       3.005   7.086  18.143  0.00  0.00    +0.000 A 
ATOM     11  C   UNL     1       3.819   7.223  16.880  0.00  0.00    +0.000 C 
ATOM     12  C   UNL     1       2.917   5.922  18.837  0.00  0.00    +0.000 A 
ENDROOT
BRANCH   5  13
ATOM     13  C   UNL     1       0.216  10.014  21.000  0.00  0.00    +0.000 A 
ATOM     14  C   UNL     1       0.267   9.430  22.279  0.00  0.00    +0.000 A 
ATOM     15  C   UNL     1      -0.478   9.938  23.348  0.00  0.00    +0.000 A 
ATOM     16  C   UNL     1      -1.334  11.016  23.150  0.00  0.00    +0.000 A 
ATOM     17  C   UNL     1      -1.437  11.583  21.881  0.00  0.00    +0.000 A 
ATOM     18  C   UNL     1      -0.664  11.092  20.818  0.00  0.00    +0.000 A 
ENDBRANCH   5  13
BRANCH  12  19
ATOM     19  C   UNL     1       3.684   4.659  18.462  0.00  0.00    +0.000 C 
BRANCH  19  20
ATOM     20  C   UNL     1       4.915   4.312  19.305  0.00  0.00    +0.000 C 
BRANCH  20  21
ATOM     21  C   UNL     1       6.226   4.790  18.665  0.00  0.00    +0.000 C 
ATOM     22  O   UNL     1       7.224   5.081  19.313  0.00  0.00    +0.000 OA
ATOM     23  N   UNL     1       6.158   4.857  17.298  0.00  0.00    +0.000 N 
ATOM     24  H   UNL     1       5.313   4.559  16.816  0.00  0.00    +0.000 HD
BRANCH  23  25
ATOM     25  C   UNL     1       7.266   5.260  16.453  0.00  0.00    +0.000 C 
BRANCH  25  26
ATOM     26  C   UNL     1       7.008   4.805  15.061  0.00  0.00    +0.000 A 
ATOM     27  C   UNL     1       6.165   3.860  14.514  0.00  0.00    +0.000 A 
ATOM     28  C   UNL     1       6.400   3.869  13.118  0.00  0.00    +0.000 A 
ATOM     29  C   UNL     1       7.374   4.815  12.901  0.00  0.00    +0.000 A 
ATOM     30  O   UNL     1       7.751   5.390  14.074  0.00  0.00    +0.000 OA
ENDBRANCH  25  26
ENDBRANCH  23  25
ENDBRANCH  20  21
ENDBRANCH  19  20
ENDBRANCH  12  19
TORSDOF 6
ENDMDL
MODEL 3
REMARK VINA RESULT:      -8.3      1.443      2.824
REMARK  Name = 
REMARK  9 active torsions:
REMARK  status: ('A' for Active; 'I' for Inactive)
REMARK    1  A    between atoms: C_1  and  C_2
REMARK    2  A    between atoms: C_5  and  C_6
REMARK    3  A    between atoms: C_12  and  C_13
REMARK    4  A    between atoms: C_16  and  C_17
REMARK    5  A    between atoms: C_18  and  C_19
REMARK    6  A    between atoms: C_19  and  C_20
REMARK    7  A    between atoms: C_20  and  C_21
REMARK    8  A    between atoms: N_23  and  C_24
REMARK    9  A    between atoms: C_24  and  C_25
REMARK                            x       y       z     vdW  Elec       q    Type
REMARK                         _______ _______ _______ _____ _____    ______ ____
ROOT
ATOM      1  C   UNL     1       3.662   7.405  16.943  0.00  0.00    +0.000 C 
ATOM      2  C   UNL     1       2.882   7.367  18.239  0.00  0.00    +0.000 A 
ATOM      3  N   UNL     1       2.307   8.488  18.577  0.00  0.00    +0.000 NA
ATOM      4  C   UNL     1       1.568   8.509  19.730  0.00  0.00    +0.000 A 
ATOM      5  C   UNL     1       0.826   9.505  20.368  0.00  0.00    +0.000 A 
ATOM      6  C   UNL     1       0.298   8.854  21.523  0.00  0.00    +0.000 A 
ATOM      7  C   UNL     1      -0.546   9.366  22.636  0.00  0.00    +0.000 C 
ATOM      8  N   UNL     1       0.664   7.574  21.592  0.00  0.00    +0.000 NA
ATOM      9  N   UNL     1       1.446   7.357  20.511  0.00  0.00    +0.000 N 
ATOM     10  C   UNL     1       2.075   6.149  20.157  0.00  0.00    +0.000 A 
ATOM     11  C   UNL     1       1.837   4.971  21.068  0.00  0.00    +0.000 C 
ATOM     12  C   UNL     1       2.829   6.066  19.030  0.00  0.00    +0.000 A 
ENDROOT
BRANCH   5  13
ATOM     13  C   UNL     1       0.686  10.896  19.923  0.00  0.00    +0.000 A 
ATOM     14  C   UNL     1      -0.179  11.233  18.865  0.00  0.00    +0.000 A 
ATOM     15  C   UNL     1      -0.411  12.565  18.503  0.00  0.00    +0.000 A 
ATOM     16  C   UNL     1       0.259  13.591  19.160  0.00  0.00    +0.000 A 
ATOM     17  C   UNL     1       1.156  13.280  20.179  0.00  0.00    +0.000 A 
ATOM     18  C   UNL     1       1.362  11.947  20.562  0.00  0.00    +0.000 A 
ENDBRANCH   5  13
BRANCH  12  19
ATOM     19  C   UNL     1       3.449   4.767  18.527  0.00  0.00    +0.000 C 
BRANCH  19  20
ATOM     20  C   UNL     1       4.686   4.251  19.268  0.00  0.00    +0.000 C 
BRANCH  20  21
ATOM     21  C   UNL     1       5.997   4.807  18.693  0.00  0.00    +0.000 C 
ATOM     22  O   UNL     1       6.890   5.275  19.388  0.00  0.00    +0.000 OA
ATOM     23  N   UNL     1       6.056   4.725  17.327  0.00  0.00    +0.000 N 
ATOM     24  H   UNL     1       5.298   4.285  16.810  0.00  0.00    +0.000 HD
BRANCH  23  25
ATOM     25  C   UNL     1       7.193   5.163  16.540  0.00  0.00    +0.000 C 
BRANCH  25  26
ATOM     26  C   UNL     1       6.977   4.785  15.118  0.00  0.00    +0.000 A 
ATOM     27  C   UNL     1       6.141   3.883  14.494  0.00  0.00    +0.000 A 
ATOM     28  C   UNL     1       6.424   3.962  13.108  0.00  0.00    +0.000 A 
ATOM     29  C   UNL     1       7.417   4.904  12.975  0.00  0.00    +0.000 A 
ATOM     30  O   UNL     1       7.761   5.410  14.188  0.00  0.00    +0.000 OA
ENDBRANCH  25  26
ENDBRANCH  23  25
ENDBRANCH  20  21
ENDBRANCH  19  20
ENDBRANCH  12  19
TORSDOF 6
ENDMDL
MODEL 4
REMARK VINA RESULT:      -7.9      2.486      9.135
REMARK  Name = 
REMARK  9 active torsions:
REMARK  status: ('A' for Active; 'I' for Inactive)
REMARK    1  A    between atoms: C_1  and  C_2
REMARK    2  A    between atoms: C_5  and  C_6
REMARK    3  A    between atoms: C_12  and  C_13
REMARK    4  A    between atoms: C_16  and  C_17
REMARK    5  A    between atoms: C_18  and  C_19
REMARK    6  A    between atoms: C_19  and  C_20
REMARK    7  A    between atoms: C_20  and  C_21
REMARK    8  A    between atoms: N_23  and  C_24
REMARK    9  A    between atoms: C_24  and  C_25
REMARK                            x       y       z     vdW  Elec       q    Type
REMARK                         _______ _______ _______ _____ _____    ______ ____
ROOT
ATOM      1  C   UNL     1       3.257   3.207  17.578  0.00  0.00    +0.000 C 
ATOM      2  C   UNL     1       4.473   3.909  17.014  0.00  0.00    +0.000 A 
ATOM      3  N   UNL     1       4.710   3.685  15.750  0.00  0.00    +0.000 NA
ATOM      4  C   UNL     1       5.786   4.311  15.178  0.00  0.00    +0.000 A 
ATOM      5  C   UNL     1       6.310   4.312  13.884  0.00  0.00    +0.000 A 
ATOM      6  C   UNL     1       7.434   5.188  13.968  0.00  0.00    +0.000 A 
ATOM      7  C   UNL     1       8.440   5.591  12.950  0.00  0.00    +0.000 C 
ATOM      8  N   UNL     1       7.587   5.694  15.192  0.00  0.00    +0.000 NA
ATOM      9  N   UNL     1       6.596   5.158  15.938  0.00  0.00    +0.000 N 
ATOM     10  C   UNL     1       6.351   5.393  17.304  0.00  0.00    +0.000 A 
ATOM     11  C   UNL     1       7.281   6.353  18.002  0.00  0.00    +0.000 C 
ATOM     12  C   UNL     1       5.306   4.794  17.932  0.00  0.00    +0.000 A 
ENDROOT
BRANCH   5  13
ATOM     13  C   UNL     1       5.799   3.540  12.745  0.00  0.00    +0.000 A 
ATOM     14  C   UNL     1       6.546   2.481  12.197  0.00  0.00    +0.000 A 
ATOM     15  C   UNL     1       6.027   1.664  11.187  0.00  0.00    +0.000 A 
ATOM     16  C   UNL     1       4.763   1.919  10.665  0.00  0.00    +0.000 A 
ATOM     17  C   UNL     1       4.023   2.991  11.159  0.00  0.00    +0.000 A 
ATOM     18  C   UNL     1       4.532   3.789  12.194  0.00  0.00    +0.000 A 
ENDBRANCH   5  13
BRANCH  12  19
ATOM     19  C   UNL     1       4.916   5.083  19.377  0.00  0.00    +0.000 C 
BRANCH  19  20
ATOM     20  C   UNL     1       3.439   5.374  19.659  0.00  0.00    +0.000 C 
BRANCH  20  21
ATOM     21  C   UNL     1       2.988   6.737  19.113  0.00  0.00    +0.000 C 
ATOM     22  O   UNL     1       3.337   7.173  18.023  0.00  0.00    +0.000 OA
ATOM     23  N   UNL     1       2.161   7.408  19.974  0.00  0.00    +0.000 N 
ATOM     24  H   UNL     1       1.874   6.971  20.847  0.00  0.00    +0.000 HD
BRANCH  23  25
ATOM     25  C   UNL     1       1.580   8.706  19.691  0.00  0.00    +0.000 C 
BRANCH  25  26
ATOM     26  C   UNL     1       0.893   9.211  20.908  0.00  0.00    +0.000 A 
ATOM     27  C   UNL     1       0.987   8.896  22.249  0.00  0.00    +0.000 A 
ATOM     28  C   UNL     1       0.043   9.709  22.921  0.00  0.00    +0.000 A 
ATOM     29  C   UNL     1      -0.569  10.466  21.950  0.00  0.00    +0.000 A 
ATOM     30  O   UNL     1      -0.061  10.172  20.724  0.00  0.00    +0.000 OA
ENDBRANCH  25  26
ENDBRANCH  23  25
ENDBRANCH  20  21
ENDBRANCH  19  20
ENDBRANCH  12  19
TORSDOF 6
ENDMDL
MODEL 5
REMARK VINA RESULT:      -7.8      1.526      3.049
REMARK  Name = 
REMARK  9 active torsions:
REMARK  status: ('A' for Active; 'I' for Inactive)
REMARK    1  A    between atoms: C_1  and  C_2
REMARK    2  A    between atoms: C_5  and  C_6
REMARK    3  A    between atoms: C_12  and  C_13
REMARK    4  A    between atoms: C_16  and  C_17
REMARK    5  A    between atoms: C_18  and  C_19
REMARK    6  A    between atoms: C_19  and  C_20
REMARK    7  A    between atoms: C_20  and  C_21
REMARK    8  A    between atoms: N_23  and  C_24
REMARK    9  A    between atoms: C_24  and  C_25
REMARK                            x       y       z     vdW  Elec       q    Type
REMARK                         _______ _______ _______ _____ _____    ______ ____
ROOT
ATOM      1  C   UNL     1       3.915   7.394  16.744  0.00  0.00    +0.000 C 
ATOM      2  C   UNL     1       3.136   7.330  18.041  0.00  0.00    +0.000 A 
ATOM      3  N   UNL     1       2.446   8.399  18.330  0.00  0.00    +0.000 NA
ATOM      4  C   UNL     1       1.703   8.392  19.481  0.00  0.00    +0.000 A 
ATOM      5  C   UNL     1       0.858   9.332  20.074  0.00  0.00    +0.000 A 
ATOM      6  C   UNL     1       0.394   8.679  21.256  0.00  0.00    +0.000 A 
ATOM      7  C   UNL     1      -0.503   9.148  22.345  0.00  0.00    +0.000 C 
ATOM      8  N   UNL     1       0.891   7.448  21.380  0.00  0.00    +0.000 NA
ATOM      9  N   UNL     1       1.698   7.268  20.310  0.00  0.00    +0.000 N 
ATOM     10  C   UNL     1       2.449   6.118  20.008  0.00  0.00    +0.000 A 
ATOM     11  C   UNL     1       2.331   4.962  20.970  0.00  0.00    +0.000 C 
ATOM     12  C   UNL     1       3.214   6.066  18.887  0.00  0.00    +0.000 A 
ENDROOT
BRANCH   5  13
ATOM     13  C   UNL     1       0.577  10.681  19.570  0.00  0.00    +0.000 A 
ATOM     14  C   UNL     1       1.530  11.710  19.686  0.00  0.00    +0.000 A 
ATOM     15  C   UNL     1       1.324  12.968  19.111  0.00  0.00    +0.000 A 
ATOM     16  C   UNL     1       0.134  13.245  18.447  0.00  0.00    +0.000 A 
ATOM     17  C   UNL     1      -0.844  12.256  18.359  0.00  0.00    +0.000 A 
ATOM     18  C   UNL     1      -0.623  10.985  18.908  0.00  0.00    +0.000 A 
ENDBRANCH   5  13
BRANCH  12  19
ATOM     19  C   UNL     1       3.968   4.818  18.441  0.00  0.00    +0.000 C 
BRANCH  19  20
ATOM     20  C   UNL     1       5.386   4.625  18.987  0.00  0.00    +0.000 C 
BRANCH  20  21
ATOM     21  C   UNL     1       6.470   5.059  17.991  0.00  0.00    +0.000 C 
ATOM     22  O   UNL     1       7.447   5.726  18.309  0.00  0.00    +0.000 OA
ATOM     23  N   UNL     1       6.226   4.624  16.715  0.00  0.00    +0.000 N 
ATOM     24  H   UNL     1       5.418   4.036  16.524  0.00  0.00    +0.000 HD
BRANCH  23  25
ATOM     25  C   UNL     1       7.105   4.882  15.591  0.00  0.00    +0.000 C 
BRANCH  25  26
ATOM     26  C   UNL     1       6.469   4.375  14.347  0.00  0.00    +0.000 A 
ATOM     27  C   UNL     1       5.168   4.065  14.006  0.00  0.00    +0.000 A 
ATOM     28  C   UNL     1       5.201   3.597  12.670  0.00  0.00    +0.000 A 
ATOM     29  C   UNL     1       6.520   3.648  12.280  0.00  0.00    +0.000 A 
ATOM     30  O   UNL     1       7.298   4.118  13.290  0.00  0.00    +0.000 OA
ENDBRANCH  25  26
ENDBRANCH  23  25
ENDBRANCH  20  21
ENDBRANCH  19  20
ENDBRANCH  12  19
TORSDOF 6
ENDMDL
MODEL 6
REMARK VINA RESULT:      -7.7      2.458      8.587
REMARK  Name = 
REMARK  9 active torsions:
REMARK  status: ('A' for Active; 'I' for Inactive)
REMARK    1  A    between atoms: C_1  and  C_2
REMARK    2  A    between atoms: C_5  and  C_6
REMARK    3  A    between atoms: C_12  and  C_13
REMARK    4  A    between atoms: C_16  and  C_17
REMARK    5  A    between atoms: C_18  and  C_19
REMARK    6  A    between atoms: C_19  and  C_20
REMARK    7  A    between atoms: C_20  and  C_21
REMARK    8  A    between atoms: N_23  and  C_24
REMARK    9  A    between atoms: C_24  and  C_25
REMARK                            x       y       z     vdW  Elec       q    Type
REMARK                         _______ _______ _______ _____ _____    ______ ____
ROOT
ATOM      1  C   UNL     1       2.950   3.430  17.453  0.00  0.00    +0.000 C 
ATOM      2  C   UNL     1       4.219   4.076  16.938  0.00  0.00    +0.000 A 
ATOM      3  N   UNL     1       4.511   3.817  15.693  0.00  0.00    +0.000 NA
ATOM      4  C   UNL     1       5.636   4.392  15.164  0.00  0.00    +0.000 A 
ATOM      5  C   UNL     1       6.225   4.345  13.899  0.00  0.00    +0.000 A 
ATOM      6  C   UNL     1       7.375   5.182  14.024  0.00  0.00    +0.000 A 
ATOM      7  C   UNL     1       8.445   5.527  13.051  0.00  0.00    +0.000 C 
ATOM      8  N   UNL     1       7.484   5.710  15.244  0.00  0.00    +0.000 NA
ATOM      9  N   UNL     1       6.437   5.226  15.949  0.00  0.00    +0.000 N 
ATOM     10  C   UNL     1       6.132   5.498  17.295  0.00  0.00    +0.000 A 
ATOM     11  C   UNL     1       7.060   6.440  18.020  0.00  0.00    +0.000 C 
ATOM     12  C   UNL     1       5.035   4.951  17.880  0.00  0.00    +0.000 A 
ENDROOT
BRANCH   5  13
ATOM     13  C   UNL     1       5.745   3.567  12.752  0.00  0.00    +0.000 A 
ATOM     14  C   UNL     1       6.487   2.481  12.254  0.00  0.00    +0.000 A 
ATOM     15  C   UNL     1       5.991   1.659  11.235  0.00  0.00    +0.000 A 
ATOM     16  C   UNL     1       4.759   1.937  10.654  0.00  0.00    +0.000 A 
ATOM     17  C   UNL     1       4.026   3.036  11.098  0.00  0.00    +0.000 A 
ATOM     18  C   UNL     1       4.510   3.839  12.141  0.00  0.00    +0.000 A 
ENDBRANCH   5  13
BRANCH  12  19
ATOM     19  C   UNL     1       4.584   5.286  19.297  0.00  0.00    +0.000 C 
BRANCH  19  20
ATOM     20  C   UNL     1       3.462   4.431  19.893  0.00  0.00    +0.000 C 
BRANCH  20  21
ATOM     21  C   UNL     1       2.269   5.270  20.376  0.00  0.00    +0.000 C 
ATOM     22  O   UNL     1       1.180   4.788  20.660  0.00  0.00    +0.000 OA
ATOM     23  N   UNL     1       2.554   6.608  20.449  0.00  0.00    +0.000 N 
ATOM     24  H   UNL     1       3.493   6.940  20.240  0.00  0.00    +0.000 HD
BRANCH  23  25
ATOM     25  C   UNL     1       1.608   7.613  20.893  0.00  0.00    +0.000 C 
BRANCH  25  26
ATOM     26  C   UNL     1       1.406   8.607  19.807  0.00  0.00    +0.000 A 
ATOM     27  C   UNL     1       0.599   9.719  19.678  0.00  0.00    +0.000 A 
ATOM     28  C   UNL     1       0.838  10.244  18.385  0.00  0.00    +0.000 A 
ATOM     29  C   UNL     1       1.772   9.417  17.805  0.00  0.00    +0.000 A 
ATOM     30  O   UNL     1       2.124   8.421  18.659  0.00  0.00    +0.000 OA
ENDBRANCH  25  26
ENDBRANCH  23  25
ENDBRANCH  20  21
ENDBRANCH  19  20
ENDBRANCH  12  19
TORSDOF 6
ENDMDL
MODEL 7
REMARK VINA RESULT:      -7.4      4.204      9.521
REMARK  Name = 
REMARK  9 active torsions:
REMARK  status: ('A' for Active; 'I' for Inactive)
REMARK    1  A    between atoms: C_1  and  C_2
REMARK    2  A    between atoms: C_5  and  C_6
REMARK    3  A    between atoms: C_12  and  C_13
REMARK    4  A    between atoms: C_16  and  C_17
REMARK    5  A    between atoms: C_18  and  C_19
REMARK    6  A    between atoms: C_19  and  C_20
REMARK    7  A    between atoms: C_20  and  C_21
REMARK    8  A    between atoms: N_23  and  C_24
REMARK    9  A    between atoms: C_24  and  C_25
REMARK                            x       y       z     vdW  Elec       q    Type
REMARK                         _______ _______ _______ _____ _____    ______ ____
ROOT
ATOM      1  C   UNL     1      -0.427   8.698  22.408  0.00  0.00    +0.000 C 
ATOM      2  C   UNL     1       0.455   8.657  21.179  0.00  0.00    +0.000 A 
ATOM      3  N   UNL     1       1.083   7.531  20.980  0.00  0.00    +0.000 NA
ATOM      4  C   UNL     1       1.880   7.427  19.871  0.00  0.00    +0.000 A 
ATOM      5  C   UNL     1       2.663   6.393  19.355  0.00  0.00    +0.000 A 
ATOM      6  C   UNL     1       3.223   6.947  18.164  0.00  0.00    +0.000 A 
ATOM      7  C   UNL     1       4.173   6.377  17.172  0.00  0.00    +0.000 C 
ATOM      8  N   UNL     1       2.817   8.199  17.952  0.00  0.00    +0.000 NA
ATOM      9  N   UNL     1       2.008   8.504  18.991  0.00  0.00    +0.000 N 
ATOM     10  C   UNL     1       1.343   9.725  19.208  0.00  0.00    +0.000 A 
ATOM     11  C   UNL     1       1.541  10.797  18.166  0.00  0.00    +0.000 C 
ATOM     12  C   UNL     1       0.546   9.894  20.295  0.00  0.00    +0.000 A 
ENDROOT
BRANCH   5  13
ATOM     13  C   UNL     1       2.857   5.071  19.961  0.00  0.00    +0.000 A 
ATOM     14  C   UNL     1       1.980   4.596  20.954  0.00  0.00    +0.000 A 
ATOM     15  C   UNL     1       2.081   3.295  21.461  0.00  0.00    +0.000 A 
ATOM     16  C   UNL     1       3.097   2.454  21.021  0.00  0.00    +0.000 A 
ATOM     17  C   UNL     1       4.006   2.918  20.072  0.00  0.00    +0.000 A 
ATOM     18  C   UNL     1       3.883   4.210  19.542  0.00  0.00    +0.000 A 
ENDBRANCH   5  13
BRANCH  12  19
ATOM     19  C   UNL     1      -0.289  11.147  20.538  0.00  0.00    +0.000 C 
BRANCH  19  20
ATOM     20  C   UNL     1       0.222  12.133  21.592  0.00  0.00    +0.000 C 
BRANCH  20  21
ATOM     21  C   UNL     1      -0.908  12.726  22.446  0.00  0.00    +0.000 C 
ATOM     22  O   UNL     1      -0.710  13.404  23.447  0.00  0.00    +0.000 OA
ATOM     23  N   UNL     1      -2.155  12.413  21.972  0.00  0.00    +0.000 N 
ATOM     24  H   UNL     1      -2.252  11.881  21.110  0.00  0.00    +0.000 HD
BRANCH  23  25
ATOM     25  C   UNL     1      -3.390  12.865  22.584  0.00  0.00    +0.000 C 
BRANCH  25  26
ATOM     26  C   UNL     1      -4.510  12.665  21.628  0.00  0.00    +0.000 A 
ATOM     27  C   UNL     1      -4.634  12.832  20.264  0.00  0.00    +0.000 A 
ATOM     28  C   UNL     1      -5.972  12.502  19.936  0.00  0.00    +0.000 A 
ATOM     29  C   UNL     1      -6.581  12.158  21.120  0.00  0.00    +0.000 A 
ATOM     30  O   UNL     1      -5.704  12.253  22.154  0.00  0.00    +0.000 OA
ENDBRANCH  25  26
ENDBRANCH  23  25
ENDBRANCH  20  21
ENDBRANCH  19  20
ENDBRANCH  12  19
TORSDOF 6
ENDMDL
MODEL 8
REMARK VINA RESULT:      -7.4      4.377      9.374
REMARK  Name = 
REMARK  9 active torsions:
REMARK  status: ('A' for Active; 'I' for Inactive)
REMARK    1  A    between atoms: C_1  and  C_2
REMARK    2  A    between atoms: C_5  and  C_6
REMARK    3  A    between atoms: C_12  and  C_13
REMARK    4  A    between atoms: C_16  and  C_17
REMARK    5  A    between atoms: C_18  and  C_19
REMARK    6  A    between atoms: C_19  and  C_20
REMARK    7  A    between atoms: C_20  and  C_21
REMARK    8  A    between atoms: N_23  and  C_24
REMARK    9  A    between atoms: C_24  and  C_25
REMARK                            x       y       z     vdW  Elec       q    Type
REMARK                         _______ _______ _______ _____ _____    ______ ____
ROOT
ATOM      1  C   UNL     1       1.969  11.214  17.664  0.00  0.00    +0.000 C 
ATOM      2  C   UNL     1       1.741  10.020  18.566  0.00  0.00    +0.000 A 
ATOM      3  N   UNL     1       2.392   8.939  18.236  0.00  0.00    +0.000 NA
ATOM      4  C   UNL     1       2.243   7.832  19.028  0.00  0.00    +0.000 A 
ATOM      5  C   UNL     1       2.786   6.547  18.981  0.00  0.00    +0.000 A 
ATOM      6  C   UNL     1       2.220   5.892  20.117  0.00  0.00    +0.000 A 
ATOM      7  C   UNL     1       2.363   4.499  20.616  0.00  0.00    +0.000 C 
ATOM      8  N   UNL     1       1.414   6.695  20.811  0.00  0.00    +0.000 NA
ATOM      9  N   UNL     1       1.413   7.875  20.151  0.00  0.00    +0.000 N 
ATOM     10  C   UNL     1       0.699   9.035  20.504  0.00  0.00    +0.000 A 
ATOM     11  C   UNL     1      -0.137   8.959  21.757  0.00  0.00    +0.000 C 
ATOM     12  C   UNL     1       0.797  10.163  19.753  0.00  0.00    +0.000 A 
ENDROOT
BRANCH   5  13
ATOM     13  C   UNL     1       3.699   6.032  17.954  0.00  0.00    +0.000 A 
ATOM     14  C   UNL     1       3.675   4.676  17.580  0.00  0.00    +0.000 A 
ATOM     15  C   UNL     1       4.456   4.192  16.525  0.00  0.00    +0.000 A 
ATOM     16  C   UNL     1       5.321   5.046  15.850  0.00  0.00    +0.000 A 
ATOM     17  C   UNL     1       5.397   6.384  16.233  0.00  0.00    +0.000 A 
ATOM     18  C   UNL     1       4.589   6.874  17.269  0.00  0.00    +0.000 A 
ENDBRANCH   5  13
BRANCH  12  19
ATOM     19  C   UNL     1       0.141  11.485  20.133  0.00  0.00    +0.000 C 
BRANCH  19  20
ATOM     20  C   UNL     1      -0.697  12.184  19.058  0.00  0.00    +0.000 C 
BRANCH  20  21
ATOM     21  C   UNL     1      -1.712  11.244  18.392  0.00  0.00    +0.000 C 
ATOM     22  O   UNL     1      -1.875  10.079  18.734  0.00  0.00    +0.000 OA
ATOM     23  N   UNL     1      -2.409  11.846  17.377  0.00  0.00    +0.000 N 
ATOM     24  H   UNL     1      -2.257  12.830  17.170  0.00  0.00    +0.000 HD
BRANCH  23  25
ATOM     25  C   UNL     1      -3.438  11.183  16.600  0.00  0.00    +0.000 C 
BRANCH  25  26
ATOM     26  C   UNL     1      -4.760  11.420  17.238  0.00  0.00    +0.000 A 
ATOM     27  C   UNL     1      -5.452  10.785  18.249  0.00  0.00    +0.000 A 
ATOM     28  C   UNL     1      -6.684  11.469  18.386  0.00  0.00    +0.000 A 
ATOM     29  C   UNL     1      -6.668  12.476  17.450  0.00  0.00    +0.000 A 
ATOM     30  O   UNL     1      -5.505  12.456  16.747  0.00  0.00    +0.000 OA
ENDBRANCH  25  26
ENDBRANCH  23  25
ENDBRANCH  20  21
ENDBRANCH  19  20
ENDBRANCH  12  19
TORSDOF 6
ENDMDL
MODEL 9
REMARK VINA RESULT:      -7.3      6.143     11.344
REMARK  Name = 
REMARK  9 active torsions:
REMARK  status: ('A' for Active; 'I' for Inactive)
REMARK    1  A    between atoms: C_1  and  C_2
REMARK    2  A    between atoms: C_5  and  C_6
REMARK    3  A    between atoms: C_12  and  C_13
REMARK    4  A    between atoms: C_16  and  C_17
REMARK    5  A    between atoms: C_18  and  C_19
REMARK    6  A    between atoms: C_19  and  C_20
REMARK    7  A    between atoms: C_20  and  C_21
REMARK    8  A    between atoms: N_23  and  C_24
REMARK    9  A    between atoms: C_24  and  C_25
REMARK                            x       y       z     vdW  Elec       q    Type
REMARK                         _______ _______ _______ _____ _____    ______ ____
ROOT
ATOM      1  C   UNL     1      -3.610   9.684  16.159  0.00  0.00    +0.000 C 
ATOM      2  C   UNL     1      -3.056  10.365  17.392  0.00  0.00    +0.000 A 
ATOM      3  N   UNL     1      -1.873   9.963  17.768  0.00  0.00    +0.000 NA
ATOM      4  C   UNL     1      -1.311  10.559  18.865  0.00  0.00    +0.000 A 
ATOM      5  C   UNL     1      -0.089  10.391  19.518  0.00  0.00    +0.000 A 
ATOM      6  C   UNL     1      -0.136  11.339  20.585  0.00  0.00    +0.000 A 
ATOM      7  C   UNL     1       0.836  11.641  21.670  0.00  0.00    +0.000 C 
ATOM      8  N   UNL     1      -1.271  12.038  20.588  0.00  0.00    +0.000 NA
ATOM      9  N   UNL     1      -1.998  11.563  19.552  0.00  0.00    +0.000 N 
ATOM     10  C   UNL     1      -3.278  11.991  19.157  0.00  0.00    +0.000 A 
ATOM     11  C   UNL     1      -3.897  13.105  19.965  0.00  0.00    +0.000 C 
ATOM     12  C   UNL     1      -3.894  11.433  18.083  0.00  0.00    +0.000 A 
ENDROOT
BRANCH   5  13
ATOM     13  C   UNL     1       0.954   9.421  19.164  0.00  0.00    +0.000 A 
ATOM     14  C   UNL     1       1.310   8.387  20.050  0.00  0.00    +0.000 A 
ATOM     15  C   UNL     1       2.219   7.388  19.684  0.00  0.00    +0.000 A 
ATOM     16  C   UNL     1       2.833   7.429  18.437  0.00  0.00    +0.000 A 
ATOM     17  C   UNL     1       2.532   8.469  17.560  0.00  0.00    +0.000 A 
ATOM     18  C   UNL     1       1.596   9.451  17.917  0.00  0.00    +0.000 A 
ENDBRANCH   5  13
BRANCH  12  19
ATOM     19  C   UNL     1      -5.231  11.918  17.534  0.00  0.00    +0.000 C 
BRANCH  19  20
ATOM     20  C   UNL     1      -6.489  11.183  18.005  0.00  0.00    +0.000 C 
BRANCH  20  21
ATOM     21  C   UNL     1      -7.261  11.957  19.082  0.00  0.00    +0.000 C 
ATOM     22  O   UNL     1      -7.865  12.999  18.859  0.00  0.00    +0.000 OA
ATOM     23  N   UNL     1      -7.199  11.361  20.314  0.00  0.00    +0.000 N 
ATOM     24  H   UNL     1      -6.717  10.472  20.425  0.00  0.00    +0.000 HD
BRANCH  23  25
ATOM     25  C   UNL     1      -7.859  11.879  21.497  0.00  0.00    +0.000 C 
BRANCH  25  26
ATOM     26  C   UNL     1      -6.937  12.807  22.203  0.00  0.00    +0.000 A 
ATOM     27  C   UNL     1      -6.849  14.182  22.277  0.00  0.00    +0.000 A 
ATOM     28  C   UNL     1      -5.729  14.472  23.093  0.00  0.00    +0.000 A 
ATOM     29  C   UNL     1      -5.202  13.256  23.463  0.00  0.00    +0.000 A 
ATOM     30  O   UNL     1      -5.927  12.239  22.929  0.00  0.00    +0.000 OA
ENDBRANCH  25  26
ENDBRANCH  23  25
ENDBRANCH  20  21
ENDBRANCH  19  20
ENDBRANCH  12  19
TORSDOF 6
ENDMDL
