MODEL 1
REMARK VINA RESULT:      -8.0      0.000      0.000
REMARK  Name = 
REMARK  9 active torsions:
REMARK  status: ('A' for Active; 'I' for Inactive)
REMARK    1  A    between atoms: C_1  and  O_2
REMARK    2  A    between atoms: O_2  and  C_3
REMARK    3  A    between atoms: C_6  and  C_7
REMARK    4  A    between atoms: C_10  and  S_11
REMARK    5  A    between atoms: S_11  and  C_12
REMARK    6  A    between atoms: C_12  and  C_13
REMARK    7  A    between atoms: C_19  and  C_20
REMARK    8  A    between atoms: C_22  and  C_23
REMARK    9  A    between atoms: N_26  and  C_27
REMARK                            x       y       z     vdW  Elec       q    Type
REMARK                         _______ _______ _______ _____ _____    ______ ____
ROOT
ATOM      1  S   UNL     1       0.485   9.749  21.016  0.00  0.00    +0.000 S 
ENDROOT
BRANCH   1   5
ATOM      2  C   UNL     1       2.399   7.867  18.136  0.00  0.00    +0.000 A 
ATOM      3  N   UNL     1       2.070   8.978  17.510  0.00  0.00    +0.000 NA
ATOM      4  N   UNL     1       1.333   9.794  18.370  0.00  0.00    +0.000 NA
ATOM      5  C   UNL     1       1.239   9.181  19.514  0.00  0.00    +0.000 A 
ATOM      6  N   UNL     1       1.897   7.979  19.439  0.00  0.00    +0.000 N 
ATOM      7  C   UNL     1       2.066   7.020  20.497  0.00  0.00    +0.000 C 
BRANCH   2  11
ATOM      8  C   UNL     1       4.853   4.588  16.714  0.00  0.00    +0.000 A 
ATOM      9  C   UNL     1       5.214   5.913  16.467  0.00  0.00    +0.000 A 
ATOM     10  C   UNL     1       4.400   6.984  16.905  0.00  0.00    +0.000 A 
ATOM     11  C   UNL     1       3.195   6.748  17.594  0.00  0.00    +0.000 A 
ATOM     12  C   UNL     1       2.809   5.403  17.734  0.00  0.00    +0.000 A 
ATOM     13  C   UNL     1       3.632   4.338  17.328  0.00  0.00    +0.000 A 
BRANCH   8  15
ATOM     14  C   UNL     1       6.316   3.858  14.997  0.00  0.00    +0.000 C 
ATOM     15  O   UNL     1       5.725   3.632  16.275  0.00  0.00    +0.000 OA
ENDBRANCH   8  15
ENDBRANCH   2  11
ENDBRANCH   1   5
BRANCH   1  16
ATOM     16  C   UNL     1       0.195  11.497  20.715  0.00  0.00    +0.000 C 
BRANCH  16  17
ATOM     17  C   UNL     1      -1.211  11.817  20.180  0.00  0.00    +0.000 A 
ATOM     18  C   UNL     1      -1.941  12.699  20.889  0.00  0.00    +0.000 A 
ATOM     19  C   UNL     1      -3.409  12.697  20.716  0.00  0.00    +0.000 A 
ATOM     20  O   UNL     1      -4.141  13.088  21.616  0.00  0.00    +0.000 OA
ATOM     21  C   UNL     1      -3.932  12.206  19.433  0.00  0.00    +0.000 A 
ATOM     22  C   UNL     1      -5.243  12.536  19.065  0.00  0.00    +0.000 A 
ATOM     23  C   UNL     1      -5.675  12.285  17.765  0.00  0.00    +0.000 A 
ATOM     24  C   UNL     1      -7.030  12.748  17.310  0.00  0.00    +0.000 C 
ATOM     25  C   UNL     1      -4.782  11.693  16.866  0.00  0.00    +0.000 A 
ATOM     26  C   UNL     1      -3.476  11.305  17.256  0.00  0.00    +0.000 A 
ATOM     27  C   UNL     1      -2.542  10.794  16.192  0.00  0.00    +0.000 C 
ATOM     28  C   UNL     1      -3.048  11.528  18.579  0.00  0.00    +0.000 A 
ATOM     29  N   UNL     1      -1.752  11.169  19.061  0.00  0.00    +0.000 N 
ATOM     30  H   UNL     1      -1.605  10.155  19.057  0.00  0.00    +0.000 HD
ENDBRANCH  16  17
ENDBRANCH   1  16
TORSDOF 5
ENDMDL
MODEL 2
REMARK VINA RESULT:      -7.8      2.079      3.125
REMARK  Name = 
REMARK  9 active torsions:
REMARK  status: ('A' for Active; 'I' for Inactive)
REMARK    1  A    between atoms: C_1  and  O_2
REMARK    2  A    between atoms: O_2  and  C_3
REMARK    3  A    between atoms: C_6  and  C_7
REMARK    4  A    between atoms: C_10  and  S_11
REMARK    5  A    between atoms: S_11  and  C_12
REMARK    6  A    between atoms: C_12  and  C_13
REMARK    7  A    between atoms: C_19  and  C_20
REMARK    8  A    between atoms: C_22  and  C_23
REMARK    9  A    between atoms: N_26  and  C_27
REMARK                            x       y       z     vdW  Elec       q    Type
REMARK                         _______ _______ _______ _____ _____    ______ ____
ROOT
ATOM      1  S   UNL     1       0.604  11.110  19.611  0.00  0.00    +0.000 S 
ENDROOT
BRANCH   1   5
ATOM      2  C   UNL     1       2.324   7.746  18.508  0.00  0.00    +0.000 A 
ATOM      3  N   UNL     1       2.460   8.450  17.403  0.00  0.00    +0.000 NA
ATOM      4  N   UNL     1       1.867   9.703  17.576  0.00  0.00    +0.000 NA
ATOM      5  C   UNL     1       1.397   9.754  18.788  0.00  0.00    +0.000 A 
ATOM      6  N   UNL     1       1.662   8.569  19.428  0.00  0.00    +0.000 N 
ATOM      7  C   UNL     1       1.349   8.234  20.790  0.00  0.00    +0.000 C 
BRANCH   2  11
ATOM      8  C   UNL     1       3.838   3.717  19.023  0.00  0.00    +0.000 A 
ATOM      9  C   UNL     1       2.510   3.942  18.663  0.00  0.00    +0.000 A 
ATOM     10  C   UNL     1       2.006   5.256  18.523  0.00  0.00    +0.000 A 
ATOM     11  C   UNL     1       2.825   6.378  18.752  0.00  0.00    +0.000 A 
ATOM     12  C   UNL     1       4.127   6.117  19.213  0.00  0.00    +0.000 A 
ATOM     13  C   UNL     1       4.638   4.812  19.321  0.00  0.00    +0.000 A 
BRANCH   8  15
ATOM     14  C   UNL     1       3.486   1.482  18.313  0.00  0.00    +0.000 C 
ATOM     15  O   UNL     1       4.230   2.410  19.100  0.00  0.00    +0.000 OA
ENDBRANCH   8  15
ENDBRANCH   2  11
ENDBRANCH   1   5
BRANCH   1  16
ATOM     16  C   UNL     1      -0.527  11.760  18.375  0.00  0.00    +0.000 C 
BRANCH  16  17
ATOM     17  C   UNL     1      -1.984  11.873  18.855  0.00  0.00    +0.000 A 
ATOM     18  C   UNL     1      -2.929  11.366  18.040  0.00  0.00    +0.000 A 
ATOM     19  C   UNL     1      -4.321  11.839  18.198  0.00  0.00    +0.000 A 
ATOM     20  O   UNL     1      -5.097  11.812  17.251  0.00  0.00    +0.000 OA
ATOM     21  C   UNL     1      -4.714  12.337  19.523  0.00  0.00    +0.000 A 
ATOM     22  C   UNL     1      -6.076  12.427  19.837  0.00  0.00    +0.000 A 
ATOM     23  C   UNL     1      -6.464  12.669  21.152  0.00  0.00    +0.000 A 
ATOM     24  C   UNL     1      -7.916  12.638  21.537  0.00  0.00    +0.000 C 
ATOM     25  C   UNL     1      -5.470  12.829  22.123  0.00  0.00    +0.000 A 
ATOM     26  C   UNL     1      -4.091  12.799  21.795  0.00  0.00    +0.000 A 
ATOM     27  C   UNL     1      -3.094  12.853  22.920  0.00  0.00    +0.000 C 
ATOM     28  C   UNL     1      -3.698  12.587  20.459  0.00  0.00    +0.000 A 
ATOM     29  N   UNL     1      -2.335  12.542  20.036  0.00  0.00    +0.000 N 
ATOM     30  H   UNL     1      -1.861  13.443  20.158  0.00  0.00    +0.000 HD
ENDBRANCH  16  17
ENDBRANCH   1  16
TORSDOF 5
ENDMDL
MODEL 3
REMARK VINA RESULT:      -7.8      7.667     10.556
REMARK  Name = 
REMARK  9 active torsions:
REMARK  status: ('A' for Active; 'I' for Inactive)
REMARK    1  A    between atoms: C_1  and  O_2
REMARK    2  A    between atoms: O_2  and  C_3
REMARK    3  A    between atoms: C_6  and  C_7
REMARK    4  A    between atoms: C_10  and  S_11
REMARK    5  A    between atoms: S_11  and  C_12
REMARK    6  A    between atoms: C_12  and  C_13
REMARK    7  A    between atoms: C_19  and  C_20
REMARK    8  A    between atoms: C_22  and  C_23
REMARK    9  A    between atoms: N_26  and  C_27
REMARK                            x       y       z     vdW  Elec       q    Type
REMARK                         _______ _______ _______ _____ _____    ______ ____
ROOT
ATOM      1  S   UNL     1       7.798   8.564  17.649  0.00  0.00    +0.000 S 
ENDROOT
BRANCH   1   5
ATOM      2  C   UNL     1       6.112   5.024  18.001  0.00  0.00    +0.000 A 
ATOM      3  N   UNL     1       7.373   4.703  18.206  0.00  0.00    +0.000 NA
ATOM      4  N   UNL     1       8.167   5.845  18.087  0.00  0.00    +0.000 NA
ATOM      5  C   UNL     1       7.381   6.850  17.832  0.00  0.00    +0.000 A 
ATOM      6  N   UNL     1       6.083   6.407  17.780  0.00  0.00    +0.000 N 
ATOM      7  C   UNL     1       4.906   7.205  17.565  0.00  0.00    +0.000 C 
BRANCH   2  11
ATOM      8  C   UNL     1       2.587   2.513  18.246  0.00  0.00    +0.000 A 
ATOM      9  C   UNL     1       3.488   2.588  19.308  0.00  0.00    +0.000 A 
ATOM     10  C   UNL     1       4.654   3.384  19.219  0.00  0.00    +0.000 A 
ATOM     11  C   UNL     1       4.948   4.117  18.054  0.00  0.00    +0.000 A 
ATOM     12  C   UNL     1       4.075   3.937  16.967  0.00  0.00    +0.000 A 
ATOM     13  C   UNL     1       2.899   3.173  17.065  0.00  0.00    +0.000 A 
BRANCH   8  15
ATOM     14  C   UNL     1       0.364   2.386  19.062  0.00  0.00    +0.000 C 
ATOM     15  O   UNL     1       1.478   1.741  18.448  0.00  0.00    +0.000 OA
ENDBRANCH   8  15
ENDBRANCH   2  11
ENDBRANCH   1   5
BRANCH   1  16
ATOM     16  C   UNL     1       8.901   8.886  19.032  0.00  0.00    +0.000 C 
BRANCH  16  17
ATOM     17  C   UNL     1       9.309  10.362  19.178  0.00  0.00    +0.000 A 
ATOM     18  C   UNL     1       9.567  11.032  18.038  0.00  0.00    +0.000 A 
ATOM     19  C   UNL     1      10.389  12.259  18.115  0.00  0.00    +0.000 A 
ATOM     20  O   UNL     1      11.043  12.630  17.149  0.00  0.00    +0.000 OA
ATOM     21  C   UNL     1      10.381  12.993  19.388  0.00  0.00    +0.000 A 
ATOM     22  C   UNL     1      10.805  14.327  19.405  0.00  0.00    +0.000 A 
ATOM     23  C   UNL     1      10.587  15.105  20.539  0.00  0.00    +0.000 A 
ATOM     24  C   UNL     1      10.913  16.572  20.532  0.00  0.00    +0.000 C 
ATOM     25  C   UNL     1       9.956  14.517  21.640  0.00  0.00    +0.000 A 
ATOM     26  C   UNL     1       9.580  13.150  21.646  0.00  0.00    +0.000 A 
ATOM     27  C   UNL     1       8.794  12.637  22.822  0.00  0.00    +0.000 C 
ATOM     28  C   UNL     1       9.831  12.355  20.512  0.00  0.00    +0.000 A 
ATOM     29  N   UNL     1       9.489  10.970  20.428  0.00  0.00    +0.000 N 
ATOM     30  H   UNL     1      10.019  10.399  21.094  0.00  0.00    +0.000 HD
ENDBRANCH  16  17
ENDBRANCH   1  16
TORSDOF 5
ENDMDL
MODEL 4
REMARK VINA RESULT:      -7.7      2.747     10.254
REMARK  Name = 
REMARK  9 active torsions:
REMARK  status: ('A' for Active; 'I' for Inactive)
REMARK    1  A    between atoms: C_1  and  O_2
REMARK    2  A    between atoms: O_2  and  C_3
REMARK    3  A    between atoms: C_6  and  C_7
REMARK    4  A    between atoms: C_10  and  S_11
REMARK    5  A    between atoms: S_11  and  C_12
REMARK    6  A    between atoms: C_12  and  C_13
REMARK    7  A    between atoms: C_19  and  C_20
REMARK    8  A    between atoms: C_22  and  C_23
REMARK    9  A    between atoms: N_26  and  C_27
REMARK                            x       y       z     vdW  Elec       q    Type
REMARK                         _______ _______ _______ _____ _____    ______ ____
ROOT
ATOM      1  S   UNL     1       0.816   9.383  18.096  0.00  0.00    +0.000 S 
ENDROOT
BRANCH   1   5
ATOM      2  C   UNL     1      -0.211  11.189  21.439  0.00  0.00    +0.000 A 
ATOM      3  N   UNL     1       0.655  10.312  21.905  0.00  0.00    +0.000 NA
ATOM      4  N   UNL     1       1.126   9.523  20.853  0.00  0.00    +0.000 NA
ATOM      5  C   UNL     1       0.560   9.942  19.759  0.00  0.00    +0.000 A 
ATOM      6  N   UNL     1      -0.275  10.990  20.054  0.00  0.00    +0.000 N 
ATOM      7  C   UNL     1      -1.054  11.763  19.124  0.00  0.00    +0.000 C 
BRANCH   2  11
ATOM      8  C   UNL     1      -2.234  14.139  23.888  0.00  0.00    +0.000 A 
ATOM      9  C   UNL     1      -2.821  12.901  23.627  0.00  0.00    +0.000 A 
ATOM     10  C   UNL     1      -2.176  11.948  22.804  0.00  0.00    +0.000 A 
ATOM     11  C   UNL     1      -0.927  12.222  22.215  0.00  0.00    +0.000 A 
ATOM     12  C   UNL     1      -0.413  13.515  22.414  0.00  0.00    +0.000 A 
ATOM     13  C   UNL     1      -1.037  14.451  23.257  0.00  0.00    +0.000 A 
BRANCH   8  15
ATOM     14  C   UNL     1      -4.219  15.376  24.272  0.00  0.00    +0.000 C 
ATOM     15  O   UNL     1      -2.927  14.972  24.720  0.00  0.00    +0.000 OA
ENDBRANCH   8  15
ENDBRANCH   2  11
ENDBRANCH   1   5
BRANCH   1  16
ATOM     16  C   UNL     1       2.583   9.065  18.017  0.00  0.00    +0.000 C 
BRANCH  16  17
ATOM     17  C   UNL     1       2.952   7.573  18.005  0.00  0.00    +0.000 A 
ATOM     18  C   UNL     1       4.116   7.243  17.411  0.00  0.00    +0.000 A 
ATOM     19  C   UNL     1       4.303   5.849  16.956  0.00  0.00    +0.000 A 
ATOM     20  O   UNL     1       5.065   5.595  16.032  0.00  0.00    +0.000 OA
ATOM     21  C   UNL     1       3.540   4.807  17.656  0.00  0.00    +0.000 A 
ATOM     22  C   UNL     1       3.953   3.473  17.544  0.00  0.00    +0.000 A 
ATOM     23  C   UNL     1       3.394   2.508  18.378  0.00  0.00    +0.000 A 
ATOM     24  C   UNL     1       3.914   1.098  18.368  0.00  0.00    +0.000 C 
ATOM     25  C   UNL     1       2.419   2.905  19.298  0.00  0.00    +0.000 A 
ATOM     26  C   UNL     1       1.957   4.243  19.370  0.00  0.00    +0.000 A 
ATOM     27  C   UNL     1       1.000   4.604  20.474  0.00  0.00    +0.000 C 
ATOM     28  C   UNL     1       2.498   5.213  18.504  0.00  0.00    +0.000 A 
ATOM     29  N   UNL     1       2.094   6.583  18.504  0.00  0.00    +0.000 N 
ATOM     30  H   UNL     1       1.116   6.699  18.217  0.00  0.00    +0.000 HD
ENDBRANCH  16  17
ENDBRANCH   1  16
TORSDOF 5
ENDMDL
MODEL 5
REMARK VINA RESULT:      -7.7      1.912      2.547
REMARK  Name = 
REMARK  9 active torsions:
REMARK  status: ('A' for Active; 'I' for Inactive)
REMARK    1  A    between atoms: C_1  and  O_2
REMARK    2  A    between atoms: O_2  and  C_3
REMARK    3  A    between atoms: C_6  and  C_7
REMARK    4  A    between atoms: C_10  and  S_11
REMARK    5  A    between atoms: S_11  and  C_12
REMARK    6  A    between atoms: C_12  and  C_13
REMARK    7  A    between atoms: C_19  and  C_20
REMARK    8  A    between atoms: C_22  and  C_23
REMARK    9  A    between atoms: N_26  and  C_27
REMARK                            x       y       z     vdW  Elec       q    Type
REMARK                         _______ _______ _______ _____ _____    ______ ____
ROOT
ATOM      1  S   UNL     1       1.430  11.017  18.770  0.00  0.00    +0.000 S 
ENDROOT
BRANCH   1   5
ATOM      2  C   UNL     1       1.766   7.362  20.193  0.00  0.00    +0.000 A 
ATOM      3  N   UNL     1       1.223   7.967  21.230  0.00  0.00    +0.000 NA
ATOM      4  N   UNL     1       1.049   9.321  20.938  0.00  0.00    +0.000 NA
ATOM      5  C   UNL     1       1.466   9.521  19.721  0.00  0.00    +0.000 A 
ATOM      6  N   UNL     1       1.912   8.334  19.195  0.00  0.00    +0.000 N 
ATOM      7  C   UNL     1       2.414   8.113  17.866  0.00  0.00    +0.000 C 
BRANCH   2  11
ATOM      8  C   UNL     1       2.647   3.150  19.675  0.00  0.00    +0.000 A 
ATOM      9  C   UNL     1       1.435   3.565  20.226  0.00  0.00    +0.000 A 
ATOM     10  C   UNL     1       1.158   4.938  20.423  0.00  0.00    +0.000 A 
ATOM     11  C   UNL     1       2.098   5.928  20.080  0.00  0.00    +0.000 A 
ATOM     12  C   UNL     1       3.347   5.471  19.624  0.00  0.00    +0.000 A 
ATOM     13  C   UNL     1       3.612   4.109  19.398  0.00  0.00    +0.000 A 
BRANCH   8  15
ATOM     14  C   UNL     1       3.721   1.402  18.486  0.00  0.00    +0.000 C 
ATOM     15  O   UNL     1       2.801   1.803  19.499  0.00  0.00    +0.000 OA
ENDBRANCH   8  15
ENDBRANCH   2  11
ENDBRANCH   1   5
BRANCH   1  16
ATOM     16  C   UNL     1       0.568  12.181  19.834  0.00  0.00    +0.000 C 
BRANCH  16  17
ATOM     17  C   UNL     1      -0.944  12.272  19.570  0.00  0.00    +0.000 A 
ATOM     18  C   UNL     1      -1.658  13.048  20.408  0.00  0.00    +0.000 A 
ATOM     19  C   UNL     1      -3.115  12.820  20.508  0.00  0.00    +0.000 A 
ATOM     20  O   UNL     1      -3.721  13.115  21.531  0.00  0.00    +0.000 OA
ATOM     21  C   UNL     1      -3.783  12.228  19.341  0.00  0.00    +0.000 A 
ATOM     22  C   UNL     1      -5.174  12.346  19.223  0.00  0.00    +0.000 A 
ATOM     23  C   UNL     1      -5.794  12.004  18.024  0.00  0.00    +0.000 A 
ATOM     24  C   UNL     1      -7.264  12.247  17.829  0.00  0.00    +0.000 C 
ATOM     25  C   UNL     1      -5.000  11.536  16.972  0.00  0.00    +0.000 A 
ATOM     26  C   UNL     1      -3.601  11.359  17.111  0.00  0.00    +0.000 A 
ATOM     27  C   UNL     1      -2.812  10.972  15.890  0.00  0.00    +0.000 C 
ATOM     28  C   UNL     1      -2.978  11.673  18.334  0.00  0.00    +0.000 A 
ATOM     29  N   UNL     1      -1.576  11.525  18.566  0.00  0.00    +0.000 N 
ATOM     30  H   UNL     1      -1.278  10.545  18.528  0.00  0.00    +0.000 HD
ENDBRANCH  16  17
ENDBRANCH   1  16
TORSDOF 5
ENDMDL
MODEL 6
REMARK VINA RESULT:      -7.5      1.638      2.615
REMARK  Name = 
REMARK  9 active torsions:
REMARK  status: ('A' for Active; 'I' for Inactive)
REMARK    1  A    between atoms: C_1  and  O_2
REMARK    2  A    between atoms: O_2  and  C_3
REMARK    3  A    between atoms: C_6  and  C_7
REMARK    4  A    between atoms: C_10  and  S_11
REMARK    5  A    between atoms: S_11  and  C_12
REMARK    6  A    between atoms: C_12  and  C_13
REMARK    7  A    between atoms: C_19  and  C_20
REMARK    8  A    between atoms: C_22  and  C_23
REMARK    9  A    between atoms: N_26  and  C_27
REMARK                            x       y       z     vdW  Elec       q    Type
REMARK                         _______ _______ _______ _____ _____    ______ ____
ROOT
ATOM      1  S   UNL     1       0.730   9.787  20.272  0.00  0.00    +0.000 S 
ENDROOT
BRANCH   1   5
ATOM      2  C   UNL     1       2.680   6.616  18.990  0.00  0.00    +0.000 A 
ATOM      3  N   UNL     1       2.259   6.174  20.157  0.00  0.00    +0.000 NA
ATOM      4  N   UNL     1       1.553   7.187  20.809  0.00  0.00    +0.000 NA
ATOM      5  C   UNL     1       1.535   8.225  20.025  0.00  0.00    +0.000 A 
ATOM      6  N   UNL     1       2.209   7.929  18.866  0.00  0.00    +0.000 N 
ATOM      7  C   UNL     1       2.383   8.786  17.725  0.00  0.00    +0.000 C 
BRANCH   2  11
ATOM      8  C   UNL     1       5.081   4.363  16.170  0.00  0.00    +0.000 A 
ATOM      9  C   UNL     1       5.252   5.739  16.317  0.00  0.00    +0.000 A 
ATOM     10  C   UNL     1       4.450   6.481  17.215  0.00  0.00    +0.000 A 
ATOM     11  C   UNL     1       3.447   5.858  17.981  0.00  0.00    +0.000 A 
ATOM     12  C   UNL     1       3.231   4.491  17.733  0.00  0.00    +0.000 A 
ATOM     13  C   UNL     1       4.048   3.746  16.865  0.00  0.00    +0.000 A 
BRANCH   8  15
ATOM     14  C   UNL     1       6.947   4.550  14.720  0.00  0.00    +0.000 C 
ATOM     15  O   UNL     1       5.928   3.738  15.299  0.00  0.00    +0.000 OA
ENDBRANCH   8  15
ENDBRANCH   2  11
ENDBRANCH   1   5
BRANCH   1  16
ATOM     16  C   UNL     1       0.360  10.346  18.604  0.00  0.00    +0.000 C 
BRANCH  16  17
ATOM     17  C   UNL     1      -1.121  10.690  18.372  0.00  0.00    +0.000 A 
ATOM     18  C   UNL     1      -1.737  10.051  17.359  0.00  0.00    +0.000 A 
ATOM     19  C   UNL     1      -2.966  10.648  16.795  0.00  0.00    +0.000 A 
ATOM     20  O   UNL     1      -3.291  10.422  15.636  0.00  0.00    +0.000 OA
ATOM     21  C   UNL     1      -3.759  11.513  17.680  0.00  0.00    +0.000 A 
ATOM     22  C   UNL     1      -5.092  11.783  17.348  0.00  0.00    +0.000 A 
ATOM     23  C   UNL     1      -5.922  12.398  18.281  0.00  0.00    +0.000 A 
ATOM     24  C   UNL     1      -7.387  12.578  17.998  0.00  0.00    +0.000 C 
ATOM     25  C   UNL     1      -5.386  12.743  19.527  0.00  0.00    +0.000 A 
ATOM     26  C   UNL     1      -4.022  12.525  19.840  0.00  0.00    +0.000 A 
ATOM     27  C   UNL     1      -3.564  12.810  21.245  0.00  0.00    +0.000 C 
ATOM     28  C   UNL     1      -3.173  11.933  18.885  0.00  0.00    +0.000 A 
ATOM     29  N   UNL     1      -1.787  11.677  19.112  0.00  0.00    +0.000 N 
ATOM     30  H   UNL     1      -1.247  12.540  19.231  0.00  0.00    +0.000 HD
ENDBRANCH  16  17
ENDBRANCH   1  16
TORSDOF 5
ENDMDL
MODEL 7
REMARK VINA RESULT:      -7.5      1.529      1.936
REMARK  Name = 
REMARK  9 active torsions:
REMARK  status: ('A' for Active; 'I' for Inactive)
REMARK    1  A    between atoms: C_1  and  O_2
REMARK    2  A    between atoms: O_2  and  C_3
REMARK    3  A    between atoms: C_6  and  C_7
REMARK    4  A    between atoms: C_10  and  S_11
REMARK    5  A    between atoms: S_11  and  C_12
REMARK    6  A    between atoms: C_12  and  C_13
REMARK    7  A    between atoms: C_19  and  C_20
REMARK    8  A    between atoms: C_22  and  C_23
REMARK    9  A    between atoms: N_26  and  C_27
REMARK                            x       y       z     vdW  Elec       q    Type
REMARK                         _______ _______ _______ _____ _____    ______ ____
ROOT
ATOM      1  S   UNL     1       1.002  11.018  19.502  0.00  0.00    +0.000 S 
ENDROOT
BRANCH   1   5
ATOM      2  C   UNL     1       2.067   7.233  19.698  0.00  0.00    +0.000 A 
ATOM      3  N   UNL     1       1.556   7.394  20.901  0.00  0.00    +0.000 NA
ATOM      4  N   UNL     1       1.138   8.718  21.054  0.00  0.00    +0.000 NA
ATOM      5  C   UNL     1       1.380   9.341  19.938  0.00  0.00    +0.000 A 
ATOM      6  N   UNL     1       1.946   8.466  19.045  0.00  0.00    +0.000 N 
ATOM      7  C   UNL     1       2.324   8.744  17.685  0.00  0.00    +0.000 C 
BRANCH   2  11
ATOM      8  C   UNL     1       3.570   3.461  18.180  0.00  0.00    +0.000 A 
ATOM      9  C   UNL     1       4.314   4.215  19.088  0.00  0.00    +0.000 A 
ATOM     10  C   UNL     1       3.838   5.460  19.562  0.00  0.00    +0.000 A 
ATOM     11  C   UNL     1       2.606   5.983  19.126  0.00  0.00    +0.000 A 
ATOM     12  C   UNL     1       1.933   5.249  18.134  0.00  0.00    +0.000 A 
ATOM     13  C   UNL     1       2.388   3.997  17.686  0.00  0.00    +0.000 A 
BRANCH   8  15
ATOM     14  C   UNL     1       3.560   1.106  18.445  0.00  0.00    +0.000 C 
ATOM     15  O   UNL     1       4.106   2.260  17.810  0.00  0.00    +0.000 OA
ENDBRANCH   8  15
ENDBRANCH   2  11
ENDBRANCH   1   5
BRANCH   1  16
ATOM     16  C   UNL     1      -0.200  11.523  20.739  0.00  0.00    +0.000 C 
BRANCH  16  17
ATOM     17  C   UNL     1      -1.589  11.850  20.166  0.00  0.00    +0.000 A 
ATOM     18  C   UNL     1      -2.372  12.659  20.907  0.00  0.00    +0.000 A 
ATOM     19  C   UNL     1      -3.831  12.637  20.668  0.00  0.00    +0.000 A 
ATOM     20  O   UNL     1      -4.611  12.942  21.561  0.00  0.00    +0.000 OA
ATOM     21  C   UNL     1      -4.285  12.235  19.330  0.00  0.00    +0.000 A 
ATOM     22  C   UNL     1      -5.586  12.562  18.928  0.00  0.00    +0.000 A 
ATOM     23  C   UNL     1      -5.956  12.401  17.596  0.00  0.00    +0.000 A 
ATOM     24  C   UNL     1      -7.302  12.868  17.116  0.00  0.00    +0.000 C 
ATOM     25  C   UNL     1      -5.009  11.901  16.696  0.00  0.00    +0.000 A 
ATOM     26  C   UNL     1      -3.712  11.513  17.114  0.00  0.00    +0.000 A 
ATOM     27  C   UNL     1      -2.721  11.106  16.057  0.00  0.00    +0.000 C 
ATOM     28  C   UNL     1      -3.348  11.644  18.467  0.00  0.00    +0.000 A 
ATOM     29  N   UNL     1      -2.065  11.278  18.979  0.00  0.00    +0.000 N 
ATOM     30  H   UNL     1      -1.892  10.270  18.905  0.00  0.00    +0.000 HD
ENDBRANCH  16  17
ENDBRANCH   1  16
TORSDOF 5
ENDMDL
MODEL 8
REMARK VINA RESULT:      -7.5      2.017      2.491
REMARK  Name = 
REMARK  9 active torsions:
REMARK  status: ('A' for Active; 'I' for Inactive)
REMARK    1  A    between atoms: C_1  and  O_2
REMARK    2  A    between atoms: O_2  and  C_3
REMARK    3  A    between atoms: C_6  and  C_7
REMARK    4  A    between atoms: C_10  and  S_11
REMARK    5  A    between atoms: S_11  and  C_12
REMARK    6  A    between atoms: C_12  and  C_13
REMARK    7  A    between atoms: C_19  and  C_20
REMARK    8  A    between atoms: C_22  and  C_23
REMARK    9  A    between atoms: N_26  and  C_27
REMARK                            x       y       z     vdW  Elec       q    Type
REMARK                         _______ _______ _______ _____ _____    ______ ____
ROOT
ATOM      1  S   UNL     1       0.704  11.370  19.697  0.00  0.00    +0.000 S 
ENDROOT
BRANCH   1   5
ATOM      2  C   UNL     1       2.202   7.963  18.413  0.00  0.00    +0.000 A 
ATOM      3  N   UNL     1       2.488   8.743  17.391  0.00  0.00    +0.000 NA
ATOM      4  N   UNL     1       1.997  10.027  17.636  0.00  0.00    +0.000 NA
ATOM      5  C   UNL     1       1.438  10.019  18.811  0.00  0.00    +0.000 A 
ATOM      6  N   UNL     1       1.545   8.764  19.355  0.00  0.00    +0.000 N 
ATOM      7  C   UNL     1       1.095   8.345  20.655  0.00  0.00    +0.000 C 
BRANCH   2  11
ATOM      8  C   UNL     1       3.156   3.782  19.046  0.00  0.00    +0.000 A 
ATOM      9  C   UNL     1       4.007   4.787  19.503  0.00  0.00    +0.000 A 
ATOM     10  C   UNL     1       3.713   6.152  19.272  0.00  0.00    +0.000 A 
ATOM     11  C   UNL     1       2.558   6.538  18.565  0.00  0.00    +0.000 A 
ATOM     12  C   UNL     1       1.778   5.499  18.029  0.00  0.00    +0.000 A 
ATOM     13  C   UNL     1       2.051   4.144  18.285  0.00  0.00    +0.000 A 
BRANCH   8  15
ATOM     14  C   UNL     1       3.596   1.591  18.252  0.00  0.00    +0.000 C 
ATOM     15  O   UNL     1       3.518   2.499  19.349  0.00  0.00    +0.000 OA
ENDBRANCH   8  15
ENDBRANCH   2  11
ENDBRANCH   1   5
BRANCH   1  16
ATOM     16  C   UNL     1      -0.620  11.923  18.615  0.00  0.00    +0.000 C 
BRANCH  16  17
ATOM     17  C   UNL     1      -1.930  12.259  19.349  0.00  0.00    +0.000 A 
ATOM     18  C   UNL     1      -1.812  12.775  20.587  0.00  0.00    +0.000 A 
ATOM     19  C   UNL     1      -2.971  12.682  21.500  0.00  0.00    +0.000 A 
ATOM     20  O   UNL     1      -2.807  12.676  22.714  0.00  0.00    +0.000 OA
ATOM     21  C   UNL     1      -4.304  12.596  20.887  0.00  0.00    +0.000 A 
ATOM     22  C   UNL     1      -5.429  12.895  21.664  0.00  0.00    +0.000 A 
ATOM     23  C   UNL     1      -6.669  13.048  21.050  0.00  0.00    +0.000 A 
ATOM     24  C   UNL     1      -7.864  13.497  21.844  0.00  0.00    +0.000 C 
ATOM     25  C   UNL     1      -6.752  12.884  19.663  0.00  0.00    +0.000 A 
ATOM     26  C   UNL     1      -5.625  12.522  18.884  0.00  0.00    +0.000 A 
ATOM     27  C   UNL     1      -5.779  12.492  17.388  0.00  0.00    +0.000 C 
ATOM     28  C   UNL     1      -4.377  12.334  19.509  0.00  0.00    +0.000 A 
ATOM     29  N   UNL     1      -3.189  11.969  18.806  0.00  0.00    +0.000 N 
ATOM     30  H   UNL     1      -3.256  11.034  18.391  0.00  0.00    +0.000 HD
ENDBRANCH  16  17
ENDBRANCH   1  16
TORSDOF 5
ENDMDL
MODEL 9
REMARK VINA RESULT:      -7.4      1.802      2.893
REMARK  Name = 
REMARK  9 active torsions:
REMARK  status: ('A' for Active; 'I' for Inactive)
REMARK    1  A    between atoms: C_1  and  O_2
REMARK    2  A    between atoms: O_2  and  C_3
REMARK    3  A    between atoms: C_6  and  C_7
REMARK    4  A    between atoms: C_10  and  S_11
REMARK    5  A    between atoms: S_11  and  C_12
REMARK    6  A    between atoms: C_12  and  C_13
REMARK    7  A    between atoms: C_19  and  C_20
REMARK    8  A    between atoms: C_22  and  C_23
REMARK    9  A    between atoms: N_26  and  C_27
REMARK                            x       y       z     vdW  Elec       q    Type
REMARK                         _______ _______ _______ _____ _____    ______ ____
ROOT
ATOM      1  S   UNL     1       1.024  10.791  20.550  0.00  0.00    +0.000 S 
ENDROOT
BRANCH   1   5
ATOM      2  C   UNL     1       2.151   7.769  18.293  0.00  0.00    +0.000 A 
ATOM      3  N   UNL     1       2.177   8.744  17.407  0.00  0.00    +0.000 NA
ATOM      4  N   UNL     1       1.764   9.932  18.013  0.00  0.00    +0.000 NA
ATOM      5  C   UNL     1       1.512   9.672  19.263  0.00  0.00    +0.000 A 
ATOM      6  N   UNL     1       1.749   8.342  19.506  0.00  0.00    +0.000 N 
ATOM      7  C   UNL     1       1.634   7.660  20.767  0.00  0.00    +0.000 C 
BRANCH   2  11
ATOM      8  C   UNL     1       3.272   3.606  17.840  0.00  0.00    +0.000 A 
ATOM      9  C   UNL     1       4.242   4.596  17.990  0.00  0.00    +0.000 A 
ATOM     10  C   UNL     1       3.880   5.959  18.109  0.00  0.00    +0.000 A 
ATOM     11  C   UNL     1       2.531   6.360  18.069  0.00  0.00    +0.000 A 
ATOM     12  C   UNL     1       1.587   5.350  17.813  0.00  0.00    +0.000 A 
ATOM     13  C   UNL     1       1.943   3.993  17.727  0.00  0.00    +0.000 A 
BRANCH   8  15
ATOM     14  C   UNL     1       3.904   1.642  19.008  0.00  0.00    +0.000 C 
ATOM     15  O   UNL     1       3.728   2.320  17.766  0.00  0.00    +0.000 OA
ENDBRANCH   8  15
ENDBRANCH   2  11
ENDBRANCH   1   5
BRANCH   1  16
ATOM     16  C   UNL     1       0.200  12.123  19.669  0.00  0.00    +0.000 C 
BRANCH  16  17
ATOM     17  C   UNL     1      -1.332  12.114  19.809  0.00  0.00    +0.000 A 
ATOM     18  C   UNL     1      -2.023  11.486  18.838  0.00  0.00    +0.000 A 
ATOM     19  C   UNL     1      -3.449  11.829  18.656  0.00  0.00    +0.000 A 
ATOM     20  O   UNL     1      -3.987  11.690  17.565  0.00  0.00    +0.000 OA
ATOM     21  C   UNL     1      -4.172  12.338  19.830  0.00  0.00    +0.000 A 
ATOM     22  C   UNL     1      -5.572  12.308  19.831  0.00  0.00    +0.000 A 
ATOM     23  C   UNL     1      -6.265  12.562  21.011  0.00  0.00    +0.000 A 
ATOM     24  C   UNL     1      -7.759  12.406  21.067  0.00  0.00    +0.000 C 
ATOM     25  C   UNL     1      -5.532  12.855  22.165  0.00  0.00    +0.000 A 
ATOM     26  C   UNL     1      -4.118  12.945  22.151  0.00  0.00    +0.000 A 
ATOM     27  C   UNL     1      -3.408  13.140  23.464  0.00  0.00    +0.000 C 
ATOM     28  C   UNL     1      -3.418  12.721  20.951  0.00  0.00    +0.000 A 
ATOM     29  N   UNL     1      -1.995  12.791  20.842  0.00  0.00    +0.000 N 
ATOM     30  H   UNL     1      -1.640  13.738  21.012  0.00  0.00    +0.000 HD
ENDBRANCH  16  17
ENDBRANCH   1  16
TORSDOF 5
ENDMDL
