MODEL 1
REMARK VINA RESULT:      -8.7      0.000      0.000
REMARK  Name = 
REMARK  7 active torsions:
REMARK  status: ('A' for Active; 'I' for Inactive)
REMARK    1  A    between atoms: C_1  and  O_2
REMARK    2  A    between atoms: O_2  and  C_3
REMARK    3  A    between atoms: C_5  and  C_6
REMARK    4  A    between atoms: C_10  and  C_11
REMARK    5  A    between atoms: N_13  and  C_14
REMARK    6  A    between atoms: C_14  and  C_15
REMARK    7  A    between atoms: C_14  and  C_16
REMARK                            x       y       z     vdW  Elec       q    Type
REMARK                         _______ _______ _______ _____ _____    ______ ____
ROOT
ATOM      1  C   UNL     1       6.657   4.996  16.337  0.00  0.00    +0.000 A 
ATOM      2  C   UNL     1       7.498   5.872  17.050  0.00  0.00    +0.000 A 
ATOM      3  C   UNL     1       7.368   6.039  18.432  0.00  0.00    +0.000 A 
ATOM      4  C   UNL     1       6.388   5.338  19.130  0.00  0.00    +0.000 A 
ATOM      5  C   UNL     1       5.511   4.492  18.450  0.00  0.00    +0.000 A 
ATOM      6  C   UNL     1       5.645   4.328  17.060  0.00  0.00    +0.000 A 
ENDROOT
BRANCH   1   9
ATOM      7  C   UNL     1       6.365   3.697  12.853  0.00  0.00    +0.000 A 
ATOM      8  C   UNL     1       6.124   3.774  14.205  0.00  0.00    +0.000 A 
ATOM      9  C   UNL     1       6.837   4.739  14.890  0.00  0.00    +0.000 A 
ATOM     10  N   UNL     1       7.719   5.547  14.257  0.00  0.00    +0.000 NA
ATOM     11  C   UNL     1       7.862   5.394  12.941  0.00  0.00    +0.000 A 
ATOM     12  N   UNL     1       8.758   6.211  12.283  0.00  0.00    +0.000 N 
ATOM     13  N   UNL     1       7.228   4.489  12.206  0.00  0.00    +0.000 NA
ATOM     14  H   UNL     1       9.482   6.515  12.918  0.00  0.00    +0.000 HD
ATOM     15  H   UNL     1       9.052   5.762  11.426  0.00  0.00    +0.000 HD
BRANCH   7  17
ATOM     16  C   UNL     1       4.476   3.243  11.560  0.00  0.00    +0.000 C 
ATOM     17  O   UNL     1       5.669   2.733  12.154  0.00  0.00    +0.000 OA
ENDBRANCH   7  17
ENDBRANCH   1   9
BRANCH   5  18
ATOM     18  C   UNL     1       4.504   3.737  19.249  0.00  0.00    +0.000 C 
ATOM     19  O   UNL     1       4.838   2.731  19.864  0.00  0.00    +0.000 OA
ATOM     20  N   UNL     1       3.220   4.233  19.270  0.00  0.00    +0.000 N 
ATOM     21  H   UNL     1       3.012   5.125  18.836  0.00  0.00    +0.000 HD
BRANCH  20  22
ATOM     22  C   UNL     1       2.137   3.565  20.022  0.00  0.00    +0.000 C 
ATOM     23  C   UNL     1       1.209   4.605  20.653  0.00  0.00    +0.000 C 
BRANCH  22  24
ATOM     24  C   UNL     1       1.343   2.548  19.173  0.00  0.00    +0.000 C 
ATOM     25  F   UNL     1       1.791   1.286  19.382  0.00  0.00    +0.000 F 
ATOM     26  F   UNL     1       0.028   2.564  19.491  0.00  0.00    +0.000 F 
ATOM     27  F   UNL     1       1.444   2.785  17.846  0.00  0.00    +0.000 F 
ENDBRANCH  22  24
ENDBRANCH  20  22
ENDBRANCH   5  18
TORSDOF 5
ENDMDL
MODEL 2
REMARK VINA RESULT:      -8.6      1.484      1.726
REMARK  Name = 
REMARK  7 active torsions:
REMARK  status: ('A' for Active; 'I' for Inactive)
REMARK    1  A    between atoms: C_1  and  O_2
REMARK    2  A    between atoms: O_2  and  C_3
REMARK    3  A    between atoms: C_5  and  C_6
REMARK    4  A    between atoms: C_10  and  C_11
REMARK    5  A    between atoms: N_13  and  C_14
REMARK    6  A    between atoms: C_14  and  C_15
REMARK    7  A    between atoms: C_14  and  C_16
REMARK                            x       y       z     vdW  Elec       q    Type
REMARK                         _______ _______ _______ _____ _____    ______ ____
ROOT
ATOM      1  C   UNL     1       6.505   4.908  16.345  0.00  0.00    +0.000 A 
ATOM      2  C   UNL     1       7.574   5.169  17.223  0.00  0.00    +0.000 A 
ATOM      3  C   UNL     1       7.367   5.308  18.598  0.00  0.00    +0.000 A 
ATOM      4  C   UNL     1       6.083   5.196  19.125  0.00  0.00    +0.000 A 
ATOM      5  C   UNL     1       4.994   4.976  18.279  0.00  0.00    +0.000 A 
ATOM      6  C   UNL     1       5.208   4.839  16.897  0.00  0.00    +0.000 A 
ENDROOT
BRANCH   1   9
ATOM      7  C   UNL     1       6.292   3.652  12.839  0.00  0.00    +0.000 A 
ATOM      8  C   UNL     1       6.022   3.712  14.186  0.00  0.00    +0.000 A 
ATOM      9  C   UNL     1       6.717   4.669  14.898  0.00  0.00    +0.000 A 
ATOM     10  N   UNL     1       7.609   5.488  14.295  0.00  0.00    +0.000 NA
ATOM     11  C   UNL     1       7.780   5.352  12.980  0.00  0.00    +0.000 A 
ATOM     12  N   UNL     1       8.688   6.180  12.352  0.00  0.00    +0.000 N 
ATOM     13  N   UNL     1       7.166   4.455  12.221  0.00  0.00    +0.000 NA
ATOM     14  H   UNL     1       9.398   6.479  13.006  0.00  0.00    +0.000 HD
ATOM     15  H   UNL     1       9.002   5.743  11.496  0.00  0.00    +0.000 HD
BRANCH   7  17
ATOM     16  C   UNL     1       4.440   3.213  11.488  0.00  0.00    +0.000 C 
ATOM     17  O   UNL     1       5.614   2.695  12.113  0.00  0.00    +0.000 OA
ENDBRANCH   7  17
ENDBRANCH   1   9
BRANCH   5  18
ATOM     18  C   UNL     1       3.645   4.827  18.897  0.00  0.00    +0.000 C 
ATOM     19  O   UNL     1       2.945   5.816  19.084  0.00  0.00    +0.000 OA
ATOM     20  N   UNL     1       3.238   3.552  19.216  0.00  0.00    +0.000 N 
ATOM     21  H   UNL     1       3.803   2.755  18.947  0.00  0.00    +0.000 HD
BRANCH  20  22
ATOM     22  C   UNL     1       1.925   3.284  19.839  0.00  0.00    +0.000 C 
ATOM     23  C   UNL     1       1.252   2.086  19.166  0.00  0.00    +0.000 C 
BRANCH  22  24
ATOM     24  C   UNL     1       2.003   3.095  21.370  0.00  0.00    +0.000 C 
ATOM     25  F   UNL     1       3.002   2.242  21.704  0.00  0.00    +0.000 F 
ATOM     26  F   UNL     1       2.249   4.267  21.998  0.00  0.00    +0.000 F 
ATOM     27  F   UNL     1       0.864   2.586  21.890  0.00  0.00    +0.000 F 
ENDBRANCH  22  24
ENDBRANCH  20  22
ENDBRANCH   5  18
TORSDOF 5
ENDMDL
MODEL 3
REMARK VINA RESULT:      -8.4      0.990      1.039
REMARK  Name = 
REMARK  7 active torsions:
REMARK  status: ('A' for Active; 'I' for Inactive)
REMARK    1  A    between atoms: C_1  and  O_2
REMARK    2  A    between atoms: O_2  and  C_3
REMARK    3  A    between atoms: C_5  and  C_6
REMARK    4  A    between atoms: C_10  and  C_11
REMARK    5  A    between atoms: N_13  and  C_14
REMARK    6  A    between atoms: C_14  and  C_15
REMARK    7  A    between atoms: C_14  and  C_16
REMARK                            x       y       z     vdW  Elec       q    Type
REMARK                         _______ _______ _______ _____ _____    ______ ____
ROOT
ATOM      1  C   UNL     1       6.562   4.988  16.555  0.00  0.00    +0.000 A 
ATOM      2  C   UNL     1       7.572   5.563  17.349  0.00  0.00    +0.000 A 
ATOM      3  C   UNL     1       7.406   5.728  18.727  0.00  0.00    +0.000 A 
ATOM      4  C   UNL     1       6.222   5.326  19.340  0.00  0.00    +0.000 A 
ATOM      5  C   UNL     1       5.184   4.789  18.577  0.00  0.00    +0.000 A 
ATOM      6  C   UNL     1       5.355   4.627  17.191  0.00  0.00    +0.000 A 
ENDROOT
BRANCH   1   9
ATOM      7  C   UNL     1       6.281   3.696  13.067  0.00  0.00    +0.000 A 
ATOM      8  C   UNL     1       6.023   3.781  14.416  0.00  0.00    +0.000 A 
ATOM      9  C   UNL     1       6.755   4.725  15.109  0.00  0.00    +0.000 A 
ATOM     10  N   UNL     1       7.668   5.507  14.489  0.00  0.00    +0.000 NA
ATOM     11  C   UNL     1       7.824   5.348  13.175  0.00  0.00    +0.000 A 
ATOM     12  N   UNL     1       8.753   6.138  12.528  0.00  0.00    +0.000 N 
ATOM     13  N   UNL     1       7.175   4.462  12.432  0.00  0.00    +0.000 NA
ATOM     14  H   UNL     1       9.477   6.422  13.174  0.00  0.00    +0.000 HD
ATOM     15  H   UNL     1       9.046   5.680  11.676  0.00  0.00    +0.000 HD
BRANCH   7  17
ATOM     16  C   UNL     1       4.482   3.323  11.627  0.00  0.00    +0.000 C 
ATOM     17  O   UNL     1       5.567   2.752  12.359  0.00  0.00    +0.000 OA
ENDBRANCH   7  17
ENDBRANCH   1   9
BRANCH   5  18
ATOM     18  C   UNL     1       3.951   4.342  19.286  0.00  0.00    +0.000 C 
ATOM     19  O   UNL     1       3.364   5.111  20.039  0.00  0.00    +0.000 OA
ATOM     20  N   UNL     1       3.513   3.061  19.037  0.00  0.00    +0.000 N 
ATOM     21  H   UNL     1       3.966   2.498  18.327  0.00  0.00    +0.000 HD
BRANCH  20  22
ATOM     22  C   UNL     1       2.308   2.507  19.688  0.00  0.00    +0.000 C 
ATOM     23  C   UNL     1       2.403   2.667  21.207  0.00  0.00    +0.000 C 
BRANCH  22  24
ATOM     24  C   UNL     1       0.991   3.105  19.144  0.00  0.00    +0.000 C 
ATOM     25  F   UNL     1       0.124   2.126  18.788  0.00  0.00    +0.000 F 
ATOM     26  F   UNL     1       0.376   3.867  20.076  0.00  0.00    +0.000 F 
ATOM     27  F   UNL     1       1.182   3.876  18.049  0.00  0.00    +0.000 F 
ENDBRANCH  22  24
ENDBRANCH  20  22
ENDBRANCH   5  18
TORSDOF 5
ENDMDL
MODEL 4
REMARK VINA RESULT:      -8.1      1.764      2.000
REMARK  Name = 
REMARK  7 active torsions:
REMARK  status: ('A' for Active; 'I' for Inactive)
REMARK    1  A    between atoms: C_1  and  O_2
REMARK    2  A    between atoms: O_2  and  C_3
REMARK    3  A    between atoms: C_5  and  C_6
REMARK    4  A    between atoms: C_10  and  C_11
REMARK    5  A    between atoms: N_13  and  C_14
REMARK    6  A    between atoms: C_14  and  C_15
REMARK    7  A    between atoms: C_14  and  C_16
REMARK                            x       y       z     vdW  Elec       q    Type
REMARK                         _______ _______ _______ _____ _____    ______ ____
ROOT
ATOM      1  C   UNL     1       5.199   5.299  15.801  0.00  0.00    +0.000 A 
ATOM      2  C   UNL     1       5.281   6.613  16.298  0.00  0.00    +0.000 A 
ATOM      3  C   UNL     1       4.635   6.984  17.480  0.00  0.00    +0.000 A 
ATOM      4  C   UNL     1       3.885   6.049  18.189  0.00  0.00    +0.000 A 
ATOM      5  C   UNL     1       3.748   4.747  17.704  0.00  0.00    +0.000 A 
ATOM      6  C   UNL     1       4.399   4.379  16.514  0.00  0.00    +0.000 A 
ENDROOT
BRANCH   1   9
ATOM      7  C   UNL     1       6.269   3.643  12.634  0.00  0.00    +0.000 A 
ATOM      8  C   UNL     1       5.483   3.893  13.735  0.00  0.00    +0.000 A 
ATOM      9  C   UNL     1       5.948   4.865  14.599  0.00  0.00    +0.000 A 
ATOM     10  N   UNL     1       7.110   5.518  14.367  0.00  0.00    +0.000 NA
ATOM     11  C   UNL     1       7.783   5.205  13.260  0.00  0.00    +0.000 A 
ATOM     12  N   UNL     1       8.970   5.863  13.010  0.00  0.00    +0.000 N 
ATOM     13  N   UNL     1       7.418   4.280  12.382  0.00  0.00    +0.000 NA
ATOM     14  H   UNL     1       9.384   6.175  13.878  0.00  0.00    +0.000 HD
ATOM     15  H   UNL     1       9.544   5.297  12.401  0.00  0.00    +0.000 HD
BRANCH   7  17
ATOM     16  C   UNL     1       4.481   2.890  11.336  0.00  0.00    +0.000 C 
ATOM     17  O   UNL     1       5.825   2.669  11.765  0.00  0.00    +0.000 OA
ENDBRANCH   7  17
ENDBRANCH   1   9
BRANCH   5  18
ATOM     18  C   UNL     1       2.965   3.775  18.518  0.00  0.00    +0.000 C 
ATOM     19  O   UNL     1       3.261   2.585  18.505  0.00  0.00    +0.000 OA
ATOM     20  N   UNL     1       1.933   4.278  19.278  0.00  0.00    +0.000 N 
ATOM     21  H   UNL     1       1.791   5.280  19.342  0.00  0.00    +0.000 HD
BRANCH  20  22
ATOM     22  C   UNL     1       1.084   3.409  20.117  0.00  0.00    +0.000 C 
ATOM     23  C   UNL     1       0.649   2.171  19.330  0.00  0.00    +0.000 C 
BRANCH  22  24
ATOM     24  C   UNL     1       1.749   3.016  21.455  0.00  0.00    +0.000 C 
ATOM     25  F   UNL     1       2.329   4.090  22.043  0.00  0.00    +0.000 F 
ATOM     26  F   UNL     1       0.841   2.522  22.328  0.00  0.00    +0.000 F 
ATOM     27  F   UNL     1       2.715   2.083  21.303  0.00  0.00    +0.000 F 
ENDBRANCH  22  24
ENDBRANCH  20  22
ENDBRANCH   5  18
TORSDOF 5
ENDMDL
MODEL 5
REMARK VINA RESULT:      -8.0      3.141      7.281
REMARK  Name = 
REMARK  7 active torsions:
REMARK  status: ('A' for Active; 'I' for Inactive)
REMARK    1  A    between atoms: C_1  and  O_2
REMARK    2  A    between atoms: O_2  and  C_3
REMARK    3  A    between atoms: C_5  and  C_6
REMARK    4  A    between atoms: C_10  and  C_11
REMARK    5  A    between atoms: N_13  and  C_14
REMARK    6  A    between atoms: C_14  and  C_15
REMARK    7  A    between atoms: C_14  and  C_16
REMARK                            x       y       z     vdW  Elec       q    Type
REMARK                         _______ _______ _______ _____ _____    ______ ____
ROOT
ATOM      1  C   UNL     1       5.148   4.417  17.843  0.00  0.00    +0.000 A 
ATOM      2  C   UNL     1       6.359   4.578  18.542  0.00  0.00    +0.000 A 
ATOM      3  C   UNL     1       7.574   4.719  17.867  0.00  0.00    +0.000 A 
ATOM      4  C   UNL     1       7.606   4.695  16.474  0.00  0.00    +0.000 A 
ATOM      5  C   UNL     1       6.429   4.497  15.750  0.00  0.00    +0.000 A 
ATOM      6  C   UNL     1       5.210   4.354  16.434  0.00  0.00    +0.000 A 
ENDROOT
BRANCH   1   9
ATOM      7  C   UNL     1       2.101   5.201  19.847  0.00  0.00    +0.000 A 
ATOM      8  C   UNL     1       3.356   5.389  19.314  0.00  0.00    +0.000 A 
ATOM      9  C   UNL     1       3.841   4.356  18.538  0.00  0.00    +0.000 A 
ATOM     10  N   UNL     1       3.119   3.231  18.327  0.00  0.00    +0.000 NA
ATOM     11  C   UNL     1       1.908   3.163  18.880  0.00  0.00    +0.000 A 
ATOM     12  N   UNL     1       1.160   2.022  18.674  0.00  0.00    +0.000 N 
ATOM     13  N   UNL     1       1.367   4.101  19.648  0.00  0.00    +0.000 NA
ATOM     14  H   UNL     1       1.769   1.234  18.500  0.00  0.00    +0.000 HD
ATOM     15  H   UNL     1       0.483   1.928  19.419  0.00  0.00    +0.000 HD
BRANCH   7  17
ATOM     16  C   UNL     1       1.950   7.513  20.137  0.00  0.00    +0.000 C 
ATOM     17  O   UNL     1       1.603   6.220  20.633  0.00  0.00    +0.000 OA
ENDBRANCH   7  17
ENDBRANCH   1   9
BRANCH   5  18
ATOM     18  C   UNL     1       6.511   4.516  14.261  0.00  0.00    +0.000 C 
ATOM     19  O   UNL     1       7.098   5.429  13.691  0.00  0.00    +0.000 OA
ATOM     20  N   UNL     1       5.925   3.469  13.586  0.00  0.00    +0.000 N 
ATOM     21  H   UNL     1       5.545   2.682  14.100  0.00  0.00    +0.000 HD
BRANCH  20  22
ATOM     22  C   UNL     1       5.938   3.385  12.112  0.00  0.00    +0.000 C 
ATOM     23  C   UNL     1       6.892   2.281  11.650  0.00  0.00    +0.000 C 
BRANCH  22  24
ATOM     24  C   UNL     1       4.532   3.202  11.499  0.00  0.00    +0.000 C 
ATOM     25  F   UNL     1       4.449   2.035  10.813  0.00  0.00    +0.000 F 
ATOM     26  F   UNL     1       3.578   3.172  12.457  0.00  0.00    +0.000 F 
ATOM     27  F   UNL     1       4.208   4.189  10.633  0.00  0.00    +0.000 F 
ENDBRANCH  22  24
ENDBRANCH  20  22
ENDBRANCH   5  18
TORSDOF 5
ENDMDL
MODEL 6
REMARK VINA RESULT:      -8.0      1.746      2.004
REMARK  Name = 
REMARK  7 active torsions:
REMARK  status: ('A' for Active; 'I' for Inactive)
REMARK    1  A    between atoms: C_1  and  O_2
REMARK    2  A    between atoms: O_2  and  C_3
REMARK    3  A    between atoms: C_5  and  C_6
REMARK    4  A    between atoms: C_10  and  C_11
REMARK    5  A    between atoms: N_13  and  C_14
REMARK    6  A    between atoms: C_14  and  C_15
REMARK    7  A    between atoms: C_14  and  C_16
REMARK                            x       y       z     vdW  Elec       q    Type
REMARK                         _______ _______ _______ _____ _____    ______ ____
ROOT
ATOM      1  C   UNL     1       5.232   5.264  15.634  0.00  0.00    +0.000 A 
ATOM      2  C   UNL     1       5.320   6.562  16.173  0.00  0.00    +0.000 A 
ATOM      3  C   UNL     1       4.633   6.912  17.339  0.00  0.00    +0.000 A 
ATOM      4  C   UNL     1       3.835   5.972  17.987  0.00  0.00    +0.000 A 
ATOM      5  C   UNL     1       3.692   4.689  17.458  0.00  0.00    +0.000 A 
ATOM      6  C   UNL     1       4.385   4.342  16.285  0.00  0.00    +0.000 A 
ENDROOT
BRANCH   1   9
ATOM      7  C   UNL     1       6.426   3.634  12.499  0.00  0.00    +0.000 A 
ATOM      8  C   UNL     1       5.606   3.863  13.580  0.00  0.00    +0.000 A 
ATOM      9  C   UNL     1       6.023   4.850  14.452  0.00  0.00    +0.000 A 
ATOM     10  N   UNL     1       7.170   5.536  14.245  0.00  0.00    +0.000 NA
ATOM     11  C   UNL     1       7.878   5.241  13.156  0.00  0.00    +0.000 A 
ATOM     12  N   UNL     1       9.051   5.932  12.933  0.00  0.00    +0.000 N 
ATOM     13  N   UNL     1       7.561   4.303  12.272  0.00  0.00    +0.000 NA
ATOM     14  H   UNL     1       9.435   6.258  13.809  0.00  0.00    +0.000 HD
ATOM     15  H   UNL     1       9.656   5.381  12.339  0.00  0.00    +0.000 HD
BRANCH   7  17
ATOM     16  C   UNL     1       4.643   2.724  11.297  0.00  0.00    +0.000 C 
ATOM     17  O   UNL     1       6.031   2.644  11.622  0.00  0.00    +0.000 OA
ENDBRANCH   7  17
ENDBRANCH   1   9
BRANCH   5  18
ATOM     18  C   UNL     1       2.856   3.710  18.210  0.00  0.00    +0.000 C 
ATOM     19  O   UNL     1       1.937   3.127  17.644  0.00  0.00    +0.000 OA
ATOM     20  N   UNL     1       3.178   3.491  19.530  0.00  0.00    +0.000 N 
ATOM     21  H   UNL     1       4.010   3.912  19.926  0.00  0.00    +0.000 HD
BRANCH  20  22
ATOM     22  C   UNL     1       2.415   2.549  20.374  0.00  0.00    +0.000 C 
ATOM     23  C   UNL     1       3.281   2.055  21.535  0.00  0.00    +0.000 C 
BRANCH  22  24
ATOM     24  C   UNL     1       1.077   3.131  20.882  0.00  0.00    +0.000 C 
ATOM     25  F   UNL     1       0.063   2.829  20.035  0.00  0.00    +0.000 F 
ATOM     26  F   UNL     1       0.751   2.627  22.094  0.00  0.00    +0.000 F 
ATOM     27  F   UNL     1       1.105   4.478  20.996  0.00  0.00    +0.000 F 
ENDBRANCH  22  24
ENDBRANCH  20  22
ENDBRANCH   5  18
TORSDOF 5
ENDMDL
MODEL 7
REMARK VINA RESULT:      -7.9      1.259      1.406
REMARK  Name = 
REMARK  7 active torsions:
REMARK  status: ('A' for Active; 'I' for Inactive)
REMARK    1  A    between atoms: C_1  and  O_2
REMARK    2  A    between atoms: O_2  and  C_3
REMARK    3  A    between atoms: C_5  and  C_6
REMARK    4  A    between atoms: C_10  and  C_11
REMARK    5  A    between atoms: N_13  and  C_14
REMARK    6  A    between atoms: C_14  and  C_15
REMARK    7  A    between atoms: C_14  and  C_16
REMARK                            x       y       z     vdW  Elec       q    Type
REMARK                         _______ _______ _______ _____ _____    ______ ____
ROOT
ATOM      1  C   UNL     1       6.411   4.903  16.431  0.00  0.00    +0.000 A 
ATOM      2  C   UNL     1       7.468   5.153  17.325  0.00  0.00    +0.000 A 
ATOM      3  C   UNL     1       7.243   5.279  18.699  0.00  0.00    +0.000 A 
ATOM      4  C   UNL     1       5.952   5.165  19.207  0.00  0.00    +0.000 A 
ATOM      5  C   UNL     1       4.874   4.957  18.345  0.00  0.00    +0.000 A 
ATOM      6  C   UNL     1       5.106   4.832  16.965  0.00  0.00    +0.000 A 
ENDROOT
BRANCH   1   9
ATOM      7  C   UNL     1       6.192   3.739  12.893  0.00  0.00    +0.000 A 
ATOM      8  C   UNL     1       5.892   3.792  14.235  0.00  0.00    +0.000 A 
ATOM      9  C   UNL     1       6.641   4.677  14.985  0.00  0.00    +0.000 A 
ATOM     10  N   UNL     1       7.610   5.435  14.422  0.00  0.00    +0.000 NA
ATOM     11  C   UNL     1       7.805   5.312  13.109  0.00  0.00    +0.000 A 
ATOM     12  N   UNL     1       8.791   6.079  12.522  0.00  0.00    +0.000 N 
ATOM     13  N   UNL     1       7.142   4.482  12.315  0.00  0.00    +0.000 NA
ATOM     14  H   UNL     1       9.505   6.307  13.200  0.00  0.00    +0.000 HD
ATOM     15  H   UNL     1       9.092   5.635  11.665  0.00  0.00    +0.000 HD
BRANCH   7  17
ATOM     16  C   UNL     1       6.284   1.894  11.466  0.00  0.00    +0.000 C 
ATOM     17  O   UNL     1       5.460   2.853  12.130  0.00  0.00    +0.000 OA
ENDBRANCH   7  17
ENDBRANCH   1   9
BRANCH   5  18
ATOM     18  C   UNL     1       3.517   4.805  18.944  0.00  0.00    +0.000 C 
ATOM     19  O   UNL     1       2.528   4.775  18.220  0.00  0.00    +0.000 OA
ATOM     20  N   UNL     1       3.443   4.685  20.313  0.00  0.00    +0.000 N 
ATOM     21  H   UNL     1       4.291   4.608  20.862  0.00  0.00    +0.000 HD
BRANCH  20  22
ATOM     22  C   UNL     1       2.153   4.538  21.016  0.00  0.00    +0.000 C 
ATOM     23  C   UNL     1       1.191   5.653  20.601  0.00  0.00    +0.000 C 
BRANCH  22  24
ATOM     24  C   UNL     1       1.510   3.146  20.826  0.00  0.00    +0.000 C 
ATOM     25  F   UNL     1       1.085   2.642  22.011  0.00  0.00    +0.000 F 
ATOM     26  F   UNL     1       0.435   3.208  20.008  0.00  0.00    +0.000 F 
ATOM     27  F   UNL     1       2.369   2.243  20.302  0.00  0.00    +0.000 F 
ENDBRANCH  22  24
ENDBRANCH  20  22
ENDBRANCH   5  18
TORSDOF 5
ENDMDL
MODEL 8
REMARK VINA RESULT:      -7.8      3.097      7.069
REMARK  Name = 
REMARK  7 active torsions:
REMARK  status: ('A' for Active; 'I' for Inactive)
REMARK    1  A    between atoms: C_1  and  O_2
REMARK    2  A    between atoms: O_2  and  C_3
REMARK    3  A    between atoms: C_5  and  C_6
REMARK    4  A    between atoms: C_10  and  C_11
REMARK    5  A    between atoms: N_13  and  C_14
REMARK    6  A    between atoms: C_14  and  C_15
REMARK    7  A    between atoms: C_14  and  C_16
REMARK                            x       y       z     vdW  Elec       q    Type
REMARK                         _______ _______ _______ _____ _____    ______ ____
ROOT
ATOM      1  C   UNL     1       5.129   4.743  17.884  0.00  0.00    +0.000 A 
ATOM      2  C   UNL     1       6.329   4.727  18.620  0.00  0.00    +0.000 A 
ATOM      3  C   UNL     1       7.572   4.691  17.983  0.00  0.00    +0.000 A 
ATOM      4  C   UNL     1       7.642   4.662  16.592  0.00  0.00    +0.000 A 
ATOM      5  C   UNL     1       6.472   4.637  15.831  0.00  0.00    +0.000 A 
ATOM      6  C   UNL     1       5.224   4.672  16.477  0.00  0.00    +0.000 A 
ENDROOT
BRANCH   1   9
ATOM      7  C   UNL     1       1.724   4.103  19.265  0.00  0.00    +0.000 A 
ATOM      8  C   UNL     1       2.882   3.846  18.568  0.00  0.00    +0.000 A 
ATOM      9  C   UNL     1       3.807   4.871  18.539  0.00  0.00    +0.000 A 
ATOM     10  N   UNL     1       3.573   6.050  19.159  0.00  0.00    +0.000 NA
ATOM     11  C   UNL     1       2.422   6.184  19.818  0.00  0.00    +0.000 A 
ATOM     12  N   UNL     1       2.170   7.382  20.454  0.00  0.00    +0.000 N 
ATOM     13  N   UNL     1       1.474   5.259  19.889  0.00  0.00    +0.000 NA
ATOM     14  H   UNL     1       2.672   8.131  19.997  0.00  0.00    +0.000 HD
ATOM     15  H   UNL     1       1.172   7.496  20.567  0.00  0.00    +0.000 HD
BRANCH   7  17
ATOM     16  C   UNL     1       1.261   1.883  18.710  0.00  0.00    +0.000 C 
ATOM     17  O   UNL     1       0.784   3.094  19.297  0.00  0.00    +0.000 OA
ENDBRANCH   7  17
ENDBRANCH   1   9
BRANCH   5  18
ATOM     18  C   UNL     1       6.601   4.643  14.346  0.00  0.00    +0.000 C 
ATOM     19  O   UNL     1       7.312   5.478  13.796  0.00  0.00    +0.000 OA
ATOM     20  N   UNL     1       5.913   3.675  13.651  0.00  0.00    +0.000 N 
ATOM     21  H   UNL     1       5.425   2.941  14.151  0.00  0.00    +0.000 HD
BRANCH  20  22
ATOM     22  C   UNL     1       5.961   3.588  12.177  0.00  0.00    +0.000 C 
ATOM     23  C   UNL     1       7.109   2.678  11.735  0.00  0.00    +0.000 C 
BRANCH  22  24
ATOM     24  C   UNL     1       4.622   3.145  11.548  0.00  0.00    +0.000 C 
ATOM     25  F   UNL     1       3.643   3.079  12.484  0.00  0.00    +0.000 F 
ATOM     26  F   UNL     1       4.211   4.018  10.600  0.00  0.00    +0.000 F 
ATOM     27  F   UNL     1       4.696   1.924  10.972  0.00  0.00    +0.000 F 
ENDBRANCH  22  24
ENDBRANCH  20  22
ENDBRANCH   5  18
TORSDOF 5
ENDMDL
MODEL 9
REMARK VINA RESULT:      -7.8      3.858      7.284
REMARK  Name = 
REMARK  7 active torsions:
REMARK  status: ('A' for Active; 'I' for Inactive)
REMARK    1  A    between atoms: C_1  and  O_2
REMARK    2  A    between atoms: O_2  and  C_3
REMARK    3  A    between atoms: C_5  and  C_6
REMARK    4  A    between atoms: C_10  and  C_11
REMARK    5  A    between atoms: N_13  and  C_14
REMARK    6  A    between atoms: C_14  and  C_15
REMARK    7  A    between atoms: C_14  and  C_16
REMARK                            x       y       z     vdW  Elec       q    Type
REMARK                         _______ _______ _______ _____ _____    ______ ____
ROOT
ATOM      1  C   UNL     1       5.231   5.738  17.537  0.00  0.00    +0.000 A 
ATOM      2  C   UNL     1       6.276   5.270  18.356  0.00  0.00    +0.000 A 
ATOM      3  C   UNL     1       7.402   4.646  17.812  0.00  0.00    +0.000 A 
ATOM      4  C   UNL     1       7.504   4.470  16.434  0.00  0.00    +0.000 A 
ATOM      5  C   UNL     1       6.469   4.886  15.595  0.00  0.00    +0.000 A 
ATOM      6  C   UNL     1       5.338   5.512  16.148  0.00  0.00    +0.000 A 
ENDROOT
BRANCH   1   9
ATOM      7  C   UNL     1       2.398   8.108  18.059  0.00  0.00    +0.000 A 
ATOM      8  C   UNL     1       3.502   7.562  17.446  0.00  0.00    +0.000 A 
ATOM      9  C   UNL     1       4.073   6.481  18.088  0.00  0.00    +0.000 A 
ATOM     10  N   UNL     1       3.570   6.001  19.248  0.00  0.00    +0.000 NA
ATOM     11  C   UNL     1       2.486   6.599  19.744  0.00  0.00    +0.000 A 
ATOM     12  N   UNL     1       1.962   6.121  20.927  0.00  0.00    +0.000 N 
ATOM     13  N   UNL     1       1.880   7.648  19.203  0.00  0.00    +0.000 NA
ATOM     14  H   UNL     1       2.686   5.676  21.474  0.00  0.00    +0.000 HD
ATOM     15  H   UNL     1       1.428   6.853  21.375  0.00  0.00    +0.000 HD
BRANCH   7  17
ATOM     16  C   UNL     1       2.038  10.413  18.151  0.00  0.00    +0.000 C 
ATOM     17  O   UNL     1       1.820   9.195  17.437  0.00  0.00    +0.000 OA
ENDBRANCH   7  17
ENDBRANCH   1   9
BRANCH   5  18
ATOM     18  C   UNL     1       6.643   4.707  14.125  0.00  0.00    +0.000 C 
ATOM     19  O   UNL     1       7.508   5.339  13.529  0.00  0.00    +0.000 OA
ATOM     20  N   UNL     1       5.813   3.804  13.499  0.00  0.00    +0.000 N 
ATOM     21  H   UNL     1       5.186   3.226  14.047  0.00  0.00    +0.000 HD
BRANCH  20  22
ATOM     22  C   UNL     1       5.890   3.550  12.046  0.00  0.00    +0.000 C 
ATOM     23  C   UNL     1       6.959   2.496  11.747  0.00  0.00    +0.000 C 
BRANCH  22  24
ATOM     24  C   UNL     1       4.532   3.163  11.422  0.00  0.00    +0.000 C 
ATOM     25  F   UNL     1       4.151   4.068  10.487  0.00  0.00    +0.000 F 
ATOM     26  F   UNL     1       4.598   1.958  10.810  0.00  0.00    +0.000 F 
ATOM     27  F   UNL     1       3.537   3.101  12.335  0.00  0.00    +0.000 F 
ENDBRANCH  22  24
ENDBRANCH  20  22
ENDBRANCH   5  18
TORSDOF 5
ENDMDL
