MODEL 1
REMARK VINA RESULT:      -6.6      0.000      0.000
REMARK  Name = 
REMARK  10 active torsions:
REMARK  status: ('A' for Active; 'I' for Inactive)
REMARK    1  A    between atoms: C_1  and  O_2
REMARK    2  A    between atoms: O_2  and  C_3
REMARK    3  A    between atoms: C_7  and  O_8
REMARK    4  A    between atoms: O_8  and  C_9
REMARK    5  A    between atoms: C_10  and  O_11
REMARK    6  A    between atoms: O_11  and  C_12
REMARK    7  A    between atoms: C_12  and  C_13
REMARK    8  A    between atoms: C_13  and  N_14
REMARK    9  A    between atoms: N_14  and  C_15
REMARK   10  A    between atoms: C_15  and  C_16
REMARK                            x       y       z     vdW  Elec       q    Type
REMARK                         _______ _______ _______ _____ _____    ______ ____
ROOT
ATOM      1  C   UNL     1       1.696   7.770  20.307  0.00  0.00    +0.000 C 
ENDROOT
BRANCH   1   2
ATOM      2  N   UNL     1       1.397   9.112  19.782  0.00  0.00    +0.000 NA
ATOM      3  H   UNL     1       0.838   9.017  18.929  0.00  0.00    +0.000 HD
BRANCH   2   4
ATOM      4  C   UNL     1       0.628   9.940  20.733  0.00  0.00    +0.000 C 
BRANCH   4   5
ATOM      5  C   UNL     1      -0.725  10.398  20.152  0.00  0.00    +0.000 C 
ATOM      6  C   UNL     1      -1.014  11.837  20.546  0.00  0.00    +0.000 C 
ATOM      7  S   UNL     1      -2.624  12.390  19.915  0.00  0.00    +0.000 S 
ATOM      8  C   UNL     1      -2.710  11.436  18.410  0.00  0.00    +0.000 A 
ATOM      9  C   UNL     1      -3.808  11.662  17.571  0.00  0.00    +0.000 A 
ATOM     10  C   UNL     1      -3.974  10.922  16.397  0.00  0.00    +0.000 A 
ATOM     11  C   UNL     1      -3.038   9.952  16.048  0.00  0.00    +0.000 A 
ATOM     12  C   UNL     1      -1.926   9.743  16.857  0.00  0.00    +0.000 A 
ATOM     13  C   UNL     1      -1.760  10.478  18.041  0.00  0.00    +0.000 A 
ATOM     14  O   UNL     1      -0.617  10.209  18.730  0.00  0.00    +0.000 OA
ENDBRANCH   4   5
ENDBRANCH   2   4
ENDBRANCH   1   2
BRANCH   1  15
ATOM     15  C   UNL     1       2.446   6.893  19.299  0.00  0.00    +0.000 C 
BRANCH  15  16
ATOM     16  O   UNL     1       3.001   5.741  19.908  0.00  0.00    +0.000 OA
BRANCH  16  22
ATOM     17  C   UNL     1       4.108   4.402  18.117  0.00  0.00    +0.000 A 
ATOM     18  C   UNL     1       4.228   3.153  17.498  0.00  0.00    +0.000 A 
ATOM     19  C   UNL     1       3.324   2.138  17.772  0.00  0.00    +0.000 A 
ATOM     20  C   UNL     1       2.308   2.366  18.694  0.00  0.00    +0.000 A 
ATOM     21  C   UNL     1       2.205   3.579  19.388  0.00  0.00    +0.000 A 
ATOM     22  C   UNL     1       3.130   4.613  19.129  0.00  0.00    +0.000 A 
BRANCH  17  24
ATOM     23  C   UNL     1       4.834   5.971  16.487  0.00  0.00    +0.000 C 
ATOM     24  O   UNL     1       5.012   5.380  17.778  0.00  0.00    +0.000 OA
ENDBRANCH  17  24
BRANCH  21  25
ATOM     25  O   UNL     1       1.147   3.564  20.263  0.00  0.00    +0.000 OA
ATOM     26  C   UNL     1       1.280   2.931  21.525  0.00  0.00    +0.000 C 
ENDBRANCH  21  25
ENDBRANCH  16  22
ENDBRANCH  15  16
ENDBRANCH   1  15
TORSDOF 8
ENDMDL
MODEL 2
REMARK VINA RESULT:      -6.5      3.037      4.344
REMARK  Name = 
REMARK  10 active torsions:
REMARK  status: ('A' for Active; 'I' for Inactive)
REMARK    1  A    between atoms: C_1  and  O_2
REMARK    2  A    between atoms: O_2  and  C_3
REMARK    3  A    between atoms: C_7  and  O_8
REMARK    4  A    between atoms: O_8  and  C_9
REMARK    5  A    between atoms: C_10  and  O_11
REMARK    6  A    between atoms: O_11  and  C_12
REMARK    7  A    between atoms: C_12  and  C_13
REMARK    8  A    between atoms: C_13  and  N_14
REMARK    9  A    between atoms: N_14  and  C_15
REMARK   10  A    between atoms: C_15  and  C_16
REMARK                            x       y       z     vdW  Elec       q    Type
REMARK                         _______ _______ _______ _____ _____    ______ ____
ROOT
ATOM      1  C   UNL     1       1.870   4.518  18.671  0.00  0.00    +0.000 C 
ENDROOT
BRANCH   1   2
ATOM      2  N   UNL     1       2.384   5.615  19.509  0.00  0.00    +0.000 NA
ATOM      3  H   UNL     1       3.172   5.267  20.063  0.00  0.00    +0.000 HD
BRANCH   2   4
ATOM      4  C   UNL     1       2.865   6.763  18.715  0.00  0.00    +0.000 C 
BRANCH   4   5
ATOM      5  C   UNL     1       2.243   8.097  19.174  0.00  0.00    +0.000 C 
ATOM      6  C   UNL     1       1.512   8.768  18.024  0.00  0.00    +0.000 C 
ATOM      7  S   UNL     1       0.807  10.365  18.523  0.00  0.00    +0.000 S 
ATOM      8  C   UNL     1       0.451  10.023  20.237  0.00  0.00    +0.000 A 
ATOM      9  C   UNL     1      -0.205  11.023  20.966  0.00  0.00    +0.000 A 
ATOM     10  C   UNL     1      -0.479  10.852  22.326  0.00  0.00    +0.000 A 
ATOM     11  C   UNL     1      -0.103   9.676  22.969  0.00  0.00    +0.000 A 
ATOM     12  C   UNL     1       0.519   8.662  22.247  0.00  0.00    +0.000 A 
ATOM     13  C   UNL     1       0.802   8.834  20.883  0.00  0.00    +0.000 A 
ATOM     14  O   UNL     1       1.382   7.760  20.276  0.00  0.00    +0.000 OA
ENDBRANCH   4   5
ENDBRANCH   2   4
ENDBRANCH   1   2
BRANCH   1  15
ATOM     15  C   UNL     1       2.532   4.467  17.291  0.00  0.00    +0.000 C 
BRANCH  15  16
ATOM     16  O   UNL     1       3.568   3.502  17.236  0.00  0.00    +0.000 OA
BRANCH  16  22
ATOM     17  C   UNL     1       5.632   4.344  16.114  0.00  0.00    +0.000 A 
ATOM     18  C   UNL     1       6.888   4.941  16.274  0.00  0.00    +0.000 A 
ATOM     19  C   UNL     1       7.458   5.064  17.532  0.00  0.00    +0.000 A 
ATOM     20  C   UNL     1       6.752   4.612  18.642  0.00  0.00    +0.000 A 
ATOM     21  C   UNL     1       5.461   4.081  18.526  0.00  0.00    +0.000 A 
ATOM     22  C   UNL     1       4.865   3.965  17.251  0.00  0.00    +0.000 A 
BRANCH  17  24
ATOM     23  C   UNL     1       6.099   3.920  13.823  0.00  0.00    +0.000 C 
ATOM     24  O   UNL     1       5.136   4.217  14.839  0.00  0.00    +0.000 OA
ENDBRANCH  17  24
BRANCH  21  25
ATOM     25  O   UNL     1       4.953   3.730  19.752  0.00  0.00    +0.000 OA
ATOM     26  C   UNL     1       4.588   2.383  20.009  0.00  0.00    +0.000 C 
ENDBRANCH  21  25
ENDBRANCH  16  22
ENDBRANCH  15  16
ENDBRANCH   1  15
TORSDOF 8
ENDMDL
MODEL 3
REMARK VINA RESULT:      -6.5      0.738      2.677
REMARK  Name = 
REMARK  10 active torsions:
REMARK  status: ('A' for Active; 'I' for Inactive)
REMARK    1  A    between atoms: C_1  and  O_2
REMARK    2  A    between atoms: O_2  and  C_3
REMARK    3  A    between atoms: C_7  and  O_8
REMARK    4  A    between atoms: O_8  and  C_9
REMARK    5  A    between atoms: C_10  and  O_11
REMARK    6  A    between atoms: O_11  and  C_12
REMARK    7  A    between atoms: C_12  and  C_13
REMARK    8  A    between atoms: C_13  and  N_14
REMARK    9  A    between atoms: N_14  and  C_15
REMARK   10  A    between atoms: C_15  and  C_16
REMARK                            x       y       z     vdW  Elec       q    Type
REMARK                         _______ _______ _______ _____ _____    ______ ____
ROOT
ATOM      1  C   UNL     1       1.650   7.613  21.151  0.00  0.00    +0.000 C 
ENDROOT
BRANCH   1   2
ATOM      2  N   UNL     1       0.478   8.503  21.141  0.00  0.00    +0.000 NA
ATOM      3  H   UNL     1       0.356   8.901  22.077  0.00  0.00    +0.000 HD
BRANCH   2   4
ATOM      4  C   UNL     1       0.620   9.626  20.191  0.00  0.00    +0.000 C 
BRANCH   4   5
ATOM      5  C   UNL     1      -0.741  10.168  19.713  0.00  0.00    +0.000 C 
ATOM      6  C   UNL     1      -0.949  11.592  20.197  0.00  0.00    +0.000 C 
ATOM      7  S   UNL     1      -2.565  12.242  19.687  0.00  0.00    +0.000 S 
ATOM      8  C   UNL     1      -2.772  11.377  18.141  0.00  0.00    +0.000 A 
ATOM      9  C   UNL     1      -3.903  11.691  17.378  0.00  0.00    +0.000 A 
ATOM     10  C   UNL     1      -4.161  11.025  16.177  0.00  0.00    +0.000 A 
ATOM     11  C   UNL     1      -3.287  10.040  15.725  0.00  0.00    +0.000 A 
ATOM     12  C   UNL     1      -2.143   9.743  16.458  0.00  0.00    +0.000 A 
ATOM     13  C   UNL     1      -1.884  10.405  17.669  0.00  0.00    +0.000 A 
ATOM     14  O   UNL     1      -0.717  10.054  18.278  0.00  0.00    +0.000 OA
ENDBRANCH   4   5
ENDBRANCH   2   4
ENDBRANCH   1   2
BRANCH   1  15
ATOM     15  C   UNL     1       2.163   7.293  19.743  0.00  0.00    +0.000 C 
BRANCH  15  16
ATOM     16  O   UNL     1       3.170   6.298  19.760  0.00  0.00    +0.000 OA
BRANCH  16  22
ATOM     17  C   UNL     1       1.953   4.202  19.168  0.00  0.00    +0.000 A 
ATOM     18  C   UNL     1       1.759   3.191  18.218  0.00  0.00    +0.000 A 
ATOM     19  C   UNL     1       2.626   3.055  17.145  0.00  0.00    +0.000 A 
ATOM     20  C   UNL     1       3.678   3.954  17.004  0.00  0.00    +0.000 A 
ATOM     21  C   UNL     1       3.855   5.022  17.893  0.00  0.00    +0.000 A 
ATOM     22  C   UNL     1       2.969   5.180  18.981  0.00  0.00    +0.000 A 
BRANCH  17  24
ATOM     23  C   UNL     1       1.301   3.306  21.270  0.00  0.00    +0.000 C 
ATOM     24  O   UNL     1       1.083   4.264  20.230  0.00  0.00    +0.000 OA
ENDBRANCH  17  24
BRANCH  21  25
ATOM     25  O   UNL     1       4.937   5.790  17.541  0.00  0.00    +0.000 OA
ATOM     26  C   UNL     1       4.795   6.807  16.562  0.00  0.00    +0.000 C 
ENDBRANCH  21  25
ENDBRANCH  16  22
ENDBRANCH  15  16
ENDBRANCH   1  15
TORSDOF 8
ENDMDL
MODEL 4
REMARK VINA RESULT:      -6.5      7.184      9.414
REMARK  Name = 
REMARK  10 active torsions:
REMARK  status: ('A' for Active; 'I' for Inactive)
REMARK    1  A    between atoms: C_1  and  O_2
REMARK    2  A    between atoms: O_2  and  C_3
REMARK    3  A    between atoms: C_7  and  O_8
REMARK    4  A    between atoms: O_8  and  C_9
REMARK    5  A    between atoms: C_10  and  O_11
REMARK    6  A    between atoms: O_11  and  C_12
REMARK    7  A    between atoms: C_12  and  C_13
REMARK    8  A    between atoms: C_13  and  N_14
REMARK    9  A    between atoms: N_14  and  C_15
REMARK   10  A    between atoms: C_15  and  C_16
REMARK                            x       y       z     vdW  Elec       q    Type
REMARK                         _______ _______ _______ _____ _____    ______ ____
ROOT
ATOM      1  C   UNL     1       8.337   8.413  18.484  0.00  0.00    +0.000 C 
ENDROOT
BRANCH   1   2
ATOM      2  N   UNL     1       8.733   9.799  18.185  0.00  0.00    +0.000 NA
ATOM      3  H   UNL     1       7.892  10.348  17.986  0.00  0.00    +0.000 HD
BRANCH   2   4
ATOM      4  C   UNL     1       9.437  10.448  19.309  0.00  0.00    +0.000 C 
BRANCH   4   5
ATOM      5  C   UNL     1      10.044  11.810  18.916  0.00  0.00    +0.000 C 
ATOM      6  C   UNL     1      11.107  11.629  17.846  0.00  0.00    +0.000 C 
ATOM      7  S   UNL     1      11.874  13.211  17.393  0.00  0.00    +0.000 S 
ATOM      8  C   UNL     1      10.491  14.308  17.646  0.00  0.00    +0.000 A 
ATOM      9  C   UNL     1      10.671  15.655  17.306  0.00  0.00    +0.000 A 
ATOM     10  C   UNL     1       9.651  16.587  17.517  0.00  0.00    +0.000 A 
ATOM     11  C   UNL     1       8.439  16.179  18.066  0.00  0.00    +0.000 A 
ATOM     12  C   UNL     1       8.236  14.839  18.377  0.00  0.00    +0.000 A 
ATOM     13  C   UNL     1       9.261  13.901  18.173  0.00  0.00    +0.000 A 
ATOM     14  O   UNL     1       8.933  12.615  18.482  0.00  0.00    +0.000 OA
ENDBRANCH   4   5
ENDBRANCH   2   4
ENDBRANCH   1   2
BRANCH   1  15
ATOM     15  C   UNL     1       7.529   7.771  17.352  0.00  0.00    +0.000 C 
BRANCH  15  16
ATOM     16  O   UNL     1       7.867   6.408  17.167  0.00  0.00    +0.000 OA
BRANCH  16  22
ATOM     17  C   UNL     1       5.765   5.132  17.588  0.00  0.00    +0.000 A 
ATOM     18  C   UNL     1       4.724   4.379  17.033  0.00  0.00    +0.000 A 
ATOM     19  C   UNL     1       4.797   3.929  15.723  0.00  0.00    +0.000 A 
ATOM     20  C   UNL     1       5.908   4.260  14.954  0.00  0.00    +0.000 A 
ATOM     21  C   UNL     1       6.931   5.076  15.455  0.00  0.00    +0.000 A 
ATOM     22  C   UNL     1       6.859   5.553  16.782  0.00  0.00    +0.000 A 
BRANCH  17  24
ATOM     23  C   UNL     1       4.320   5.559  19.426  0.00  0.00    +0.000 C 
ATOM     24  O   UNL     1       5.651   5.518  18.902  0.00  0.00    +0.000 OA
ENDBRANCH  17  24
BRANCH  21  25
ATOM     25  O   UNL     1       7.905   5.289  14.511  0.00  0.00    +0.000 OA
ATOM     26  C   UNL     1       7.598   5.153  13.133  0.00  0.00    +0.000 C 
ENDBRANCH  21  25
ENDBRANCH  16  22
ENDBRANCH  15  16
ENDBRANCH   1  15
TORSDOF 8
ENDMDL
MODEL 5
REMARK VINA RESULT:      -6.5      2.627      8.821
REMARK  Name = 
REMARK  10 active torsions:
REMARK  status: ('A' for Active; 'I' for Inactive)
REMARK    1  A    between atoms: C_1  and  O_2
REMARK    2  A    between atoms: O_2  and  C_3
REMARK    3  A    between atoms: C_7  and  O_8
REMARK    4  A    between atoms: O_8  and  C_9
REMARK    5  A    between atoms: C_10  and  O_11
REMARK    6  A    between atoms: O_11  and  C_12
REMARK    7  A    between atoms: C_12  and  C_13
REMARK    8  A    between atoms: C_13  and  N_14
REMARK    9  A    between atoms: N_14  and  C_15
REMARK   10  A    between atoms: C_15  and  C_16
REMARK                            x       y       z     vdW  Elec       q    Type
REMARK                         _______ _______ _______ _____ _____    ______ ____
ROOT
ATOM      1  C   UNL     1       0.055  10.003  19.690  0.00  0.00    +0.000 C 
ENDROOT
BRANCH   1   2
ATOM      2  N   UNL     1       1.258   9.157  19.751  0.00  0.00    +0.000 NA
ATOM      3  H   UNL     1       1.022   8.278  20.220  0.00  0.00    +0.000 HD
BRANCH   2   4
ATOM      4  C   UNL     1       1.792   8.824  18.415  0.00  0.00    +0.000 C 
BRANCH   4   5
ATOM      5  C   UNL     1       2.273   7.362  18.322  0.00  0.00    +0.000 C 
ATOM      6  C   UNL     1       3.640   7.291  17.664  0.00  0.00    +0.000 C 
ATOM      7  S   UNL     1       4.213   5.577  17.499  0.00  0.00    +0.000 S 
ATOM      8  C   UNL     1       3.452   4.856  18.942  0.00  0.00    +0.000 A 
ATOM      9  C   UNL     1       3.743   3.514  19.217  0.00  0.00    +0.000 A 
ATOM     10  C   UNL     1       3.151   2.863  20.302  0.00  0.00    +0.000 A 
ATOM     11  C   UNL     1       2.264   3.550  21.127  0.00  0.00    +0.000 A 
ATOM     12  C   UNL     1       1.993   4.893  20.883  0.00  0.00    +0.000 A 
ATOM     13  C   UNL     1       2.581   5.548  19.789  0.00  0.00    +0.000 A 
ATOM     14  O   UNL     1       2.267   6.869  19.673  0.00  0.00    +0.000 OA
ENDBRANCH   4   5
ENDBRANCH   2   4
ENDBRANCH   1   2
BRANCH   1  15
ATOM     15  C   UNL     1      -0.478  10.172  18.264  0.00  0.00    +0.000 C 
BRANCH  15  16
ATOM     16  O   UNL     1      -1.034  11.458  18.055  0.00  0.00    +0.000 OA
BRANCH  16  22
ATOM     17  C   UNL     1      -3.132  11.208  16.727  0.00  0.00    +0.000 A 
ATOM     18  C   UNL     1      -4.531  11.190  16.745  0.00  0.00    +0.000 A 
ATOM     19  C   UNL     1      -5.229  11.606  17.868  0.00  0.00    +0.000 A 
ATOM     20  C   UNL     1      -4.521  12.017  18.992  0.00  0.00    +0.000 A 
ATOM     21  C   UNL     1      -3.121  11.975  19.034  0.00  0.00    +0.000 A 
ATOM     22  C   UNL     1      -2.400  11.538  17.901  0.00  0.00    +0.000 A 
BRANCH  17  24
ATOM     23  C   UNL     1      -3.323  10.181  14.592  0.00  0.00    +0.000 C 
ATOM     24  O   UNL     1      -2.497  10.819  15.571  0.00  0.00    +0.000 OA
ENDBRANCH  17  24
BRANCH  21  25
ATOM     25  O   UNL     1      -2.646  12.400  20.250  0.00  0.00    +0.000 OA
ATOM     26  C   UNL     1      -2.978  13.694  20.727  0.00  0.00    +0.000 C 
ENDBRANCH  21  25
ENDBRANCH  16  22
ENDBRANCH  15  16
ENDBRANCH   1  15
TORSDOF 8
ENDMDL
MODEL 6
REMARK VINA RESULT:      -6.5      1.336      1.473
REMARK  Name = 
REMARK  10 active torsions:
REMARK  status: ('A' for Active; 'I' for Inactive)
REMARK    1  A    between atoms: C_1  and  O_2
REMARK    2  A    between atoms: O_2  and  C_3
REMARK    3  A    between atoms: C_7  and  O_8
REMARK    4  A    between atoms: O_8  and  C_9
REMARK    5  A    between atoms: C_10  and  O_11
REMARK    6  A    between atoms: O_11  and  C_12
REMARK    7  A    between atoms: C_12  and  C_13
REMARK    8  A    between atoms: C_13  and  N_14
REMARK    9  A    between atoms: N_14  and  C_15
REMARK   10  A    between atoms: C_15  and  C_16
REMARK                            x       y       z     vdW  Elec       q    Type
REMARK                         _______ _______ _______ _____ _____    ______ ____
ROOT
ATOM      1  C   UNL     1       1.867   7.990  19.966  0.00  0.00    +0.000 C 
ENDROOT
BRANCH   1   2
ATOM      2  N   UNL     1       2.096   8.076  18.515  0.00  0.00    +0.000 NA
ATOM      3  H   UNL     1       1.398   7.499  18.035  0.00  0.00    +0.000 HD
BRANCH   2   4
ATOM      4  C   UNL     1       1.974   9.453  17.996  0.00  0.00    +0.000 C 
BRANCH   4   5
ATOM      5  C   UNL     1       0.737  10.185  18.555  0.00  0.00    +0.000 C 
ATOM      6  C   UNL     1       1.051  11.650  18.802  0.00  0.00    +0.000 C 
ATOM      7  S   UNL     1      -0.374  12.529  19.504  0.00  0.00    +0.000 S 
ATOM      8  C   UNL     1      -1.704  11.619  18.740  0.00  0.00    +0.000 A 
ATOM      9  C   UNL     1      -3.008  12.071  18.978  0.00  0.00    +0.000 A 
ATOM     10  C   UNL     1      -4.108  11.386  18.454  0.00  0.00    +0.000 A 
ATOM     11  C   UNL     1      -3.913  10.244  17.683  0.00  0.00    +0.000 A 
ATOM     12  C   UNL     1      -2.622   9.805  17.412  0.00  0.00    +0.000 A 
ATOM     13  C   UNL     1      -1.515  10.485  17.943  0.00  0.00    +0.000 A 
ATOM     14  O   UNL     1      -0.302   9.982  17.581  0.00  0.00    +0.000 OA
ENDBRANCH   4   5
ENDBRANCH   2   4
ENDBRANCH   1   2
BRANCH   1  15
ATOM     15  C   UNL     1       1.812   6.546  20.473  0.00  0.00    +0.000 C 
BRANCH  15  16
ATOM     16  O   UNL     1       2.938   5.795  20.055  0.00  0.00    +0.000 OA
BRANCH  16  22
ATOM     17  C   UNL     1       3.177   4.617  17.869  0.00  0.00    +0.000 A 
ATOM     18  C   UNL     1       3.007   3.421  17.160  0.00  0.00    +0.000 A 
ATOM     19  C   UNL     1       2.279   2.374  17.706  0.00  0.00    +0.000 A 
ATOM     20  C   UNL     1       1.742   2.515  18.981  0.00  0.00    +0.000 A 
ATOM     21  C   UNL     1       1.959   3.668  19.747  0.00  0.00    +0.000 A 
ATOM     22  C   UNL     1       2.711   4.733  19.208  0.00  0.00    +0.000 A 
BRANCH  17  24
ATOM     23  C   UNL     1       5.030   5.232  16.513  0.00  0.00    +0.000 C 
ATOM     24  O   UNL     1       3.877   5.632  17.261  0.00  0.00    +0.000 OA
ENDBRANCH  17  24
BRANCH  21  25
ATOM     25  O   UNL     1       1.358   3.569  20.977  0.00  0.00    +0.000 OA
ATOM     26  C   UNL     1       1.591   2.429  21.789  0.00  0.00    +0.000 C 
ENDBRANCH  21  25
ENDBRANCH  16  22
ENDBRANCH  15  16
ENDBRANCH   1  15
TORSDOF 8
ENDMDL
MODEL 7
REMARK VINA RESULT:      -6.4      2.134      3.998
REMARK  Name = 
REMARK  10 active torsions:
REMARK  status: ('A' for Active; 'I' for Inactive)
REMARK    1  A    between atoms: C_1  and  O_2
REMARK    2  A    between atoms: O_2  and  C_3
REMARK    3  A    between atoms: C_7  and  O_8
REMARK    4  A    between atoms: O_8  and  C_9
REMARK    5  A    between atoms: C_10  and  O_11
REMARK    6  A    between atoms: O_11  and  C_12
REMARK    7  A    between atoms: C_12  and  C_13
REMARK    8  A    between atoms: C_13  and  N_14
REMARK    9  A    between atoms: N_14  and  C_15
REMARK   10  A    between atoms: C_15  and  C_16
REMARK                            x       y       z     vdW  Elec       q    Type
REMARK                         _______ _______ _______ _____ _____    ______ ____
ROOT
ATOM      1  C   UNL     1       2.825   7.645  18.651  0.00  0.00    +0.000 C 
ENDROOT
BRANCH   1   2
ATOM      2  N   UNL     1       1.735   8.351  17.956  0.00  0.00    +0.000 NA
ATOM      3  H   UNL     1       0.868   8.225  18.486  0.00  0.00    +0.000 HD
BRANCH   2   4
ATOM      4  C   UNL     1       1.980   9.802  17.834  0.00  0.00    +0.000 C 
BRANCH   4   5
ATOM      5  C   UNL     1       1.344  10.604  18.987  0.00  0.00    +0.000 C 
ATOM      6  C   UNL     1       0.490  11.736  18.442  0.00  0.00    +0.000 C 
ATOM      7  S   UNL     1      -0.237  12.727  19.778  0.00  0.00    +0.000 S 
ATOM      8  C   UNL     1      -0.431  11.468  21.026  0.00  0.00    +0.000 A 
ATOM      9  C   UNL     1      -1.065  11.841  22.218  0.00  0.00    +0.000 A 
ATOM     10  C   UNL     1      -1.215  10.925  23.263  0.00  0.00    +0.000 A 
ATOM     11  C   UNL     1      -0.737   9.625  23.123  0.00  0.00    +0.000 A 
ATOM     12  C   UNL     1      -0.136   9.234  21.931  0.00  0.00    +0.000 A 
ATOM     13  C   UNL     1       0.023  10.153  20.882  0.00  0.00    +0.000 A 
ATOM     14  O   UNL     1       0.593   9.645  19.754  0.00  0.00    +0.000 OA
ENDBRANCH   4   5
ENDBRANCH   2   4
ENDBRANCH   1   2
BRANCH   1  15
ATOM     15  C   UNL     1       2.313   6.653  19.700  0.00  0.00    +0.000 C 
BRANCH  15  16
ATOM     16  O   UNL     1       3.225   5.590  19.912  0.00  0.00    +0.000 OA
BRANCH  16  22
ATOM     17  C   UNL     1       2.001   3.467  19.445  0.00  0.00    +0.000 A 
ATOM     18  C   UNL     1       1.804   2.402  18.558  0.00  0.00    +0.000 A 
ATOM     19  C   UNL     1       2.670   2.199  17.494  0.00  0.00    +0.000 A 
ATOM     20  C   UNL     1       3.725   3.085  17.301  0.00  0.00    +0.000 A 
ATOM     21  C   UNL     1       3.905   4.204  18.125  0.00  0.00    +0.000 A 
ATOM     22  C   UNL     1       3.020   4.429  19.201  0.00  0.00    +0.000 A 
BRANCH  17  24
ATOM     23  C   UNL     1       1.442   2.818  21.662  0.00  0.00    +0.000 C 
ATOM     24  O   UNL     1       1.131   3.595  20.501  0.00  0.00    +0.000 OA
ENDBRANCH  17  24
BRANCH  21  25
ATOM     25  O   UNL     1       4.990   4.945  17.727  0.00  0.00    +0.000 OA
ATOM     26  C   UNL     1       4.999   5.557  16.447  0.00  0.00    +0.000 C 
ENDBRANCH  21  25
ENDBRANCH  16  22
ENDBRANCH  15  16
ENDBRANCH   1  15
TORSDOF 8
ENDMDL
MODEL 8
REMARK VINA RESULT:      -6.4      2.345      4.329
REMARK  Name = 
REMARK  10 active torsions:
REMARK  status: ('A' for Active; 'I' for Inactive)
REMARK    1  A    between atoms: C_1  and  O_2
REMARK    2  A    between atoms: O_2  and  C_3
REMARK    3  A    between atoms: C_7  and  O_8
REMARK    4  A    between atoms: O_8  and  C_9
REMARK    5  A    between atoms: C_10  and  O_11
REMARK    6  A    between atoms: O_11  and  C_12
REMARK    7  A    between atoms: C_12  and  C_13
REMARK    8  A    between atoms: C_13  and  N_14
REMARK    9  A    between atoms: N_14  and  C_15
REMARK   10  A    between atoms: C_15  and  C_16
REMARK                            x       y       z     vdW  Elec       q    Type
REMARK                         _______ _______ _______ _____ _____    ______ ____
ROOT
ATOM      1  C   UNL     1       3.272   7.101  18.759  0.00  0.00    +0.000 C 
ENDROOT
BRANCH   1   2
ATOM      2  N   UNL     1       2.009   7.551  18.152  0.00  0.00    +0.000 NA
ATOM      3  H   UNL     1       1.249   7.406  18.822  0.00  0.00    +0.000 HD
BRANCH   2   4
ATOM      4  C   UNL     1       2.025   8.985  17.795  0.00  0.00    +0.000 C 
BRANCH   4   5
ATOM      5  C   UNL     1       1.239   9.850  18.801  0.00  0.00    +0.000 C 
ATOM      6  C   UNL     1      -0.003  10.431  18.148  0.00  0.00    +0.000 C 
ATOM      7  S   UNL     1      -0.926  11.492  19.296  0.00  0.00    +0.000 S 
ATOM      8  C   UNL     1      -0.558  10.673  20.837  0.00  0.00    +0.000 A 
ATOM      9  C   UNL     1      -1.185  11.165  21.989  0.00  0.00    +0.000 A 
ATOM     10  C   UNL     1      -0.914  10.608  23.242  0.00  0.00    +0.000 A 
ATOM     11  C   UNL     1      -0.016   9.550  23.354  0.00  0.00    +0.000 A 
ATOM     12  C   UNL     1       0.586   9.031  22.212  0.00  0.00    +0.000 A 
ATOM     13  C   UNL     1       0.323   9.593  20.953  0.00  0.00    +0.000 A 
ATOM     14  O   UNL     1       0.944   8.979  19.908  0.00  0.00    +0.000 OA
ENDBRANCH   4   5
ENDBRANCH   2   4
ENDBRANCH   1   2
BRANCH   1  15
ATOM     15  C   UNL     1       3.125   5.781  19.521  0.00  0.00    +0.000 C 
BRANCH  15  16
ATOM     16  O   UNL     1       4.358   5.092  19.629  0.00  0.00    +0.000 OA
BRANCH  16  22
ATOM     17  C   UNL     1       4.355   3.930  17.420  0.00  0.00    +0.000 A 
ATOM     18  C   UNL     1       5.030   3.713  16.213  0.00  0.00    +0.000 A 
ATOM     19  C   UNL     1       6.342   4.131  16.052  0.00  0.00    +0.000 A 
ATOM     20  C   UNL     1       6.975   4.796  17.097  0.00  0.00    +0.000 A 
ATOM     21  C   UNL     1       6.304   5.097  18.290  0.00  0.00    +0.000 A 
ATOM     22  C   UNL     1       4.963   4.690  18.459  0.00  0.00    +0.000 A 
BRANCH  17  24
ATOM     23  C   UNL     1       2.938   2.096  17.946  0.00  0.00    +0.000 C 
ATOM     24  O   UNL     1       3.068   3.460  17.533  0.00  0.00    +0.000 OA
ENDBRANCH  17  24
BRANCH  21  25
ATOM     25  O   UNL     1       7.117   5.779  19.160  0.00  0.00    +0.000 OA
ATOM     26  C   UNL     1       8.031   6.745  18.666  0.00  0.00    +0.000 C 
ENDBRANCH  21  25
ENDBRANCH  16  22
ENDBRANCH  15  16
ENDBRANCH   1  15
TORSDOF 8
ENDMDL
MODEL 9
REMARK VINA RESULT:      -6.4      2.948      8.732
REMARK  Name = 
REMARK  10 active torsions:
REMARK  status: ('A' for Active; 'I' for Inactive)
REMARK    1  A    between atoms: C_1  and  O_2
REMARK    2  A    between atoms: O_2  and  C_3
REMARK    3  A    between atoms: C_7  and  O_8
REMARK    4  A    between atoms: O_8  and  C_9
REMARK    5  A    between atoms: C_10  and  O_11
REMARK    6  A    between atoms: O_11  and  C_12
REMARK    7  A    between atoms: C_12  and  C_13
REMARK    8  A    between atoms: C_13  and  N_14
REMARK    9  A    between atoms: N_14  and  C_15
REMARK   10  A    between atoms: C_15  and  C_16
REMARK                            x       y       z     vdW  Elec       q    Type
REMARK                         _______ _______ _______ _____ _____    ______ ____
ROOT
ATOM      1  C   UNL     1       1.134   9.950  18.262  0.00  0.00    +0.000 C 
ENDROOT
BRANCH   1   2
ATOM      2  N   UNL     1       1.777   8.716  18.742  0.00  0.00    +0.000 NA
ATOM      3  H   UNL     1       1.051   8.041  18.997  0.00  0.00    +0.000 HD
BRANCH   2   4
ATOM      4  C   UNL     1       2.637   8.084  17.720  0.00  0.00    +0.000 C 
BRANCH   4   5
ATOM      5  C   UNL     1       2.922   6.600  18.028  0.00  0.00    +0.000 C 
ATOM      6  C   UNL     1       4.351   6.245  17.658  0.00  0.00    +0.000 C 
ATOM      7  S   UNL     1       4.704   4.491  17.967  0.00  0.00    +0.000 S 
ATOM      8  C   UNL     1       3.638   4.204  19.368  0.00  0.00    +0.000 A 
ATOM      9  C   UNL     1       3.698   2.941  19.969  0.00  0.00    +0.000 A 
ATOM     10  C   UNL     1       2.862   2.621  21.043  0.00  0.00    +0.000 A 
ATOM     11  C   UNL     1       1.961   3.565  21.529  0.00  0.00    +0.000 A 
ATOM     12  C   UNL     1       1.917   4.834  20.961  0.00  0.00    +0.000 A 
ATOM     13  C   UNL     1       2.749   5.156  19.878  0.00  0.00    +0.000 A 
ATOM     14  O   UNL     1       2.641   6.438  19.429  0.00  0.00    +0.000 OA
ENDBRANCH   4   5
ENDBRANCH   2   4
ENDBRANCH   1   2
BRANCH   1  15
ATOM     15  C   UNL     1      -0.211  10.220  18.944  0.00  0.00    +0.000 C 
BRANCH  15  16
ATOM     16  O   UNL     1      -0.280  11.532  19.475  0.00  0.00    +0.000 OA
BRANCH  16  22
ATOM     17  C   UNL     1      -2.229  12.321  20.819  0.00  0.00    +0.000 A 
ATOM     18  C   UNL     1      -2.882  12.295  22.057  0.00  0.00    +0.000 A 
ATOM     19  C   UNL     1      -2.256  11.769  23.176  0.00  0.00    +0.000 A 
ATOM     20  C   UNL     1      -0.976  11.239  23.049  0.00  0.00    +0.000 A 
ATOM     21  C   UNL     1      -0.324  11.180  21.810  0.00  0.00    +0.000 A 
ATOM     22  C   UNL     1      -0.960  11.698  20.661  0.00  0.00    +0.000 A 
BRANCH  17  24
ATOM     23  C   UNL     1      -3.744  12.013  19.014  0.00  0.00    +0.000 C 
ATOM     24  O   UNL     1      -2.888  12.888  19.754  0.00  0.00    +0.000 OA
ENDBRANCH  17  24
BRANCH  21  25
ATOM     25  O   UNL     1       0.912  10.593  21.925  0.00  0.00    +0.000 OA
ATOM     26  C   UNL     1       1.019   9.247  22.359  0.00  0.00    +0.000 C 
ENDBRANCH  21  25
ENDBRANCH  16  22
ENDBRANCH  15  16
ENDBRANCH   1  15
TORSDOF 8
ENDMDL
