MODEL 1
REMARK VINA RESULT:      -6.5      0.000      0.000
REMARK  Name = 
REMARK  7 active torsions:
REMARK  status: ('A' for Active; 'I' for Inactive)
REMARK    1  A    between atoms: C_1  and  O_2
REMARK    2  A    between atoms: O_2  and  C_3
REMARK    3  A    between atoms: C_3  and  C_4
REMARK    4  A    between atoms: C_4  and  N_5
REMARK    5  A    between atoms: N_5  and  C_6
REMARK    6  A    between atoms: N_5  and  S_12
REMARK    7  A    between atoms: S_12  and  C_15
REMARK                            x       y       z     vdW  Elec       q    Type
REMARK                         _______ _______ _______ _____ _____    ______ ____
ROOT
ATOM      1  N   UNL     1       3.701   5.269  18.913  0.00  0.00    +0.000 N 
ENDROOT
BRANCH   1   2
ATOM      2  C   UNL     1       2.626   4.373  19.234  0.00  0.00    +0.000 A 
ATOM      3  C   UNL     1       1.984   3.621  18.254  0.00  0.00    +0.000 A 
ATOM      4  C   UNL     1       0.959   2.779  18.650  0.00  0.00    +0.000 A 
ATOM      5  N   UNL     1       0.554   2.641  19.929  0.00  0.00    +0.000 NA
ATOM      6  C   UNL     1       1.200   3.380  20.857  0.00  0.00    +0.000 A 
ATOM      7  C   UNL     1       2.230   4.257  20.561  0.00  0.00    +0.000 A 
ENDBRANCH   1   2
BRANCH   1   8
ATOM      8  S   UNL     1       5.280   4.651  18.981  0.00  0.00    +0.000 S 
ATOM      9  O   UNL     1       6.131   5.611  19.661  0.00  0.00    +0.000 OA
ATOM     10  O   UNL     1       5.235   3.265  19.403  0.00  0.00    +0.000 OA
BRANCH   8  11
ATOM     11  C   UNL     1       5.971   4.581  17.334  0.00  0.00    +0.000 A 
ATOM     12  C   UNL     1       7.183   5.018  16.826  0.00  0.00    +0.000 A 
ATOM     13  C   UNL     1       7.295   4.796  15.420  0.00  0.00    +0.000 A 
ATOM     14  C   UNL     1       6.171   4.182  14.932  0.00  0.00    +0.000 A 
ATOM     15 CL   UNL     1       5.850   3.776  13.297  0.00  0.00    +0.000 Cl
ATOM     16  S   UNL     1       5.029   3.819  16.122  0.00  0.00    +0.000 S 
ENDBRANCH   8  11
ENDBRANCH   1   8
BRANCH   1  17
ATOM     17  C   UNL     1       3.477   6.722  19.120  0.00  0.00    +0.000 C 
BRANCH  17  18
ATOM     18  C   UNL     1       3.212   7.455  17.799  0.00  0.00    +0.000 C 
BRANCH  18  20
ATOM     19  C   UNL     1       1.954   9.441  17.872  0.00  0.00    +0.000 C 
ATOM     20  O   UNL     1       1.897   8.020  17.793  0.00  0.00    +0.000 OA
ENDBRANCH  18  20
ENDBRANCH  17  18
ENDBRANCH   1  17
TORSDOF 6
ENDMDL
MODEL 2
REMARK VINA RESULT:      -6.5      0.313      1.098
REMARK  Name = 
REMARK  7 active torsions:
REMARK  status: ('A' for Active; 'I' for Inactive)
REMARK    1  A    between atoms: C_1  and  O_2
REMARK    2  A    between atoms: O_2  and  C_3
REMARK    3  A    between atoms: C_3  and  C_4
REMARK    4  A    between atoms: C_4  and  N_5
REMARK    5  A    between atoms: N_5  and  C_6
REMARK    6  A    between atoms: N_5  and  S_12
REMARK    7  A    between atoms: S_12  and  C_15
REMARK                            x       y       z     vdW  Elec       q    Type
REMARK                         _______ _______ _______ _____ _____    ______ ____
ROOT
ATOM      1  N   UNL     1       3.614   5.217  18.843  0.00  0.00    +0.000 N 
ENDROOT
BRANCH   1   2
ATOM      2  C   UNL     1       2.579   4.312  19.257  0.00  0.00    +0.000 A 
ATOM      3  C   UNL     1       2.196   4.201  20.591  0.00  0.00    +0.000 A 
ATOM      4  C   UNL     1       1.187   3.307  20.904  0.00  0.00    +0.000 A 
ATOM      5  N   UNL     1       0.551   2.544  19.991  0.00  0.00    +0.000 NA
ATOM      6  C   UNL     1       0.943   2.678  18.705  0.00  0.00    +0.000 A 
ATOM      7  C   UNL     1       1.947   3.536  18.292  0.00  0.00    +0.000 A 
ENDBRANCH   1   2
BRANCH   1   8
ATOM      8  S   UNL     1       5.219   4.672  18.955  0.00  0.00    +0.000 S 
ATOM      9  O   UNL     1       6.014   5.689  19.620  0.00  0.00    +0.000 OA
ATOM     10  O   UNL     1       5.227   3.299  19.419  0.00  0.00    +0.000 OA
BRANCH   8  11
ATOM     11  C   UNL     1       5.940   4.584  17.323  0.00  0.00    +0.000 A 
ATOM     12  C   UNL     1       7.168   5.000  16.836  0.00  0.00    +0.000 A 
ATOM     13  C   UNL     1       7.304   4.770  15.434  0.00  0.00    +0.000 A 
ATOM     14  C   UNL     1       6.181   4.169  14.927  0.00  0.00    +0.000 A 
ATOM     15 CL   UNL     1       5.886   3.759  13.288  0.00  0.00    +0.000 Cl
ATOM     16  S   UNL     1       5.011   3.829  16.097  0.00  0.00    +0.000 S 
ENDBRANCH   8  11
ENDBRANCH   1   8
BRANCH   1  17
ATOM     17  C   UNL     1       3.332   6.673  18.914  0.00  0.00    +0.000 C 
BRANCH  17  18
ATOM     18  C   UNL     1       3.636   7.380  17.589  0.00  0.00    +0.000 C 
BRANCH  18  20
ATOM     19  C   UNL     1       1.919   8.767  18.402  0.00  0.00    +0.000 C 
ATOM     20  O   UNL     1       2.571   8.269  17.238  0.00  0.00    +0.000 OA
ENDBRANCH  18  20
ENDBRANCH  17  18
ENDBRANCH   1  17
TORSDOF 6
ENDMDL
MODEL 3
REMARK VINA RESULT:      -6.3      1.548      3.513
REMARK  Name = 
REMARK  7 active torsions:
REMARK  status: ('A' for Active; 'I' for Inactive)
REMARK    1  A    between atoms: C_1  and  O_2
REMARK    2  A    between atoms: O_2  and  C_3
REMARK    3  A    between atoms: C_3  and  C_4
REMARK    4  A    between atoms: C_4  and  N_5
REMARK    5  A    between atoms: N_5  and  C_6
REMARK    6  A    between atoms: N_5  and  S_12
REMARK    7  A    between atoms: S_12  and  C_15
REMARK                            x       y       z     vdW  Elec       q    Type
REMARK                         _______ _______ _______ _____ _____    ______ ____
ROOT
ATOM      1  N   UNL     1       3.291   4.680  18.949  0.00  0.00    +0.000 N 
ENDROOT
BRANCH   1   2
ATOM      2  C   UNL     1       2.865   6.050  18.909  0.00  0.00    +0.000 A 
ATOM      3  C   UNL     1       3.048   6.839  17.776  0.00  0.00    +0.000 A 
ATOM      4  C   UNL     1       2.605   8.150  17.820  0.00  0.00    +0.000 A 
ATOM      5  N   UNL     1       2.000   8.701  18.893  0.00  0.00    +0.000 NA
ATOM      6  C   UNL     1       1.834   7.909  19.974  0.00  0.00    +0.000 A 
ATOM      7  C   UNL     1       2.250   6.590  20.033  0.00  0.00    +0.000 A 
ENDBRANCH   1   2
BRANCH   1   8
ATOM      8  S   UNL     1       4.956   4.384  19.105  0.00  0.00    +0.000 S 
ATOM      9  O   UNL     1       5.567   5.500  19.803  0.00  0.00    +0.000 OA
ATOM     10  O   UNL     1       5.160   3.021  19.557  0.00  0.00    +0.000 OA
BRANCH   8  11
ATOM     11  C   UNL     1       5.729   4.429  17.495  0.00  0.00    +0.000 A 
ATOM     12  C   UNL     1       6.949   4.930  17.074  0.00  0.00    +0.000 A 
ATOM     13  C   UNL     1       7.137   4.792  15.666  0.00  0.00    +0.000 A 
ATOM     14  C   UNL     1       6.061   4.172  15.088  0.00  0.00    +0.000 A 
ATOM     15 CL   UNL     1       5.834   3.850  13.418  0.00  0.00    +0.000 Cl
ATOM     16  S   UNL     1       4.874   3.708  16.197  0.00  0.00    +0.000 S 
ENDBRANCH   8  11
ENDBRANCH   1   8
BRANCH   1  17
ATOM     17  C   UNL     1       2.429   3.666  18.291  0.00  0.00    +0.000 C 
BRANCH  17  18
ATOM     18  C   UNL     1       1.309   3.179  19.218  0.00  0.00    +0.000 C 
BRANCH  18  20
ATOM     19  C   UNL     1       1.635   2.813  21.518  0.00  0.00    +0.000 C 
ATOM     20  O   UNL     1       1.829   2.287  20.209  0.00  0.00    +0.000 OA
ENDBRANCH  18  20
ENDBRANCH  17  18
ENDBRANCH   1  17
TORSDOF 6
ENDMDL
MODEL 4
REMARK VINA RESULT:      -6.2      1.032      1.192
REMARK  Name = 
REMARK  7 active torsions:
REMARK  status: ('A' for Active; 'I' for Inactive)
REMARK    1  A    between atoms: C_1  and  O_2
REMARK    2  A    between atoms: O_2  and  C_3
REMARK    3  A    between atoms: C_3  and  C_4
REMARK    4  A    between atoms: C_4  and  N_5
REMARK    5  A    between atoms: N_5  and  C_6
REMARK    6  A    between atoms: N_5  and  S_12
REMARK    7  A    between atoms: S_12  and  C_15
REMARK                            x       y       z     vdW  Elec       q    Type
REMARK                         _______ _______ _______ _____ _____    ______ ____
ROOT
ATOM      1  N   UNL     1       3.561   5.405  18.564  0.00  0.00    +0.000 N 
ENDROOT
BRANCH   1   2
ATOM      2  C   UNL     1       2.564   4.470  19.003  0.00  0.00    +0.000 A 
ATOM      3  C   UNL     1       2.026   3.518  18.142  0.00  0.00    +0.000 A 
ATOM      4  C   UNL     1       1.071   2.652  18.646  0.00  0.00    +0.000 A 
ATOM      5  N   UNL     1       0.640   2.674  19.925  0.00  0.00    +0.000 NA
ATOM      6  C   UNL     1       1.184   3.606  20.736  0.00  0.00    +0.000 A 
ATOM      7  C   UNL     1       2.138   4.522  20.325  0.00  0.00    +0.000 A 
ENDBRANCH   1   2
BRANCH   1   8
ATOM      8  S   UNL     1       5.171   4.866  18.517  0.00  0.00    +0.000 S 
ATOM      9  O   UNL     1       6.038   5.942  18.961  0.00  0.00    +0.000 OA
ATOM     10  O   UNL     1       5.252   3.548  19.115  0.00  0.00    +0.000 OA
BRANCH   8  11
ATOM     11  C   UNL     1       5.669   4.606  16.821  0.00  0.00    +0.000 A 
ATOM     12  C   UNL     1       5.293   3.654  15.888  0.00  0.00    +0.000 A 
ATOM     13  C   UNL     1       5.993   3.798  14.652  0.00  0.00    +0.000 A 
ATOM     14  C   UNL     1       6.850   4.866  14.699  0.00  0.00    +0.000 A 
ATOM     15 CL   UNL     1       7.926   5.376  13.462  0.00  0.00    +0.000 Cl
ATOM     16  S   UNL     1       6.787   5.720  16.155  0.00  0.00    +0.000 S 
ENDBRANCH   8  11
ENDBRANCH   1   8
BRANCH   1  17
ATOM     17  C   UNL     1       3.281   6.852  18.745  0.00  0.00    +0.000 C 
BRANCH  17  18
ATOM     18  C   UNL     1       3.389   7.625  17.426  0.00  0.00    +0.000 C 
BRANCH  18  20
ATOM     19  C   UNL     1       1.746   8.799  18.632  0.00  0.00    +0.000 C 
ATOM     20  O   UNL     1       2.446   8.702  17.396  0.00  0.00    +0.000 OA
ENDBRANCH  18  20
ENDBRANCH  17  18
ENDBRANCH   1  17
TORSDOF 6
ENDMDL
MODEL 5
REMARK VINA RESULT:      -6.1      0.994      1.574
REMARK  Name = 
REMARK  7 active torsions:
REMARK  status: ('A' for Active; 'I' for Inactive)
REMARK    1  A    between atoms: C_1  and  O_2
REMARK    2  A    between atoms: O_2  and  C_3
REMARK    3  A    between atoms: C_3  and  C_4
REMARK    4  A    between atoms: C_4  and  N_5
REMARK    5  A    between atoms: N_5  and  C_6
REMARK    6  A    between atoms: N_5  and  S_12
REMARK    7  A    between atoms: S_12  and  C_15
REMARK                            x       y       z     vdW  Elec       q    Type
REMARK                         _______ _______ _______ _____ _____    ______ ____
ROOT
ATOM      1  N   UNL     1       3.603   5.322  18.872  0.00  0.00    +0.000 N 
ENDROOT
BRANCH   1   2
ATOM      2  C   UNL     1       2.602   4.360  19.237  0.00  0.00    +0.000 A 
ATOM      3  C   UNL     1       2.217   4.172  20.562  0.00  0.00    +0.000 A 
ATOM      4  C   UNL     1       1.243   3.226  20.827  0.00  0.00    +0.000 A 
ATOM      5  N   UNL     1       0.641   2.482  19.876  0.00  0.00    +0.000 NA
ATOM      6  C   UNL     1       1.033   2.691  18.600  0.00  0.00    +0.000 A 
ATOM      7  C   UNL     1       2.005   3.606  18.233  0.00  0.00    +0.000 A 
ENDBRANCH   1   2
BRANCH   1   8
ATOM      8  S   UNL     1       5.195   4.762  18.690  0.00  0.00    +0.000 S 
ATOM      9  O   UNL     1       6.110   5.794  19.142  0.00  0.00    +0.000 OA
ATOM     10  O   UNL     1       5.288   3.408  19.200  0.00  0.00    +0.000 OA
BRANCH   8  11
ATOM     11  C   UNL     1       5.581   4.599  16.953  0.00  0.00    +0.000 A 
ATOM     12  C   UNL     1       5.010   3.831  15.951  0.00  0.00    +0.000 A 
ATOM     13  C   UNL     1       5.682   3.980  14.701  0.00  0.00    +0.000 A 
ATOM     14  C   UNL     1       6.718   4.871  14.807  0.00  0.00    +0.000 A 
ATOM     15 CL   UNL     1       7.825   5.313  13.573  0.00  0.00    +0.000 Cl
ATOM     16  S   UNL     1       6.858   5.564  16.341  0.00  0.00    +0.000 S 
ENDBRANCH   8  11
ENDBRANCH   1   8
BRANCH   1  17
ATOM     17  C   UNL     1       3.367   6.741  19.239  0.00  0.00    +0.000 C 
BRANCH  17  18
ATOM     18  C   UNL     1       2.445   7.445  18.236  0.00  0.00    +0.000 C 
BRANCH  18  20
ATOM     19  C   UNL     1       1.816   9.690  17.917  0.00  0.00    +0.000 C 
ATOM     20  O   UNL     1       1.843   8.599  18.832  0.00  0.00    +0.000 OA
ENDBRANCH  18  20
ENDBRANCH  17  18
ENDBRANCH   1  17
TORSDOF 6
ENDMDL
MODEL 6
REMARK VINA RESULT:      -6.1      3.452      6.146
REMARK  Name = 
REMARK  7 active torsions:
REMARK  status: ('A' for Active; 'I' for Inactive)
REMARK    1  A    between atoms: C_1  and  O_2
REMARK    2  A    between atoms: O_2  and  C_3
REMARK    3  A    between atoms: C_3  and  C_4
REMARK    4  A    between atoms: C_4  and  N_5
REMARK    5  A    between atoms: N_5  and  C_6
REMARK    6  A    between atoms: N_5  and  S_12
REMARK    7  A    between atoms: S_12  and  C_15
REMARK                            x       y       z     vdW  Elec       q    Type
REMARK                         _______ _______ _______ _____ _____    ______ ____
ROOT
ATOM      1  N   UNL     1       5.382   4.587  16.800  0.00  0.00    +0.000 N 
ENDROOT
BRANCH   1   2
ATOM      2  C   UNL     1       6.322   5.500  17.387  0.00  0.00    +0.000 A 
ATOM      3  C   UNL     1       6.473   6.800  16.913  0.00  0.00    +0.000 A 
ATOM      4  C   UNL     1       7.400   7.616  17.538  0.00  0.00    +0.000 A 
ATOM      5  N   UNL     1       8.158   7.226  18.583  0.00  0.00    +0.000 NA
ATOM      6  C   UNL     1       7.985   5.960  19.023  0.00  0.00    +0.000 A 
ATOM      7  C   UNL     1       7.092   5.065  18.460  0.00  0.00    +0.000 A 
ENDBRANCH   1   2
BRANCH   1   8
ATOM      8  S   UNL     1       4.007   4.189  17.712  0.00  0.00    +0.000 S 
ATOM      9  O   UNL     1       3.008   3.616  16.827  0.00  0.00    +0.000 OA
ATOM     10  O   UNL     1       4.416   3.499  18.920  0.00  0.00    +0.000 OA
BRANCH   8  11
ATOM     11  C   UNL     1       3.225   5.682  18.306  0.00  0.00    +0.000 A 
ATOM     12  C   UNL     1       3.018   6.913  17.707  0.00  0.00    +0.000 A 
ATOM     13  C   UNL     1       2.385   7.845  18.583  0.00  0.00    +0.000 A 
ATOM     14  C   UNL     1       2.121   7.270  19.799  0.00  0.00    +0.000 A 
ATOM     15 CL   UNL     1       1.422   8.033  21.167  0.00  0.00    +0.000 Cl
ATOM     16  S   UNL     1       2.560   5.641  19.885  0.00  0.00    +0.000 S 
ENDBRANCH   8  11
ENDBRANCH   1   8
BRANCH   1  17
ATOM     17  C   UNL     1       5.889   3.628  15.787  0.00  0.00    +0.000 C 
BRANCH  17  18
ATOM     18  C   UNL     1       6.321   4.333  14.496  0.00  0.00    +0.000 C 
BRANCH  18  20
ATOM     19  C   UNL     1       6.290   3.384  12.344  0.00  0.00    +0.000 C 
ATOM     20  O   UNL     1       5.499   3.922  13.399  0.00  0.00    +0.000 OA
ENDBRANCH  18  20
ENDBRANCH  17  18
ENDBRANCH   1  17
TORSDOF 6
ENDMDL
MODEL 7
REMARK VINA RESULT:      -6.1      1.788      3.693
REMARK  Name = 
REMARK  7 active torsions:
REMARK  status: ('A' for Active; 'I' for Inactive)
REMARK    1  A    between atoms: C_1  and  O_2
REMARK    2  A    between atoms: O_2  and  C_3
REMARK    3  A    between atoms: C_3  and  C_4
REMARK    4  A    between atoms: C_4  and  N_5
REMARK    5  A    between atoms: N_5  and  C_6
REMARK    6  A    between atoms: N_5  and  S_12
REMARK    7  A    between atoms: S_12  and  C_15
REMARK                            x       y       z     vdW  Elec       q    Type
REMARK                         _______ _______ _______ _____ _____    ______ ____
ROOT
ATOM      1  N   UNL     1       3.056   4.750  18.988  0.00  0.00    +0.000 N 
ENDROOT
BRANCH   1   2
ATOM      2  C   UNL     1       2.610   6.112  19.074  0.00  0.00    +0.000 A 
ATOM      3  C   UNL     1       2.668   6.970  17.980  0.00  0.00    +0.000 A 
ATOM      4  C   UNL     1       2.215   8.267  18.147  0.00  0.00    +0.000 A 
ATOM      5  N   UNL     1       1.714   8.743  19.307  0.00  0.00    +0.000 NA
ATOM      6  C   UNL     1       1.668   7.884  20.349  0.00  0.00    +0.000 A 
ATOM      7  C   UNL     1       2.105   6.572  20.285  0.00  0.00    +0.000 A 
ENDBRANCH   1   2
BRANCH   1   8
ATOM      8  S   UNL     1       4.731   4.479  18.923  0.00  0.00    +0.000 S 
ATOM      9  O   UNL     1       5.415   5.638  19.466  0.00  0.00    +0.000 OA
ATOM     10  O   UNL     1       5.020   3.145  19.413  0.00  0.00    +0.000 OA
BRANCH   8  11
ATOM     11  C   UNL     1       5.268   4.441  17.219  0.00  0.00    +0.000 A 
ATOM     12  C   UNL     1       4.798   3.739  16.122  0.00  0.00    +0.000 A 
ATOM     13  C   UNL     1       5.574   3.982  14.948  0.00  0.00    +0.000 A 
ATOM     14  C   UNL     1       6.582   4.874  15.205  0.00  0.00    +0.000 A 
ATOM     15 CL   UNL     1       7.784   5.411  14.105  0.00  0.00    +0.000 Cl
ATOM     16  S   UNL     1       6.578   5.460  16.789  0.00  0.00    +0.000 S 
ENDBRANCH   8  11
ENDBRANCH   1   8
BRANCH   1  17
ATOM     17  C   UNL     1       2.132   3.755  18.387  0.00  0.00    +0.000 C 
BRANCH  17  18
ATOM     18  C   UNL     1       1.125   3.218  19.410  0.00  0.00    +0.000 C 
BRANCH  18  20
ATOM     19  C   UNL     1       1.722   2.789  21.645  0.00  0.00    +0.000 C 
ATOM     20  O   UNL     1       1.760   2.302  20.308  0.00  0.00    +0.000 OA
ENDBRANCH  18  20
ENDBRANCH  17  18
ENDBRANCH   1  17
TORSDOF 6
ENDMDL
MODEL 8
REMARK VINA RESULT:      -6.1      3.459      6.224
REMARK  Name = 
REMARK  7 active torsions:
REMARK  status: ('A' for Active; 'I' for Inactive)
REMARK    1  A    between atoms: C_1  and  O_2
REMARK    2  A    between atoms: O_2  and  C_3
REMARK    3  A    between atoms: C_3  and  C_4
REMARK    4  A    between atoms: C_4  and  N_5
REMARK    5  A    between atoms: N_5  and  C_6
REMARK    6  A    between atoms: N_5  and  S_12
REMARK    7  A    between atoms: S_12  and  C_15
REMARK                            x       y       z     vdW  Elec       q    Type
REMARK                         _______ _______ _______ _____ _____    ______ ____
ROOT
ATOM      1  N   UNL     1       5.428   4.631  16.836  0.00  0.00    +0.000 N 
ENDROOT
BRANCH   1   2
ATOM      2  C   UNL     1       6.375   5.517  17.452  0.00  0.00    +0.000 A 
ATOM      3  C   UNL     1       7.154   5.116  18.534  0.00  0.00    +0.000 A 
ATOM      4  C   UNL     1       8.045   6.031  19.067  0.00  0.00    +0.000 A 
ATOM      5  N   UNL     1       8.206   7.284  18.593  0.00  0.00    +0.000 NA
ATOM      6  C   UNL     1       7.438   7.642  17.540  0.00  0.00    +0.000 A 
ATOM      7  C   UNL     1       6.513   6.803  16.943  0.00  0.00    +0.000 A 
ENDBRANCH   1   2
BRANCH   1   8
ATOM      8  S   UNL     1       4.042   4.226  17.729  0.00  0.00    +0.000 S 
ATOM      9  O   UNL     1       3.058   3.649  16.832  0.00  0.00    +0.000 OA
ATOM     10  O   UNL     1       4.437   3.539  18.943  0.00  0.00    +0.000 OA
BRANCH   8  11
ATOM     11  C   UNL     1       3.245   5.715  18.313  0.00  0.00    +0.000 A 
ATOM     12  C   UNL     1       3.049   6.949  17.714  0.00  0.00    +0.000 A 
ATOM     13  C   UNL     1       2.396   7.876  18.581  0.00  0.00    +0.000 A 
ATOM     14  C   UNL     1       2.108   7.296  19.788  0.00  0.00    +0.000 A 
ATOM     15 CL   UNL     1       1.378   8.052  21.144  0.00  0.00    +0.000 Cl
ATOM     16  S   UNL     1       2.547   5.667  19.877  0.00  0.00    +0.000 S 
ENDBRANCH   8  11
ENDBRANCH   1   8
BRANCH   1  17
ATOM     17  C   UNL     1       5.929   3.691  15.802  0.00  0.00    +0.000 C 
BRANCH  17  18
ATOM     18  C   UNL     1       6.166   4.392  14.459  0.00  0.00    +0.000 C 
BRANCH  18  20
ATOM     19  C   UNL     1       6.690   3.810  12.240  0.00  0.00    +0.000 C 
ATOM     20  O   UNL     1       5.882   3.505  13.372  0.00  0.00    +0.000 OA
ENDBRANCH  18  20
ENDBRANCH  17  18
ENDBRANCH   1  17
TORSDOF 6
ENDMDL
MODEL 9
REMARK VINA RESULT:      -6.1      1.860      3.766
REMARK  Name = 
REMARK  7 active torsions:
REMARK  status: ('A' for Active; 'I' for Inactive)
REMARK    1  A    between atoms: C_1  and  O_2
REMARK    2  A    between atoms: O_2  and  C_3
REMARK    3  A    between atoms: C_3  and  C_4
REMARK    4  A    between atoms: C_4  and  N_5
REMARK    5  A    between atoms: N_5  and  C_6
REMARK    6  A    between atoms: N_5  and  S_12
REMARK    7  A    between atoms: S_12  and  C_15
REMARK                            x       y       z     vdW  Elec       q    Type
REMARK                         _______ _______ _______ _____ _____    ______ ____
ROOT
ATOM      1  N   UNL     1       3.118   4.684  19.005  0.00  0.00    +0.000 N 
ENDROOT
BRANCH   1   2
ATOM      2  C   UNL     1       2.631   6.026  19.151  0.00  0.00    +0.000 A 
ATOM      3  C   UNL     1       2.104   6.485  20.355  0.00  0.00    +0.000 A 
ATOM      4  C   UNL     1       1.659   7.794  20.411  0.00  0.00    +0.000 A 
ATOM      5  N   UNL     1       1.715   8.651  19.370  0.00  0.00    +0.000 NA
ATOM      6  C   UNL     1       2.236   8.177  18.217  0.00  0.00    +0.000 A 
ATOM      7  C   UNL     1       2.699   6.882  18.058  0.00  0.00    +0.000 A 
ENDBRANCH   1   2
BRANCH   1   8
ATOM      8  S   UNL     1       4.799   4.470  18.894  0.00  0.00    +0.000 S 
ATOM      9  O   UNL     1       5.458   5.648  19.427  0.00  0.00    +0.000 OA
ATOM     10  O   UNL     1       5.145   3.144  19.368  0.00  0.00    +0.000 OA
BRANCH   8  11
ATOM     11  C   UNL     1       5.293   4.460  17.177  0.00  0.00    +0.000 A 
ATOM     12  C   UNL     1       4.754   3.828  16.069  0.00  0.00    +0.000 A 
ATOM     13  C   UNL     1       5.516   4.065  14.884  0.00  0.00    +0.000 A 
ATOM     14  C   UNL     1       6.583   4.884  15.146  0.00  0.00    +0.000 A 
ATOM     15 CL   UNL     1       7.790   5.386  14.035  0.00  0.00    +0.000 Cl
ATOM     16  S   UNL     1       6.652   5.412  16.749  0.00  0.00    +0.000 S 
ENDBRANCH   8  11
ENDBRANCH   1   8
BRANCH   1  17
ATOM     17  C   UNL     1       2.213   3.682  18.387  0.00  0.00    +0.000 C 
BRANCH  17  18
ATOM     18  C   UNL     1       1.851   2.558  19.364  0.00  0.00    +0.000 C 
BRANCH  18  20
ATOM     19  C   UNL     1       1.554   2.835  21.681  0.00  0.00    +0.000 C 
ATOM     20  O   UNL     1       0.985   3.047  20.394  0.00  0.00    +0.000 OA
ENDBRANCH  18  20
ENDBRANCH  17  18
ENDBRANCH   1  17
TORSDOF 6
ENDMDL
