MODEL 1
REMARK VINA RESULT:      -7.5      0.000      0.000
REMARK  Name = 
REMARK  3 active torsions:
REMARK  status: ('A' for Active; 'I' for Inactive)
REMARK    1  A    between atoms: S_2  and  C_4
REMARK    2  A    between atoms: S_2  and  C_13
REMARK    3  A    between atoms: C_5  and  C_6
REMARK                            x       y       z     vdW  Elec       q    Type
REMARK                         _______ _______ _______ _____ _____    ______ ____
ROOT
ATOM      1  O   UNL     1       1.895   2.243  18.229  0.00  0.00    +0.000 OA
ATOM      2  S   UNL     1       3.119   2.965  18.512  0.00  0.00    +0.000 S 
ATOM      3  O   UNL     1       4.090   2.397  19.434  0.00  0.00    +0.000 OA
ENDROOT
BRANCH   2   4
ATOM      4  C   UNL     1       2.657   4.557  19.160  0.00  0.00    +0.000 A 
ATOM      5  C   UNL     1       2.955   5.699  18.395  0.00  0.00    +0.000 A 
ATOM      6  C   UNL     1       2.584   6.966  18.848  0.00  0.00    +0.000 A 
ATOM      7  C   UNL     1       1.919   7.100  20.064  0.00  0.00    +0.000 A 
ATOM      8  C   UNL     1       1.639   5.970  20.834  0.00  0.00    +0.000 A 
ATOM      9  C   UNL     1       2.010   4.692  20.391  0.00  0.00    +0.000 A 
ATOM     10 CL   UNL     1       1.623   3.371  21.431  0.00  0.00    +0.000 Cl
ENDBRANCH   2   4
BRANCH   2  11
ATOM     11  C   UNL     1       3.945   3.328  17.024  0.00  0.00    +0.000 C 
ATOM     12  C   UNL     1       5.161   3.893  17.073  0.00  0.00    +0.000 C 
BRANCH  12  13
ATOM     13  C   UNL     1       5.907   4.282  15.873  0.00  0.00    +0.000 A 
ATOM     14  C   UNL     1       5.637   3.659  14.651  0.00  0.00    +0.000 A 
ATOM     15  C   UNL     1       6.389   3.988  13.524  0.00  0.00    +0.000 A 
ATOM     16  C   UNL     1       7.387   4.942  13.650  0.00  0.00    +0.000 A 
ATOM     17  N   UNL     1       7.674   5.575  14.805  0.00  0.00    +0.000 NA
ATOM     18  C   UNL     1       6.934   5.231  15.883  0.00  0.00    +0.000 A 
ATOM     19 CL   UNL     1       7.398   6.069  17.316  0.00  0.00    +0.000 Cl
ENDBRANCH  12  13
ENDBRANCH   2  11
TORSDOF 3
ENDMDL
MODEL 2
REMARK VINA RESULT:      -7.1      2.626      3.295
REMARK  Name = 
REMARK  3 active torsions:
REMARK  status: ('A' for Active; 'I' for Inactive)
REMARK    1  A    between atoms: S_2  and  C_4
REMARK    2  A    between atoms: S_2  and  C_13
REMARK    3  A    between atoms: C_5  and  C_6
REMARK                            x       y       z     vdW  Elec       q    Type
REMARK                         _______ _______ _______ _____ _____    ______ ____
ROOT
ATOM      1  O   UNL     1       2.019   3.465  16.627  0.00  0.00    +0.000 OA
ATOM      2  S   UNL     1       3.027   2.851  17.466  0.00  0.00    +0.000 S 
ATOM      3  O   UNL     1       3.350   1.444  17.286  0.00  0.00    +0.000 OA
ENDROOT
BRANCH   2   4
ATOM      4  C   UNL     1       2.508   3.054  19.156  0.00  0.00    +0.000 A 
ATOM      5  C   UNL     1       1.319   3.761  19.407  0.00  0.00    +0.000 A 
ATOM      6  C   UNL     1       0.857   3.918  20.714  0.00  0.00    +0.000 A 
ATOM      7  C   UNL     1       1.577   3.376  21.774  0.00  0.00    +0.000 A 
ATOM      8  C   UNL     1       2.767   2.689  21.529  0.00  0.00    +0.000 A 
ATOM      9  C   UNL     1       3.244   2.528  20.220  0.00  0.00    +0.000 A 
ATOM     10 CL   UNL     1       4.732   1.672  20.040  0.00  0.00    +0.000 Cl
ENDBRANCH   2   4
BRANCH   2  11
ATOM     11  C   UNL     1       4.510   3.755  17.359  0.00  0.00    +0.000 C 
ATOM     12  C   UNL     1       4.644   4.879  18.080  0.00  0.00    +0.000 C 
BRANCH  12  13
ATOM     13  C   UNL     1       5.834   5.731  18.012  0.00  0.00    +0.000 A 
ATOM     14  C   UNL     1       6.836   5.609  18.980  0.00  0.00    +0.000 A 
ATOM     15  C   UNL     1       7.939   6.462  18.947  0.00  0.00    +0.000 A 
ATOM     16  C   UNL     1       8.012   7.410  17.940  0.00  0.00    +0.000 A 
ATOM     17  N   UNL     1       7.075   7.557  16.981  0.00  0.00    +0.000 NA
ATOM     18  C   UNL     1       6.014   6.721  17.041  0.00  0.00    +0.000 A 
ATOM     19 CL   UNL     1       4.858   7.008  15.795  0.00  0.00    +0.000 Cl
ENDBRANCH  12  13
ENDBRANCH   2  11
TORSDOF 3
ENDMDL
MODEL 3
REMARK VINA RESULT:      -7.0      3.552      6.435
REMARK  Name = 
REMARK  3 active torsions:
REMARK  status: ('A' for Active; 'I' for Inactive)
REMARK    1  A    between atoms: S_2  and  C_4
REMARK    2  A    between atoms: S_2  and  C_13
REMARK    3  A    between atoms: C_5  and  C_6
REMARK                            x       y       z     vdW  Elec       q    Type
REMARK                         _______ _______ _______ _____ _____    ______ ____
ROOT
ATOM      1  O   UNL     1       3.896   3.506  19.168  0.00  0.00    +0.000 OA
ATOM      2  S   UNL     1       3.871   4.521  18.135  0.00  0.00    +0.000 S 
ATOM      3  O   UNL     1       3.685   4.128  16.747  0.00  0.00    +0.000 OA
ENDROOT
BRANCH   2   4
ATOM      4  C   UNL     1       5.413   5.406  18.223  0.00  0.00    +0.000 A 
ATOM      5  C   UNL     1       6.283   5.125  19.292  0.00  0.00    +0.000 A 
ATOM      6  C   UNL     1       7.516   5.771  19.384  0.00  0.00    +0.000 A 
ATOM      7  C   UNL     1       7.886   6.700  18.416  0.00  0.00    +0.000 A 
ATOM      8  C   UNL     1       7.017   6.994  17.364  0.00  0.00    +0.000 A 
ATOM      9  C   UNL     1       5.773   6.355  17.262  0.00  0.00    +0.000 A 
ATOM     10 CL   UNL     1       4.778   6.807  15.927  0.00  0.00    +0.000 Cl
ENDBRANCH   2   4
BRANCH   2  11
ATOM     11  C   UNL     1       2.666   5.718  18.516  0.00  0.00    +0.000 C 
ATOM     12  C   UNL     1       2.946   6.660  19.431  0.00  0.00    +0.000 C 
BRANCH  12  13
ATOM     13  C   UNL     1       1.976   7.673  19.853  0.00  0.00    +0.000 A 
ATOM     14  C   UNL     1       1.326   7.547  21.084  0.00  0.00    +0.000 A 
ATOM     15  C   UNL     1       0.360   8.481  21.457  0.00  0.00    +0.000 A 
ATOM     16  C   UNL     1       0.077   9.523  20.589  0.00  0.00    +0.000 A 
ATOM     17  N   UNL     1       0.686   9.689  19.397  0.00  0.00    +0.000 NA
ATOM     18  C   UNL     1       1.613   8.765  19.059  0.00  0.00    +0.000 A 
ATOM     19 CL   UNL     1       2.309   9.045  17.507  0.00  0.00    +0.000 Cl
ENDBRANCH  12  13
ENDBRANCH   2  11
TORSDOF 3
ENDMDL
MODEL 4
REMARK VINA RESULT:      -7.0      4.342      7.258
REMARK  Name = 
REMARK  3 active torsions:
REMARK  status: ('A' for Active; 'I' for Inactive)
REMARK    1  A    between atoms: S_2  and  C_4
REMARK    2  A    between atoms: S_2  and  C_13
REMARK    3  A    between atoms: C_5  and  C_6
REMARK                            x       y       z     vdW  Elec       q    Type
REMARK                         _______ _______ _______ _____ _____    ______ ____
ROOT
ATOM      1  O   UNL     1       3.253   6.610  17.628  0.00  0.00    +0.000 OA
ATOM      2  S   UNL     1       3.304   5.999  18.941  0.00  0.00    +0.000 S 
ATOM      3  O   UNL     1       4.591   5.798  19.589  0.00  0.00    +0.000 OA
ENDROOT
BRANCH   2   4
ATOM      4  C   UNL     1       2.530   4.402  18.813  0.00  0.00    +0.000 A 
ATOM      5  C   UNL     1       1.430   4.126  19.644  0.00  0.00    +0.000 A 
ATOM      6  C   UNL     1       0.772   2.899  19.556  0.00  0.00    +0.000 A 
ATOM      7  C   UNL     1       1.208   1.942  18.644  0.00  0.00    +0.000 A 
ATOM      8  C   UNL     1       2.312   2.206  17.831  0.00  0.00    +0.000 A 
ATOM      9  C   UNL     1       2.984   3.434  17.912  0.00  0.00    +0.000 A 
ATOM     10 CL   UNL     1       4.340   3.644  16.867  0.00  0.00    +0.000 Cl
ENDBRANCH   2   4
BRANCH   2  11
ATOM     11  C   UNL     1       2.286   6.885  20.040  0.00  0.00    +0.000 C 
ATOM     12  C   UNL     1       1.861   8.110  19.695  0.00  0.00    +0.000 C 
BRANCH  12  13
ATOM     13  C   UNL     1       1.046   8.948  20.578  0.00  0.00    +0.000 A 
ATOM     14  C   UNL     1       1.143   8.801  21.964  0.00  0.00    +0.000 A 
ATOM     15  C   UNL     1       0.324   9.559  22.801  0.00  0.00    +0.000 A 
ATOM     16  C   UNL     1      -0.566  10.452  22.224  0.00  0.00    +0.000 A 
ATOM     17  N   UNL     1      -0.685  10.634  20.893  0.00  0.00    +0.000 NA
ATOM     18  C   UNL     1       0.117   9.881  20.107  0.00  0.00    +0.000 A 
ATOM     19 CL   UNL     1      -0.133  10.161  18.424  0.00  0.00    +0.000 Cl
ENDBRANCH  12  13
ENDBRANCH   2  11
TORSDOF 3
ENDMDL
MODEL 5
REMARK VINA RESULT:      -6.9      2.696      6.085
REMARK  Name = 
REMARK  3 active torsions:
REMARK  status: ('A' for Active; 'I' for Inactive)
REMARK    1  A    between atoms: S_2  and  C_4
REMARK    2  A    between atoms: S_2  and  C_13
REMARK    3  A    between atoms: C_5  and  C_6
REMARK                            x       y       z     vdW  Elec       q    Type
REMARK                         _______ _______ _______ _____ _____    ______ ____
ROOT
ATOM      1  O   UNL     1       5.075   2.923  19.909  0.00  0.00    +0.000 OA
ATOM      2  S   UNL     1       4.171   3.588  18.994  0.00  0.00    +0.000 S 
ATOM      3  O   UNL     1       3.085   2.835  18.385  0.00  0.00    +0.000 OA
ENDROOT
BRANCH   2   4
ATOM      4  C   UNL     1       5.152   4.251  17.665  0.00  0.00    +0.000 A 
ATOM      5  C   UNL     1       4.790   3.930  16.345  0.00  0.00    +0.000 A 
ATOM      6  C   UNL     1       5.512   4.453  15.271  0.00  0.00    +0.000 A 
ATOM      7  C   UNL     1       6.597   5.292  15.508  0.00  0.00    +0.000 A 
ATOM      8  C   UNL     1       6.970   5.597  16.818  0.00  0.00    +0.000 A 
ATOM      9  C   UNL     1       6.255   5.075  17.906  0.00  0.00    +0.000 A 
ATOM     10 CL   UNL     1       6.815   5.510  19.479  0.00  0.00    +0.000 Cl
ENDBRANCH   2   4
BRANCH   2  11
ATOM     11  C   UNL     1       3.482   4.989  19.762  0.00  0.00    +0.000 C 
ATOM     12  C   UNL     1       2.673   5.792  19.054  0.00  0.00    +0.000 C 
BRANCH  12  13
ATOM     13  C   UNL     1       2.092   7.020  19.601  0.00  0.00    +0.000 A 
ATOM     14  C   UNL     1       1.536   7.018  20.883  0.00  0.00    +0.000 A 
ATOM     15  C   UNL     1       0.930   8.173  21.378  0.00  0.00    +0.000 A 
ATOM     16  C   UNL     1       0.906   9.303  20.577  0.00  0.00    +0.000 A 
ATOM     17  N   UNL     1       1.439   9.353  19.339  0.00  0.00    +0.000 NA
ATOM     18  C   UNL     1       2.014   8.217  18.883  0.00  0.00    +0.000 A 
ATOM     19 CL   UNL     1       2.635   8.372  17.282  0.00  0.00    +0.000 Cl
ENDBRANCH  12  13
ENDBRANCH   2  11
TORSDOF 3
ENDMDL
MODEL 6
REMARK VINA RESULT:      -6.9      3.420      6.353
REMARK  Name = 
REMARK  3 active torsions:
REMARK  status: ('A' for Active; 'I' for Inactive)
REMARK    1  A    between atoms: S_2  and  C_4
REMARK    2  A    between atoms: S_2  and  C_13
REMARK    3  A    between atoms: C_5  and  C_6
REMARK                            x       y       z     vdW  Elec       q    Type
REMARK                         _______ _______ _______ _____ _____    ______ ____
ROOT
ATOM      1  O   UNL     1       7.414   6.891  18.421  0.00  0.00    +0.000 OA
ATOM      2  S   UNL     1       7.040   5.500  18.270  0.00  0.00    +0.000 S 
ATOM      3  O   UNL     1       8.013   4.460  18.567  0.00  0.00    +0.000 OA
ENDROOT
BRANCH   2   4
ATOM      4  C   UNL     1       6.530   5.267  16.581  0.00  0.00    +0.000 A 
ATOM      5  C   UNL     1       7.223   4.327  15.799  0.00  0.00    +0.000 A 
ATOM      6  C   UNL     1       6.837   4.089  14.479  0.00  0.00    +0.000 A 
ATOM      7  C   UNL     1       5.764   4.787  13.933  0.00  0.00    +0.000 A 
ATOM      8  C   UNL     1       5.086   5.735  14.702  0.00  0.00    +0.000 A 
ATOM      9  C   UNL     1       5.466   5.986  16.028  0.00  0.00    +0.000 A 
ATOM     10 CL   UNL     1       4.564   7.187  16.877  0.00  0.00    +0.000 Cl
ENDBRANCH   2   4
BRANCH   2  11
ATOM     11  C   UNL     1       5.608   5.172  19.203  0.00  0.00    +0.000 C 
ATOM     12  C   UNL     1       4.815   4.150  18.844  0.00  0.00    +0.000 C 
BRANCH  12  13
ATOM     13  C   UNL     1       3.563   3.833  19.537  0.00  0.00    +0.000 A 
ATOM     14  C   UNL     1       2.954   4.792  20.352  0.00  0.00    +0.000 A 
ATOM     15  C   UNL     1       1.795   4.468  21.057  0.00  0.00    +0.000 A 
ATOM     16  C   UNL     1       1.272   3.192  20.918  0.00  0.00    +0.000 A 
ATOM     17  N   UNL     1       1.819   2.240  20.135  0.00  0.00    +0.000 NA
ATOM     18  C   UNL     1       2.946   2.581  19.470  0.00  0.00    +0.000 A 
ATOM     19 CL   UNL     1       3.587   1.289  18.525  0.00  0.00    +0.000 Cl
ENDBRANCH  12  13
ENDBRANCH   2  11
TORSDOF 3
ENDMDL
MODEL 7
REMARK VINA RESULT:      -6.9      2.076      2.483
REMARK  Name = 
REMARK  3 active torsions:
REMARK  status: ('A' for Active; 'I' for Inactive)
REMARK    1  A    between atoms: S_2  and  C_4
REMARK    2  A    between atoms: S_2  and  C_13
REMARK    3  A    between atoms: C_5  and  C_6
REMARK                            x       y       z     vdW  Elec       q    Type
REMARK                         _______ _______ _______ _____ _____    ______ ____
ROOT
ATOM      1  O   UNL     1       1.483   4.961  19.173  0.00  0.00    +0.000 OA
ATOM      2  S   UNL     1       2.682   5.771  19.107  0.00  0.00    +0.000 S 
ATOM      3  O   UNL     1       3.661   5.693  20.180  0.00  0.00    +0.000 OA
ENDROOT
BRANCH   2   4
ATOM      4  C   UNL     1       2.168   7.471  18.996  0.00  0.00    +0.000 A 
ATOM      5  C   UNL     1       2.478   8.186  17.825  0.00  0.00    +0.000 A 
ATOM      6  C   UNL     1       2.067   9.512  17.681  0.00  0.00    +0.000 A 
ATOM      7  C   UNL     1       1.351  10.131  18.701  0.00  0.00    +0.000 A 
ATOM      8  C   UNL     1       1.058   9.429  19.872  0.00  0.00    +0.000 A 
ATOM      9  C   UNL     1       1.468   8.098  20.031  0.00  0.00    +0.000 A 
ATOM     10 CL   UNL     1       1.061   7.336  21.524  0.00  0.00    +0.000 Cl
ENDBRANCH   2   4
BRANCH   2  11
ATOM     11  C   UNL     1       3.511   5.473  17.606  0.00  0.00    +0.000 C 
ATOM     12  C   UNL     1       4.851   5.392  17.604  0.00  0.00    +0.000 C 
BRANCH  12  13
ATOM     13  C   UNL     1       5.635   5.197  16.382  0.00  0.00    +0.000 A 
ATOM     14  C   UNL     1       5.170   4.336  15.384  0.00  0.00    +0.000 A 
ATOM     15  C   UNL     1       5.946   4.107  14.249  0.00  0.00    +0.000 A 
ATOM     16  C   UNL     1       7.167   4.754  14.140  0.00  0.00    +0.000 A 
ATOM     17  N   UNL     1       7.650   5.600  15.072  0.00  0.00    +0.000 NA
ATOM     18  C   UNL     1       6.878   5.798  16.165  0.00  0.00    +0.000 A 
ATOM     19 CL   UNL     1       7.596   6.867  17.312  0.00  0.00    +0.000 Cl
ENDBRANCH  12  13
ENDBRANCH   2  11
TORSDOF 3
ENDMDL
MODEL 8
REMARK VINA RESULT:      -6.9      2.487      3.306
REMARK  Name = 
REMARK  3 active torsions:
REMARK  status: ('A' for Active; 'I' for Inactive)
REMARK    1  A    between atoms: S_2  and  C_4
REMARK    2  A    between atoms: S_2  and  C_13
REMARK    3  A    between atoms: C_5  and  C_6
REMARK                            x       y       z     vdW  Elec       q    Type
REMARK                         _______ _______ _______ _____ _____    ______ ____
ROOT
ATOM      1  O   UNL     1       2.506   2.793  16.568  0.00  0.00    +0.000 OA
ATOM      2  S   UNL     1       3.486   2.572  17.611  0.00  0.00    +0.000 S 
ATOM      3  O   UNL     1       4.023   1.236  17.819  0.00  0.00    +0.000 OA
ENDROOT
BRANCH   2   4
ATOM      4  C   UNL     1       2.751   3.083  19.149  0.00  0.00    +0.000 A 
ATOM      5  C   UNL     1       3.020   2.323  20.301  0.00  0.00    +0.000 A 
ATOM      6  C   UNL     1       2.490   2.705  21.534  0.00  0.00    +0.000 A 
ATOM      7  C   UNL     1       1.689   3.839  21.624  0.00  0.00    +0.000 A 
ATOM      8  C   UNL     1       1.405   4.584  20.479  0.00  0.00    +0.000 A 
ATOM      9  C   UNL     1       1.928   4.210  19.233  0.00  0.00    +0.000 A 
ATOM     10 CL   UNL     1       1.501   5.199  17.885  0.00  0.00    +0.000 Cl
ENDBRANCH   2   4
BRANCH   2  11
ATOM     11  C   UNL     1       4.829   3.657  17.394  0.00  0.00    +0.000 C 
ATOM     12  C   UNL     1       5.009   4.658  18.270  0.00  0.00    +0.000 C 
BRANCH  12  13
ATOM     13  C   UNL     1       6.079   5.650  18.137  0.00  0.00    +0.000 A 
ATOM     14  C   UNL     1       7.151   5.645  19.035  0.00  0.00    +0.000 A 
ATOM     15  C   UNL     1       8.137   6.627  18.942  0.00  0.00    +0.000 A 
ATOM     16  C   UNL     1       8.027   7.584  17.946  0.00  0.00    +0.000 A 
ATOM     17  N   UNL     1       7.017   7.620  17.053  0.00  0.00    +0.000 NA
ATOM     18  C   UNL     1       6.072   6.660  17.171  0.00  0.00    +0.000 A 
ATOM     19 CL   UNL     1       4.809   6.811  16.008  0.00  0.00    +0.000 Cl
ENDBRANCH  12  13
ENDBRANCH   2  11
TORSDOF 3
ENDMDL
MODEL 9
REMARK VINA RESULT:      -6.8      3.331      6.242
REMARK  Name = 
REMARK  3 active torsions:
REMARK  status: ('A' for Active; 'I' for Inactive)
REMARK    1  A    between atoms: S_2  and  C_4
REMARK    2  A    between atoms: S_2  and  C_13
REMARK    3  A    between atoms: C_5  and  C_6
REMARK                            x       y       z     vdW  Elec       q    Type
REMARK                         _______ _______ _______ _____ _____    ______ ____
ROOT
ATOM      1  O   UNL     1       3.827   3.626  19.142  0.00  0.00    +0.000 OA
ATOM      2  S   UNL     1       3.942   4.513  18.002  0.00  0.00    +0.000 S 
ATOM      3  O   UNL     1       3.879   3.963  16.657  0.00  0.00    +0.000 OA
ENDROOT
BRANCH   2   4
ATOM      4  C   UNL     1       5.499   5.362  18.145  0.00  0.00    +0.000 A 
ATOM      5  C   UNL     1       6.257   5.171  19.314  0.00  0.00    +0.000 A 
ATOM      6  C   UNL     1       7.499   5.792  19.456  0.00  0.00    +0.000 A 
ATOM      7  C   UNL     1       7.987   6.607  18.438  0.00  0.00    +0.000 A 
ATOM      8  C   UNL     1       7.228   6.813  17.285  0.00  0.00    +0.000 A 
ATOM      9  C   UNL     1       5.977   6.198  17.132  0.00  0.00    +0.000 A 
ATOM     10 CL   UNL     1       5.124   6.535  15.671  0.00  0.00    +0.000 Cl
ENDBRANCH   2   4
BRANCH   2  11
ATOM     11  C   UNL     1       2.750   5.775  18.118  0.00  0.00    +0.000 C 
ATOM     12  C   UNL     1       3.117   6.981  18.580  0.00  0.00    +0.000 C 
BRANCH  12  13
ATOM     13  C   UNL     1       2.173   8.086  18.762  0.00  0.00    +0.000 A 
ATOM     14  C   UNL     1       2.041   9.062  17.770  0.00  0.00    +0.000 A 
ATOM     15  C   UNL     1       1.185  10.144  17.972  0.00  0.00    +0.000 A 
ATOM     16  C   UNL     1       0.476  10.215  19.160  0.00  0.00    +0.000 A 
ATOM     17  N   UNL     1       0.564   9.291  20.139  0.00  0.00    +0.000 NA
ATOM     18  C   UNL     1       1.407   8.257  19.919  0.00  0.00    +0.000 A 
ATOM     19 CL   UNL     1       1.475   7.150  21.239  0.00  0.00    +0.000 Cl
ENDBRANCH  12  13
ENDBRANCH   2  11
TORSDOF 3
ENDMDL
