MODEL 1
REMARK VINA RESULT:      -7.7      0.000      0.000
REMARK  Name = 
REMARK  5 active torsions:
REMARK  status: ('A' for Active; 'I' for Inactive)
REMARK    1  A    between atoms: S_2  and  N_4
REMARK    2  A    between atoms: S_2  and  C_13
REMARK    3  A    between atoms: N_4  and  C_5
REMARK    4  A    between atoms: C_5  and  C_6
REMARK    5  A    between atoms: C_6  and  C_7
REMARK                            x       y       z     vdW  Elec       q    Type
REMARK                         _______ _______ _______ _____ _____    ______ ____
ROOT
ATOM      1  O   UNL     1       6.710   4.276  18.834  0.00  0.00    +0.000 OA
ATOM      2  S   UNL     1       5.537   4.338  17.990  0.00  0.00    +0.000 S 
ATOM      3  O   UNL     1       4.540   3.290  18.004  0.00  0.00    +0.000 OA
ENDROOT
BRANCH   2   4
ATOM      4  C   UNL     1       6.094   4.543  16.336  0.00  0.00    +0.000 A 
ATOM      5  C   UNL     1       7.197   5.347  16.108  0.00  0.00    +0.000 A 
ATOM      6  N   UNL     1       7.706   5.566  14.876  0.00  0.00    +0.000 NA
ATOM      7  C   UNL     1       7.103   4.929  13.841  0.00  0.00    +0.000 A 
ATOM      8 CL   UNL     1       7.874   5.243  12.336  0.00  0.00    +0.000 Cl
ATOM      9  C   UNL     1       5.991   4.102  13.982  0.00  0.00    +0.000 A 
ATOM     10 BR   UNL     1       5.158   3.221  12.528  0.00  0.00    +0.000 Br
ATOM     11  C   UNL     1       5.471   3.911  15.261  0.00  0.00    +0.000 A 
ENDBRANCH   2   4
BRANCH   2  12
ATOM     12  N   UNL     1       4.788   5.799  18.327  0.00  0.00    +0.000 NA
ATOM     13  H   UNL     1       5.442   6.586  18.346  0.00  0.00    +0.000 HD
BRANCH  12  14
ATOM     14  C   UNL     1       3.407   6.086  17.922  0.00  0.00    +0.000 C 
BRANCH  14  15
ATOM     15  C   UNL     1       2.460   6.316  19.099  0.00  0.00    +0.000 C 
BRANCH  15  16
ATOM     16  C   UNL     1       2.023   5.003  19.692  0.00  0.00    +0.000 A 
ATOM     17  C   UNL     1       2.351   4.689  21.018  0.00  0.00    +0.000 A 
ATOM     18  C   UNL     1       1.984   3.461  21.564  0.00  0.00    +0.000 A 
ATOM     19  C   UNL     1       1.290   2.536  20.788  0.00  0.00    +0.000 A 
ATOM     20  C   UNL     1       0.962   2.838  19.467  0.00  0.00    +0.000 A 
ATOM     21  C   UNL     1       1.327   4.066  18.918  0.00  0.00    +0.000 A 
ENDBRANCH  15  16
ENDBRANCH  14  15
ENDBRANCH  12  14
ENDBRANCH   2  12
TORSDOF 5
ENDMDL
MODEL 2
REMARK VINA RESULT:      -7.6      0.612      1.237
REMARK  Name = 
REMARK  5 active torsions:
REMARK  status: ('A' for Active; 'I' for Inactive)
REMARK    1  A    between atoms: S_2  and  N_4
REMARK    2  A    between atoms: S_2  and  C_13
REMARK    3  A    between atoms: N_4  and  C_5
REMARK    4  A    between atoms: C_5  and  C_6
REMARK    5  A    between atoms: C_6  and  C_7
REMARK                            x       y       z     vdW  Elec       q    Type
REMARK                         _______ _______ _______ _____ _____    ______ ____
ROOT
ATOM      1  O   UNL     1       5.788   4.262  18.780  0.00  0.00    +0.000 OA
ATOM      2  S   UNL     1       4.865   4.131  17.673  0.00  0.00    +0.000 S 
ATOM      3  O   UNL     1       4.094   2.924  17.472  0.00  0.00    +0.000 OA
ENDROOT
BRANCH   2   4
ATOM      4  C   UNL     1       5.766   4.459  16.201  0.00  0.00    +0.000 A 
ATOM      5  C   UNL     1       6.823   5.350  16.260  0.00  0.00    +0.000 A 
ATOM      6  N   UNL     1       7.580   5.668  15.187  0.00  0.00    +0.000 NA
ATOM      7  C   UNL     1       7.282   5.043  14.020  0.00  0.00    +0.000 A 
ATOM      8 CL   UNL     1       8.347   5.487  12.745  0.00  0.00    +0.000 Cl
ATOM      9  C   UNL     1       6.239   4.132  13.873  0.00  0.00    +0.000 A 
ATOM     10 BR   UNL     1       5.833   3.269  12.238  0.00  0.00    +0.000 Br
ATOM     11  C   UNL     1       5.458   3.839  14.990  0.00  0.00    +0.000 A 
ENDBRANCH   2   4
BRANCH   2  12
ATOM     12  N   UNL     1       3.813   5.432  17.778  0.00  0.00    +0.000 NA
ATOM     13  H   UNL     1       2.940   5.279  17.269  0.00  0.00    +0.000 HD
BRANCH  12  14
ATOM     14  C   UNL     1       3.756   6.303  18.958  0.00  0.00    +0.000 C 
BRANCH  14  15
ATOM     15  C   UNL     1       2.394   6.308  19.649  0.00  0.00    +0.000 C 
BRANCH  15  16
ATOM     16  C   UNL     1       2.029   4.921  20.112  0.00  0.00    +0.000 A 
ATOM     17  C   UNL     1       1.214   4.108  19.313  0.00  0.00    +0.000 A 
ATOM     18  C   UNL     1       0.840   2.839  19.750  0.00  0.00    +0.000 A 
ATOM     19  C   UNL     1       1.276   2.375  20.990  0.00  0.00    +0.000 A 
ATOM     20  C   UNL     1       2.085   3.179  21.792  0.00  0.00    +0.000 A 
ATOM     21  C   UNL     1       2.461   4.449  21.357  0.00  0.00    +0.000 A 
ENDBRANCH  15  16
ENDBRANCH  14  15
ENDBRANCH  12  14
ENDBRANCH   2  12
TORSDOF 5
ENDMDL
MODEL 3
REMARK VINA RESULT:      -7.4      3.741      4.612
REMARK  Name = 
REMARK  5 active torsions:
REMARK  status: ('A' for Active; 'I' for Inactive)
REMARK    1  A    between atoms: S_2  and  N_4
REMARK    2  A    between atoms: S_2  and  C_13
REMARK    3  A    between atoms: N_4  and  C_5
REMARK    4  A    between atoms: C_5  and  C_6
REMARK    5  A    between atoms: C_6  and  C_7
REMARK                            x       y       z     vdW  Elec       q    Type
REMARK                         _______ _______ _______ _____ _____    ______ ____
ROOT
ATOM      1  O   UNL     1       5.997   4.080  19.327  0.00  0.00    +0.000 OA
ATOM      2  S   UNL     1       5.888   4.692  18.020  0.00  0.00    +0.000 S 
ATOM      3  O   UNL     1       7.031   5.293  17.370  0.00  0.00    +0.000 OA
ENDROOT
BRANCH   2   4
ATOM      4  C   UNL     1       4.613   5.897  18.114  0.00  0.00    +0.000 A 
ATOM      5  C   UNL     1       4.473   6.791  17.067  0.00  0.00    +0.000 A 
ATOM      6  N   UNL     1       3.524   7.752  17.040  0.00  0.00    +0.000 NA
ATOM      7  C   UNL     1       2.665   7.795  18.090  0.00  0.00    +0.000 A 
ATOM      8 CL   UNL     1       1.473   9.021  17.914  0.00  0.00    +0.000 Cl
ATOM      9  C   UNL     1       2.732   6.933  19.182  0.00  0.00    +0.000 A 
ATOM     10 BR   UNL     1       1.529   7.005  20.641  0.00  0.00    +0.000 Br
ATOM     11  C   UNL     1       3.736   5.965  19.196  0.00  0.00    +0.000 A 
ENDBRANCH   2   4
BRANCH   2  12
ATOM     12  N   UNL     1       5.240   3.526  17.005  0.00  0.00    +0.000 NA
ATOM     13  H   UNL     1       5.910   2.791  16.764  0.00  0.00    +0.000 HD
BRANCH  12  14
ATOM     14  C   UNL     1       3.822   3.151  17.043  0.00  0.00    +0.000 C 
BRANCH  14  15
ATOM     15  C   UNL     1       3.531   1.948  17.938  0.00  0.00    +0.000 C 
BRANCH  15  16
ATOM     16  C   UNL     1       2.736   2.366  19.147  0.00  0.00    +0.000 A 
ATOM     17  C   UNL     1       1.424   2.835  18.996  0.00  0.00    +0.000 A 
ATOM     18  C   UNL     1       0.695   3.259  20.104  0.00  0.00    +0.000 A 
ATOM     19  C   UNL     1       1.272   3.221  21.372  0.00  0.00    +0.000 A 
ATOM     20  C   UNL     1       2.578   2.758  21.531  0.00  0.00    +0.000 A 
ATOM     21  C   UNL     1       3.310   2.332  20.424  0.00  0.00    +0.000 A 
ENDBRANCH  15  16
ENDBRANCH  14  15
ENDBRANCH  12  14
ENDBRANCH   2  12
TORSDOF 5
ENDMDL
MODEL 4
REMARK VINA RESULT:      -7.2      2.460      3.520
REMARK  Name = 
REMARK  5 active torsions:
REMARK  status: ('A' for Active; 'I' for Inactive)
REMARK    1  A    between atoms: S_2  and  N_4
REMARK    2  A    between atoms: S_2  and  C_13
REMARK    3  A    between atoms: N_4  and  C_5
REMARK    4  A    between atoms: C_5  and  C_6
REMARK    5  A    between atoms: C_6  and  C_7
REMARK                            x       y       z     vdW  Elec       q    Type
REMARK                         _______ _______ _______ _____ _____    ______ ____
ROOT
ATOM      1  O   UNL     1       5.225   1.541  20.341  0.00  0.00    +0.000 OA
ATOM      2  S   UNL     1       4.177   2.205  19.597  0.00  0.00    +0.000 S 
ATOM      3  O   UNL     1       3.371   1.494  18.630  0.00  0.00    +0.000 OA
ENDROOT
BRANCH   2   4
ATOM      4  C   UNL     1       4.904   3.589  18.794  0.00  0.00    +0.000 A 
ATOM      5  C   UNL     1       5.424   4.606  19.574  0.00  0.00    +0.000 A 
ATOM      6  N   UNL     1       6.006   5.709  19.056  0.00  0.00    +0.000 NA
ATOM      7  C   UNL     1       6.096   5.776  17.704  0.00  0.00    +0.000 A 
ATOM      8 CL   UNL     1       6.903   7.197  17.168  0.00  0.00    +0.000 Cl
ATOM      9  C   UNL     1       5.602   4.798  16.844  0.00  0.00    +0.000 A 
ATOM     10 BR   UNL     1       5.731   4.906  14.959  0.00  0.00    +0.000 Br
ATOM     11  C   UNL     1       4.984   3.680  17.405  0.00  0.00    +0.000 A 
ENDBRANCH   2   4
BRANCH   2  12
ATOM     12  N   UNL     1       3.164   2.908  20.732  0.00  0.00    +0.000 NA
ATOM     13  H   UNL     1       3.357   3.902  20.876  0.00  0.00    +0.000 HD
BRANCH  12  14
ATOM     14  C   UNL     1       1.782   2.459  20.937  0.00  0.00    +0.000 C 
BRANCH  14  15
ATOM     15  C   UNL     1       0.735   3.457  20.446  0.00  0.00    +0.000 C 
BRANCH  15  16
ATOM     16  C   UNL     1       1.394   4.615  19.745  0.00  0.00    +0.000 A 
ATOM     17  C   UNL     1       1.847   5.716  20.484  0.00  0.00    +0.000 A 
ATOM     18  C   UNL     1       2.424   6.809  19.841  0.00  0.00    +0.000 A 
ATOM     19  C   UNL     1       2.549   6.811  18.453  0.00  0.00    +0.000 A 
ATOM     20  C   UNL     1       2.099   5.721  17.709  0.00  0.00    +0.000 A 
ATOM     21  C   UNL     1       1.522   4.626  18.350  0.00  0.00    +0.000 A 
ENDBRANCH  15  16
ENDBRANCH  14  15
ENDBRANCH  12  14
ENDBRANCH   2  12
TORSDOF 5
ENDMDL
MODEL 5
REMARK VINA RESULT:      -7.2      2.506      3.701
REMARK  Name = 
REMARK  5 active torsions:
REMARK  status: ('A' for Active; 'I' for Inactive)
REMARK    1  A    between atoms: S_2  and  N_4
REMARK    2  A    between atoms: S_2  and  C_13
REMARK    3  A    between atoms: N_4  and  C_5
REMARK    4  A    between atoms: C_5  and  C_6
REMARK    5  A    between atoms: C_6  and  C_7
REMARK                            x       y       z     vdW  Elec       q    Type
REMARK                         _______ _______ _______ _____ _____    ______ ____
ROOT
ATOM      1  O   UNL     1       5.320   1.565  20.412  0.00  0.00    +0.000 OA
ATOM      2  S   UNL     1       4.281   2.094  19.556  0.00  0.00    +0.000 S 
ATOM      3  O   UNL     1       3.649   1.279  18.542  0.00  0.00    +0.000 OA
ENDROOT
BRANCH   2   4
ATOM      4  C   UNL     1       4.926   3.532  18.779  0.00  0.00    +0.000 A 
ATOM      5  C   UNL     1       5.364   4.573  19.579  0.00  0.00    +0.000 A 
ATOM      6  N   UNL     1       5.880   5.718  19.082  0.00  0.00    +0.000 NA
ATOM      7  C   UNL     1       5.988   5.807  17.733  0.00  0.00    +0.000 A 
ATOM      8 CL   UNL     1       6.707   7.284  17.226  0.00  0.00    +0.000 Cl
ATOM      9  C   UNL     1       5.574   4.807  16.855  0.00  0.00    +0.000 A 
ATOM     10 BR   UNL     1       5.728   4.946  14.973  0.00  0.00    +0.000 Br
ATOM     11  C   UNL     1       5.024   3.645  17.393  0.00  0.00    +0.000 A 
ENDBRANCH   2   4
BRANCH   2  12
ATOM     12  N   UNL     1       3.096   2.705  20.572  0.00  0.00    +0.000 NA
ATOM     13  H   UNL     1       3.341   3.617  20.965  0.00  0.00    +0.000 HD
BRANCH  12  14
ATOM     14  C   UNL     1       1.669   2.424  20.374  0.00  0.00    +0.000 C 
BRANCH  14  15
ATOM     15  C   UNL     1       0.778   3.657  20.510  0.00  0.00    +0.000 C 
BRANCH  15  16
ATOM     16  C   UNL     1       1.387   4.833  19.792  0.00  0.00    +0.000 A 
ATOM     17  C   UNL     1       1.596   4.778  18.408  0.00  0.00    +0.000 A 
ATOM     18  C   UNL     1       2.192   5.846  17.741  0.00  0.00    +0.000 A 
ATOM     19  C   UNL     1       2.588   6.976  18.454  0.00  0.00    +0.000 A 
ATOM     20  C   UNL     1       2.387   7.038  19.833  0.00  0.00    +0.000 A 
ATOM     21  C   UNL     1       1.790   5.971  20.502  0.00  0.00    +0.000 A 
ENDBRANCH  15  16
ENDBRANCH  14  15
ENDBRANCH  12  14
ENDBRANCH   2  12
TORSDOF 5
ENDMDL
MODEL 6
REMARK VINA RESULT:      -7.1      2.841      4.274
REMARK  Name = 
REMARK  5 active torsions:
REMARK  status: ('A' for Active; 'I' for Inactive)
REMARK    1  A    between atoms: S_2  and  N_4
REMARK    2  A    between atoms: S_2  and  C_13
REMARK    3  A    between atoms: N_4  and  C_5
REMARK    4  A    between atoms: C_5  and  C_6
REMARK    5  A    between atoms: C_6  and  C_7
REMARK                            x       y       z     vdW  Elec       q    Type
REMARK                         _______ _______ _______ _____ _____    ______ ____
ROOT
ATOM      1  O   UNL     1       2.650   1.399  18.758  0.00  0.00    +0.000 OA
ATOM      2  S   UNL     1       2.335   2.806  18.634  0.00  0.00    +0.000 S 
ATOM      3  O   UNL     1       1.336   3.277  17.700  0.00  0.00    +0.000 OA
ENDROOT
BRANCH   2   4
ATOM      4  C   UNL     1       3.840   3.649  18.299  0.00  0.00    +0.000 A 
ATOM      5  C   UNL     1       4.702   3.901  19.351  0.00  0.00    +0.000 A 
ATOM      6  N   UNL     1       5.884   4.538  19.199  0.00  0.00    +0.000 NA
ATOM      7  C   UNL     1       6.223   4.908  17.939  0.00  0.00    +0.000 A 
ATOM      8 CL   UNL     1       7.768   5.658  17.867  0.00  0.00    +0.000 Cl
ATOM      9  C   UNL     1       5.417   4.691  16.823  0.00  0.00    +0.000 A 
ATOM     10 BR   UNL     1       5.902   5.214  15.070  0.00  0.00    +0.000 Br
ATOM     11  C   UNL     1       4.192   4.052  17.011  0.00  0.00    +0.000 A 
ENDBRANCH   2   4
BRANCH   2  12
ATOM     12  N   UNL     1       1.931   3.337  20.171  0.00  0.00    +0.000 NA
ATOM     13  H   UNL     1       2.614   3.061  20.880  0.00  0.00    +0.000 HD
BRANCH  12  14
ATOM     14  C   UNL     1       1.195   4.586  20.402  0.00  0.00    +0.000 C 
BRANCH  14  15
ATOM     15  C   UNL     1       2.074   5.731  20.901  0.00  0.00    +0.000 C 
BRANCH  15  16
ATOM     16  C   UNL     1       1.963   6.922  19.986  0.00  0.00    +0.000 A 
ATOM     17  C   UNL     1       2.487   6.860  18.688  0.00  0.00    +0.000 A 
ATOM     18  C   UNL     1       2.423   7.970  17.848  0.00  0.00    +0.000 A 
ATOM     19  C   UNL     1       1.839   9.150  18.300  0.00  0.00    +0.000 A 
ATOM     20  C   UNL     1       1.317   9.222  19.591  0.00  0.00    +0.000 A 
ATOM     21  C   UNL     1       1.379   8.113  20.435  0.00  0.00    +0.000 A 
ENDBRANCH  15  16
ENDBRANCH  14  15
ENDBRANCH  12  14
ENDBRANCH   2  12
TORSDOF 5
ENDMDL
MODEL 7
REMARK VINA RESULT:      -7.1      5.158      7.432
REMARK  Name = 
REMARK  5 active torsions:
REMARK  status: ('A' for Active; 'I' for Inactive)
REMARK    1  A    between atoms: S_2  and  N_4
REMARK    2  A    between atoms: S_2  and  C_13
REMARK    3  A    between atoms: N_4  and  C_5
REMARK    4  A    between atoms: C_5  and  C_6
REMARK    5  A    between atoms: C_6  and  C_7
REMARK                            x       y       z     vdW  Elec       q    Type
REMARK                         _______ _______ _______ _____ _____    ______ ____
ROOT
ATOM      1  O   UNL     1       8.073   4.319  17.927  0.00  0.00    +0.000 OA
ATOM      2  S   UNL     1       7.369   5.322  18.696  0.00  0.00    +0.000 S 
ATOM      3  O   UNL     1       7.657   5.540  20.096  0.00  0.00    +0.000 OA
ENDROOT
BRANCH   2   4
ATOM      4  C   UNL     1       5.651   4.993  18.534  0.00  0.00    +0.000 A 
ATOM      5  C   UNL     1       4.970   5.552  17.467  0.00  0.00    +0.000 A 
ATOM      6  N   UNL     1       3.651   5.358  17.251  0.00  0.00    +0.000 NA
ATOM      7  C   UNL     1       3.000   4.546  18.122  0.00  0.00    +0.000 A 
ATOM      8 CL   UNL     1       1.344   4.333  17.711  0.00  0.00    +0.000 Cl
ATOM      9  C   UNL     1       3.608   3.941  19.220  0.00  0.00    +0.000 A 
ATOM     10 BR   UNL     1       2.687   2.812  20.429  0.00  0.00    +0.000 Br
ATOM     11  C   UNL     1       4.965   4.176  19.433  0.00  0.00    +0.000 A 
ENDBRANCH   2   4
BRANCH   2  12
ATOM     12  N   UNL     1       7.562   6.770  17.873  0.00  0.00    +0.000 NA
ATOM     13  H   UNL     1       6.791   6.968  17.231  0.00  0.00    +0.000 HD
BRANCH  12  14
ATOM     14  C   UNL     1       8.256   7.921  18.462  0.00  0.00    +0.000 C 
BRANCH  14  15
ATOM     15  C   UNL     1       8.142   9.195  17.627  0.00  0.00    +0.000 C 
BRANCH  15  16
ATOM     16  C   UNL     1       8.767  10.360  18.349  0.00  0.00    +0.000 A 
ATOM     17  C   UNL     1       9.337  10.175  19.616  0.00  0.00    +0.000 A 
ATOM     18  C   UNL     1       9.884  11.254  20.308  0.00  0.00    +0.000 A 
ATOM     19  C   UNL     1       9.861  12.526  19.740  0.00  0.00    +0.000 A 
ATOM     20  C   UNL     1       9.293  12.720  18.481  0.00  0.00    +0.000 A 
ATOM     21  C   UNL     1       8.746  11.642  17.786  0.00  0.00    +0.000 A 
ENDBRANCH  15  16
ENDBRANCH  14  15
ENDBRANCH  12  14
ENDBRANCH   2  12
TORSDOF 5
ENDMDL
MODEL 8
REMARK VINA RESULT:      -7.1      2.329      3.252
REMARK  Name = 
REMARK  5 active torsions:
REMARK  status: ('A' for Active; 'I' for Inactive)
REMARK    1  A    between atoms: S_2  and  N_4
REMARK    2  A    between atoms: S_2  and  C_13
REMARK    3  A    between atoms: N_4  and  C_5
REMARK    4  A    between atoms: C_5  and  C_6
REMARK    5  A    between atoms: C_6  and  C_7
REMARK                            x       y       z     vdW  Elec       q    Type
REMARK                         _______ _______ _______ _____ _____    ______ ____
ROOT
ATOM      1  O   UNL     1       5.595   4.060  18.924  0.00  0.00    +0.000 OA
ATOM      2  S   UNL     1       4.728   3.850  17.785  0.00  0.00    +0.000 S 
ATOM      3  O   UNL     1       4.093   2.573  17.545  0.00  0.00    +0.000 OA
ENDROOT
BRANCH   2   4
ATOM      4  C   UNL     1       5.639   4.288  16.348  0.00  0.00    +0.000 A 
ATOM      5  C   UNL     1       6.676   5.195  16.476  0.00  0.00    +0.000 A 
ATOM      6  N   UNL     1       7.439   5.595  15.435  0.00  0.00    +0.000 NA
ATOM      7  C   UNL     1       7.169   5.037  14.228  0.00  0.00    +0.000 A 
ATOM      8 CL   UNL     1       8.240   5.582  12.998  0.00  0.00    +0.000 Cl
ATOM      9  C   UNL     1       6.147   4.115  14.011  0.00  0.00    +0.000 A 
ATOM     10 BR   UNL     1       5.780   3.347  12.320  0.00  0.00    +0.000 Br
ATOM     11  C   UNL     1       5.360   3.738  15.097  0.00  0.00    +0.000 A 
ENDBRANCH   2   4
BRANCH   2  12
ATOM     12  N   UNL     1       3.545   5.034  17.865  0.00  0.00    +0.000 NA
ATOM     13  H   UNL     1       2.601   4.649  17.951  0.00  0.00    +0.000 HD
BRANCH  12  14
ATOM     14  C   UNL     1       3.789   6.348  18.472  0.00  0.00    +0.000 C 
BRANCH  14  15
ATOM     15  C   UNL     1       3.171   7.506  17.691  0.00  0.00    +0.000 C 
BRANCH  15  16
ATOM     16  C   UNL     1       2.166   8.242  18.539  0.00  0.00    +0.000 A 
ATOM     17  C   UNL     1       1.435   9.306  17.995  0.00  0.00    +0.000 A 
ATOM     18  C   UNL     1       0.530  10.016  18.781  0.00  0.00    +0.000 A 
ATOM     19  C   UNL     1       0.354   9.670  20.119  0.00  0.00    +0.000 A 
ATOM     20  C   UNL     1       1.079   8.615  20.670  0.00  0.00    +0.000 A 
ATOM     21  C   UNL     1       1.985   7.902  19.885  0.00  0.00    +0.000 A 
ENDBRANCH  15  16
ENDBRANCH  14  15
ENDBRANCH  12  14
ENDBRANCH   2  12
TORSDOF 5
ENDMDL
MODEL 9
REMARK VINA RESULT:      -7.1      4.021      5.081
REMARK  Name = 
REMARK  5 active torsions:
REMARK  status: ('A' for Active; 'I' for Inactive)
REMARK    1  A    between atoms: S_2  and  N_4
REMARK    2  A    between atoms: S_2  and  C_13
REMARK    3  A    between atoms: N_4  and  C_5
REMARK    4  A    between atoms: C_5  and  C_6
REMARK    5  A    between atoms: C_6  and  C_7
REMARK                            x       y       z     vdW  Elec       q    Type
REMARK                         _______ _______ _______ _____ _____    ______ ____
ROOT
ATOM      1  O   UNL     1       6.633   5.768  17.790  0.00  0.00    +0.000 OA
ATOM      2  S   UNL     1       5.365   5.418  17.187  0.00  0.00    +0.000 S 
ATOM      3  O   UNL     1       5.093   5.683  15.792  0.00  0.00    +0.000 OA
ENDROOT
BRANCH   2   4
ATOM      4  C   UNL     1       4.104   6.177  18.147  0.00  0.00    +0.000 A 
ATOM      5  C   UNL     1       3.839   5.671  19.407  0.00  0.00    +0.000 A 
ATOM      6  N   UNL     1       2.894   6.185  20.224  0.00  0.00    +0.000 NA
ATOM      7  C   UNL     1       2.213   7.266  19.769  0.00  0.00    +0.000 A 
ATOM      8 CL   UNL     1       1.079   7.860  20.917  0.00  0.00    +0.000 Cl
ATOM      9  C   UNL     1       2.417   7.841  18.516  0.00  0.00    +0.000 A 
ATOM     10 BR   UNL     1       1.457   9.348  17.893  0.00  0.00    +0.000 Br
ATOM     11  C   UNL     1       3.382   7.277  17.683  0.00  0.00    +0.000 A 
ENDBRANCH   2   4
BRANCH   2  12
ATOM     12  N   UNL     1       5.138   3.783  17.480  0.00  0.00    +0.000 NA
ATOM     13  H   UNL     1       5.582   3.469  18.346  0.00  0.00    +0.000 HD
BRANCH  12  14
ATOM     14  C   UNL     1       3.931   3.068  17.050  0.00  0.00    +0.000 C 
BRANCH  14  15
ATOM     15  C   UNL     1       3.593   1.859  17.920  0.00  0.00    +0.000 C 
BRANCH  15  16
ATOM     16  C   UNL     1       2.798   2.280  19.128  0.00  0.00    +0.000 A 
ATOM     17  C   UNL     1       1.474   2.714  18.980  0.00  0.00    +0.000 A 
ATOM     18  C   UNL     1       0.743   3.141  20.086  0.00  0.00    +0.000 A 
ATOM     19  C   UNL     1       1.332   3.142  21.349  0.00  0.00    +0.000 A 
ATOM     20  C   UNL     1       2.650   2.714  21.506  0.00  0.00    +0.000 A 
ATOM     21  C   UNL     1       3.384   2.286  20.400  0.00  0.00    +0.000 A 
ENDBRANCH  15  16
ENDBRANCH  14  15
ENDBRANCH  12  14
ENDBRANCH   2  12
TORSDOF 5
ENDMDL
