MODEL 1
REMARK VINA RESULT:      -6.3      0.000      0.000
REMARK  Name = 
REMARK  8 active torsions:
REMARK  status: ('A' for Active; 'I' for Inactive)
REMARK    1  A    between atoms: C_1  and  N_2
REMARK    2  A    between atoms: N_2  and  C_3
REMARK    3  A    between atoms: N_2  and  C_4
REMARK    4  A    between atoms: C_4  and  C_5
REMARK    5  A    between atoms: C_8  and  C_9
REMARK    6  A    between atoms: C_8  and  C_17
REMARK    7  A    between atoms: C_9  and  C_11
REMARK    8  A    between atoms: C_17  and  C_19
REMARK                            x       y       z     vdW  Elec       q    Type
REMARK                         _______ _______ _______ _____ _____    ______ ____
ROOT
ATOM      1  C   UNL     1       7.770   7.611  17.748  0.00  0.00    +0.000 C 
ATOM      2  C   UNL     1       6.273   7.858  17.486  0.00  0.00    +0.000 C 
ATOM      3  S   UNL     1       5.323   6.624  16.563  0.00  0.00    +0.000 S 
ATOM      4  C   UNL     1       5.661   5.056  17.536  0.00  0.00    +0.000 C 
ATOM      5  S   UNL     1       7.494   4.808  17.387  0.00  0.00    +0.000 S 
ATOM      6  C   UNL     1       8.076   6.243  18.363  0.00  0.00    +0.000 C 
ENDROOT
BRANCH   4   7
ATOM      7  C   UNL     1       4.862   3.952  16.784  0.00  0.00    +0.000 C 
ATOM      8  O   UNL     1       5.208   3.492  15.693  0.00  0.00    +0.000 OA
BRANCH   7   9
ATOM      9  C   UNL     1       3.577   3.404  17.362  0.00  0.00    +0.000 A 
ATOM     10  C   UNL     1       3.665   2.231  18.129  0.00  0.00    +0.000 A 
ATOM     11  C   UNL     1       2.529   1.675  18.725  0.00  0.00    +0.000 A 
ATOM     12  C   UNL     1       1.290   2.291  18.577  0.00  0.00    +0.000 A 
ATOM     13  C   UNL     1       1.188   3.458  17.828  0.00  0.00    +0.000 A 
ATOM     14  C   UNL     1       2.322   4.008  17.219  0.00  0.00    +0.000 A 
ENDBRANCH   7   9
ENDBRANCH   4   7
BRANCH   4  15
ATOM     15  C   UNL     1       5.314   5.163  19.030  0.00  0.00    +0.000 C 
ATOM     16  O   UNL     1       6.106   4.848  19.922  0.00  0.00    +0.000 OA
BRANCH  15  17
ATOM     17  C   UNL     1       3.957   5.638  19.499  0.00  0.00    +0.000 A 
ATOM     18  C   UNL     1       3.311   4.837  20.455  0.00  0.00    +0.000 A 
ATOM     19  C   UNL     1       2.063   5.197  20.967  0.00  0.00    +0.000 A 
ATOM     20  C   UNL     1       1.452   6.371  20.539  0.00  0.00    +0.000 A 
ATOM     21  C   UNL     1       2.089   7.179  19.602  0.00  0.00    +0.000 A 
ATOM     22  C   UNL     1       3.334   6.814  19.075  0.00  0.00    +0.000 A 
ENDBRANCH  15  17
ENDBRANCH   4  15
BRANCH   1  23
ATOM     23  C   UNL     1       8.237   8.797  18.654  0.00  0.00    +0.000 C 
BRANCH  23  25
ATOM     24  C   UNL     1       8.026  10.988  17.586  0.00  0.00    +0.000 C 
ATOM     25  N   UNL     1       8.941   9.947  18.055  0.00  0.00    +0.000 NA
ATOM     26  C   UNL     1       9.849  10.534  19.061  0.00  0.00    +0.000 C 
ENDBRANCH  23  25
ENDBRANCH   1  23
TORSDOF 6
ENDMDL
MODEL 2
REMARK VINA RESULT:      -6.3      6.897      8.628
REMARK  Name = 
REMARK  8 active torsions:
REMARK  status: ('A' for Active; 'I' for Inactive)
REMARK    1  A    between atoms: C_1  and  N_2
REMARK    2  A    between atoms: N_2  and  C_3
REMARK    3  A    between atoms: N_2  and  C_4
REMARK    4  A    between atoms: C_4  and  C_5
REMARK    5  A    between atoms: C_8  and  C_9
REMARK    6  A    between atoms: C_8  and  C_17
REMARK    7  A    between atoms: C_9  and  C_11
REMARK    8  A    between atoms: C_17  and  C_19
REMARK                            x       y       z     vdW  Elec       q    Type
REMARK                         _______ _______ _______ _____ _____    ______ ____
ROOT
ATOM      1  C   UNL     1       1.548  15.204  18.516  0.00  0.00    +0.000 C 
ATOM      2  C   UNL     1       0.079  14.920  18.876  0.00  0.00    +0.000 C 
ATOM      3  S   UNL     1      -0.630  13.301  18.482  0.00  0.00    +0.000 S 
ATOM      4  C   UNL     1       0.579  12.129  19.308  0.00  0.00    +0.000 C 
ATOM      5  S   UNL     1       2.189  12.439  18.437  0.00  0.00    +0.000 S 
ATOM      6  C   UNL     1       2.528  14.141  19.020  0.00  0.00    +0.000 C 
ENDROOT
BRANCH   4   7
ATOM      7  C   UNL     1       0.016  10.711  19.002  0.00  0.00    +0.000 C 
ATOM      8  O   UNL     1      -1.166  10.499  18.719  0.00  0.00    +0.000 OA
BRANCH   7   9
ATOM      9  C   UNL     1       0.913   9.496  19.071  0.00  0.00    +0.000 A 
ATOM     10  C   UNL     1       1.045   8.862  20.318  0.00  0.00    +0.000 A 
ATOM     11  C   UNL     1       1.832   7.715  20.461  0.00  0.00    +0.000 A 
ATOM     12  C   UNL     1       2.485   7.174  19.359  0.00  0.00    +0.000 A 
ATOM     13  C   UNL     1       2.357   7.784  18.116  0.00  0.00    +0.000 A 
ATOM     14  C   UNL     1       1.582   8.941  17.974  0.00  0.00    +0.000 A 
ENDBRANCH   7   9
ENDBRANCH   4   7
BRANCH   4  15
ATOM     15  C   UNL     1       0.788  12.404  20.807  0.00  0.00    +0.000 C 
ATOM     16  O   UNL     1       1.907  12.500  21.317  0.00  0.00    +0.000 OA
BRANCH  15  17
ATOM     17  C   UNL     1      -0.379  12.543  21.759  0.00  0.00    +0.000 A 
ATOM     18  C   UNL     1      -0.828  13.850  22.008  0.00  0.00    +0.000 A 
ATOM     19  C   UNL     1      -1.911  14.086  22.858  0.00  0.00    +0.000 A 
ATOM     20  C   UNL     1      -2.567  13.015  23.457  0.00  0.00    +0.000 A 
ATOM     21  C   UNL     1      -2.138  11.716  23.206  0.00  0.00    +0.000 A 
ATOM     22  C   UNL     1      -1.042  11.476  22.367  0.00  0.00    +0.000 A 
ENDBRANCH  15  17
ENDBRANCH   4  15
BRANCH   1  23
ATOM     23  C   UNL     1       1.853  16.625  19.094  0.00  0.00    +0.000 C 
BRANCH  23  25
ATOM     24  C   UNL     1       2.791  17.291  16.934  0.00  0.00    +0.000 C 
ATOM     25  N   UNL     1       2.164  17.739  18.179  0.00  0.00    +0.000 NA
ATOM     26  C   UNL     1       0.916  18.454  17.848  0.00  0.00    +0.000 C 
ENDBRANCH  23  25
ENDBRANCH   1  23
TORSDOF 6
ENDMDL
MODEL 3
REMARK VINA RESULT:      -6.1      2.960      5.028
REMARK  Name = 
REMARK  8 active torsions:
REMARK  status: ('A' for Active; 'I' for Inactive)
REMARK    1  A    between atoms: C_1  and  N_2
REMARK    2  A    between atoms: N_2  and  C_3
REMARK    3  A    between atoms: N_2  and  C_4
REMARK    4  A    between atoms: C_4  and  C_5
REMARK    5  A    between atoms: C_8  and  C_9
REMARK    6  A    between atoms: C_8  and  C_17
REMARK    7  A    between atoms: C_9  and  C_11
REMARK    8  A    between atoms: C_17  and  C_19
REMARK                            x       y       z     vdW  Elec       q    Type
REMARK                         _______ _______ _______ _____ _____    ______ ____
ROOT
ATOM      1  C   UNL     1       6.730   5.393  14.519  0.00  0.00    +0.000 C 
ATOM      2  C   UNL     1       7.421   4.396  15.466  0.00  0.00    +0.000 C 
ATOM      3  S   UNL     1       7.325   4.666  17.254  0.00  0.00    +0.000 S 
ATOM      4  C   UNL     1       5.476   4.801  17.535  0.00  0.00    +0.000 C 
ATOM      5  S   UNL     1       4.970   6.295  16.556  0.00  0.00    +0.000 S 
ATOM      6  C   UNL     1       5.263   5.663  14.863  0.00  0.00    +0.000 C 
ENDROOT
BRANCH   4   7
ATOM      7  C   UNL     1       5.332   5.034  19.067  0.00  0.00    +0.000 C 
ATOM      8  O   UNL     1       6.260   4.881  19.865  0.00  0.00    +0.000 OA
BRANCH   7   9
ATOM      9  C   UNL     1       4.002   5.440  19.661  0.00  0.00    +0.000 A 
ATOM     10  C   UNL     1       3.427   6.635  19.198  0.00  0.00    +0.000 A 
ATOM     11  C   UNL     1       2.185   7.066  19.673  0.00  0.00    +0.000 A 
ATOM     12  C   UNL     1       1.491   6.303  20.607  0.00  0.00    +0.000 A 
ATOM     13  C   UNL     1       2.042   5.113  21.068  0.00  0.00    +0.000 A 
ATOM     14  C   UNL     1       3.292   4.687  20.604  0.00  0.00    +0.000 A 
ENDBRANCH   7   9
ENDBRANCH   4   7
BRANCH   4  15
ATOM     15  C   UNL     1       4.677   3.596  17.013  0.00  0.00    +0.000 C 
ATOM     16  O   UNL     1       5.090   2.861  16.112  0.00  0.00    +0.000 OA
BRANCH  15  17
ATOM     17  C   UNL     1       3.308   3.253  17.558  0.00  0.00    +0.000 A 
ATOM     18  C   UNL     1       3.227   2.106  18.365  0.00  0.00    +0.000 A 
ATOM     19  C   UNL     1       2.013   1.714  18.933  0.00  0.00    +0.000 A 
ATOM     20  C   UNL     1       0.868   2.473  18.713  0.00  0.00    +0.000 A 
ATOM     21  C   UNL     1       0.941   3.619  17.927  0.00  0.00    +0.000 A 
ATOM     22  C   UNL     1       2.153   4.007  17.343  0.00  0.00    +0.000 A 
ENDBRANCH  15  17
ENDBRANCH   4  15
BRANCH   1  23
ATOM     23  C   UNL     1       6.911   4.799  13.083  0.00  0.00    +0.000 C 
BRANCH  23  25
ATOM     24  C   UNL     1       4.967   3.572  12.247  0.00  0.00    +0.000 C 
ATOM     25  N   UNL     1       6.336   3.481  12.754  0.00  0.00    +0.000 NA
ATOM     26  C   UNL     1       7.177   2.830  11.730  0.00  0.00    +0.000 C 
ENDBRANCH  23  25
ENDBRANCH   1  23
TORSDOF 6
ENDMDL
MODEL 4
REMARK VINA RESULT:      -6.1      7.804     10.855
REMARK  Name = 
REMARK  8 active torsions:
REMARK  status: ('A' for Active; 'I' for Inactive)
REMARK    1  A    between atoms: C_1  and  N_2
REMARK    2  A    between atoms: N_2  and  C_3
REMARK    3  A    between atoms: N_2  and  C_4
REMARK    4  A    between atoms: C_4  and  C_5
REMARK    5  A    between atoms: C_8  and  C_9
REMARK    6  A    between atoms: C_8  and  C_17
REMARK    7  A    between atoms: C_9  and  C_11
REMARK    8  A    between atoms: C_17  and  C_19
REMARK                            x       y       z     vdW  Elec       q    Type
REMARK                         _______ _______ _______ _____ _____    ______ ____
ROOT
ATOM      1  C   UNL     1      -1.401  11.140  18.124  0.00  0.00    +0.000 C 
ATOM      2  C   UNL     1      -0.096  10.411  18.494  0.00  0.00    +0.000 C 
ATOM      3  S   UNL     1       1.405  11.382  18.785  0.00  0.00    +0.000 S 
ATOM      4  C   UNL     1       0.839  12.604  20.090  0.00  0.00    +0.000 C 
ATOM      5  S   UNL     1      -0.498  13.584  19.254  0.00  0.00    +0.000 S 
ATOM      6  C   UNL     1      -1.769  12.278  19.080  0.00  0.00    +0.000 C 
ENDROOT
BRANCH   4   7
ATOM      7  C   UNL     1       2.097  13.470  20.383  0.00  0.00    +0.000 C 
ATOM      8  O   UNL     1       2.795  13.330  21.391  0.00  0.00    +0.000 OA
BRANCH   7   9
ATOM      9  C   UNL     1       2.511  14.571  19.434  0.00  0.00    +0.000 A 
ATOM     10  C   UNL     1       2.186  15.889  19.794  0.00  0.00    +0.000 A 
ATOM     11  C   UNL     1       2.558  16.968  18.987  0.00  0.00    +0.000 A 
ATOM     12  C   UNL     1       3.277  16.749  17.816  0.00  0.00    +0.000 A 
ATOM     13  C   UNL     1       3.616  15.451  17.450  0.00  0.00    +0.000 A 
ATOM     14  C   UNL     1       3.230  14.369  18.250  0.00  0.00    +0.000 A 
ENDBRANCH   7   9
ENDBRANCH   4   7
BRANCH   4  15
ATOM     15  C   UNL     1       0.235  11.944  21.341  0.00  0.00    +0.000 C 
ATOM     16  O   UNL     1       0.501  10.788  21.678  0.00  0.00    +0.000 OA
BRANCH  15  17
ATOM     17  C   UNL     1      -0.754  12.671  22.224  0.00  0.00    +0.000 A 
ATOM     18  C   UNL     1      -1.914  11.962  22.578  0.00  0.00    +0.000 A 
ATOM     19  C   UNL     1      -2.881  12.537  23.405  0.00  0.00    +0.000 A 
ATOM     20  C   UNL     1      -2.693  13.824  23.900  0.00  0.00    +0.000 A 
ATOM     21  C   UNL     1      -1.541  14.530  23.566  0.00  0.00    +0.000 A 
ATOM     22  C   UNL     1      -0.576  13.962  22.724  0.00  0.00    +0.000 A 
ENDBRANCH  15  17
ENDBRANCH   4  15
BRANCH   1  23
ATOM     23  C   UNL     1      -2.498  10.027  18.063  0.00  0.00    +0.000 C 
BRANCH  23  25
ATOM     24  C   UNL     1      -4.444  11.072  17.008  0.00  0.00    +0.000 C 
ATOM     25  N   UNL     1      -3.453   9.998  16.938  0.00  0.00    +0.000 NA
ATOM     26  C   UNL     1      -2.707  10.125  15.670  0.00  0.00    +0.000 C 
ENDBRANCH  23  25
ENDBRANCH   1  23
TORSDOF 6
ENDMDL
MODEL 5
REMARK VINA RESULT:      -6.0      7.186      8.876
REMARK  Name = 
REMARK  8 active torsions:
REMARK  status: ('A' for Active; 'I' for Inactive)
REMARK    1  A    between atoms: C_1  and  N_2
REMARK    2  A    between atoms: N_2  and  C_3
REMARK    3  A    between atoms: N_2  and  C_4
REMARK    4  A    between atoms: C_4  and  C_5
REMARK    5  A    between atoms: C_8  and  C_9
REMARK    6  A    between atoms: C_8  and  C_17
REMARK    7  A    between atoms: C_9  and  C_11
REMARK    8  A    between atoms: C_17  and  C_19
REMARK                            x       y       z     vdW  Elec       q    Type
REMARK                         _______ _______ _______ _____ _____    ______ ____
ROOT
ATOM      1  C   UNL     1       1.546  15.537  18.713  0.00  0.00    +0.000 C 
ATOM      2  C   UNL     1       0.087  15.246  19.108  0.00  0.00    +0.000 C 
ATOM      3  S   UNL     1      -0.664  13.673  18.618  0.00  0.00    +0.000 S 
ATOM      4  C   UNL     1       0.556  12.423  19.302  0.00  0.00    +0.000 C 
ATOM      5  S   UNL     1       2.136  12.777  18.394  0.00  0.00    +0.000 S 
ATOM      6  C   UNL     1       2.526  14.424  19.093  0.00  0.00    +0.000 C 
ENDROOT
BRANCH   4   7
ATOM      7  C   UNL     1      -0.043  11.041  18.910  0.00  0.00    +0.000 C 
ATOM      8  O   UNL     1      -1.189  10.899  18.477  0.00  0.00    +0.000 OA
BRANCH   7   9
ATOM      9  C   UNL     1       0.769   9.777  19.075  0.00  0.00    +0.000 A 
ATOM     10  C   UNL     1       1.426   9.280  17.937  0.00  0.00    +0.000 A 
ATOM     11  C   UNL     1       2.222   8.132  18.011  0.00  0.00    +0.000 A 
ATOM     12  C   UNL     1       2.387   7.474  19.226  0.00  0.00    +0.000 A 
ATOM     13  C   UNL     1       1.751   7.958  20.363  0.00  0.00    +0.000 A 
ATOM     14  C   UNL     1       0.942   9.098  20.287  0.00  0.00    +0.000 A 
ENDBRANCH   7   9
ENDBRANCH   4   7
BRANCH   4  15
ATOM     15  C   UNL     1       0.827  12.577  20.808  0.00  0.00    +0.000 C 
ATOM     16  O   UNL     1       1.947  12.423  21.302  0.00  0.00    +0.000 OA
BRANCH  15  17
ATOM     17  C   UNL     1      -0.281  12.898  21.786  0.00  0.00    +0.000 A 
ATOM     18  C   UNL     1      -1.214  11.877  22.030  0.00  0.00    +0.000 A 
ATOM     19  C   UNL     1      -2.264  12.067  22.931  0.00  0.00    +0.000 A 
ATOM     20  C   UNL     1      -2.385  13.275  23.609  0.00  0.00    +0.000 A 
ATOM     21  C   UNL     1      -1.458  14.289  23.384  0.00  0.00    +0.000 A 
ATOM     22  C   UNL     1      -0.413  14.108  22.470  0.00  0.00    +0.000 A 
ENDBRANCH  15  17
ENDBRANCH   4  15
BRANCH   1  23
ATOM     23  C   UNL     1       1.897  16.903  19.387  0.00  0.00    +0.000 C 
BRANCH  23  25
ATOM     24  C   UNL     1       2.319  17.088  21.790  0.00  0.00    +0.000 C 
ATOM     25  N   UNL     1       1.340  17.235  20.712  0.00  0.00    +0.000 NA
ATOM     26  C   UNL     1       0.858  18.630  20.697  0.00  0.00    +0.000 C 
ENDBRANCH  23  25
ENDBRANCH   1  23
TORSDOF 6
ENDMDL
MODEL 6
REMARK VINA RESULT:      -5.9      7.406      9.421
REMARK  Name = 
REMARK  8 active torsions:
REMARK  status: ('A' for Active; 'I' for Inactive)
REMARK    1  A    between atoms: C_1  and  N_2
REMARK    2  A    between atoms: N_2  and  C_3
REMARK    3  A    between atoms: N_2  and  C_4
REMARK    4  A    between atoms: C_4  and  C_5
REMARK    5  A    between atoms: C_8  and  C_9
REMARK    6  A    between atoms: C_8  and  C_17
REMARK    7  A    between atoms: C_9  and  C_11
REMARK    8  A    between atoms: C_17  and  C_19
REMARK                            x       y       z     vdW  Elec       q    Type
REMARK                         _______ _______ _______ _____ _____    ______ ____
ROOT
ATOM      1  C   UNL     1       1.257  15.632  19.263  0.00  0.00    +0.000 C 
ATOM      2  C   UNL     1       0.228  15.898  20.376  0.00  0.00    +0.000 C 
ATOM      3  S   UNL     1      -1.407  15.126  20.270  0.00  0.00    +0.000 S 
ATOM      4  C   UNL     1      -0.975  13.312  20.071  0.00  0.00    +0.000 C 
ATOM      5  S   UNL     1      -0.040  13.233  18.470  0.00  0.00    +0.000 S 
ATOM      6  C   UNL     1       1.470  14.148  18.954  0.00  0.00    +0.000 C 
ENDROOT
BRANCH   4   7
ATOM      7  C   UNL     1      -2.352  12.593  19.976  0.00  0.00    +0.000 C 
ATOM      8  O   UNL     1      -3.240  12.717  20.823  0.00  0.00    +0.000 OA
BRANCH   7   9
ATOM      9  C   UNL     1      -2.655  11.662  18.824  0.00  0.00    +0.000 A 
ATOM     10  C   UNL     1      -3.820  11.916  18.080  0.00  0.00    +0.000 A 
ATOM     11  C   UNL     1      -4.158  11.121  16.980  0.00  0.00    +0.000 A 
ATOM     12  C   UNL     1      -3.329  10.072  16.596  0.00  0.00    +0.000 A 
ATOM     13  C   UNL     1      -2.168   9.813  17.316  0.00  0.00    +0.000 A 
ATOM     14  C   UNL     1      -1.836  10.599  18.426  0.00  0.00    +0.000 A 
ENDBRANCH   7   9
ENDBRANCH   4   7
BRANCH   4  15
ATOM     15  C   UNL     1      -0.065  12.762  21.182  0.00  0.00    +0.000 C 
ATOM     16  O   UNL     1       0.660  13.487  21.869  0.00  0.00    +0.000 OA
BRANCH  15  17
ATOM     17  C   UNL     1       0.019  11.283  21.482  0.00  0.00    +0.000 A 
ATOM     18  C   UNL     1       0.834  10.518  20.631  0.00  0.00    +0.000 A 
ATOM     19  C   UNL     1       0.993   9.146  20.834  0.00  0.00    +0.000 A 
ATOM     20  C   UNL     1       0.351   8.524  21.899  0.00  0.00    +0.000 A 
ATOM     21  C   UNL     1      -0.449   9.274  22.756  0.00  0.00    +0.000 A 
ATOM     22  C   UNL     1      -0.624  10.648  22.547  0.00  0.00    +0.000 A 
ENDBRANCH  15  17
ENDBRANCH   4  15
BRANCH   1  23
ATOM     23  C   UNL     1       2.569  16.345  19.727  0.00  0.00    +0.000 C 
BRANCH  23  25
ATOM     24  C   UNL     1       4.754  16.607  18.656  0.00  0.00    +0.000 C 
ATOM     25  N   UNL     1       3.380  17.101  18.753  0.00  0.00    +0.000 NA
ATOM     26  C   UNL     1       2.748  17.004  17.422  0.00  0.00    +0.000 C 
ENDBRANCH  23  25
ENDBRANCH   1  23
TORSDOF 6
ENDMDL
MODEL 7
REMARK VINA RESULT:      -5.9      7.918      9.194
REMARK  Name = 
REMARK  8 active torsions:
REMARK  status: ('A' for Active; 'I' for Inactive)
REMARK    1  A    between atoms: C_1  and  N_2
REMARK    2  A    between atoms: N_2  and  C_3
REMARK    3  A    between atoms: N_2  and  C_4
REMARK    4  A    between atoms: C_4  and  C_5
REMARK    5  A    between atoms: C_8  and  C_9
REMARK    6  A    between atoms: C_8  and  C_17
REMARK    7  A    between atoms: C_9  and  C_11
REMARK    8  A    between atoms: C_17  and  C_19
REMARK                            x       y       z     vdW  Elec       q    Type
REMARK                         _______ _______ _______ _____ _____    ______ ____
ROOT
ATOM      1  C   UNL     1       1.793  14.815  18.760  0.00  0.00    +0.000 C 
ATOM      2  C   UNL     1       0.307  14.865  19.156  0.00  0.00    +0.000 C 
ATOM      3  S   UNL     1      -0.771  13.477  18.718  0.00  0.00    +0.000 S 
ATOM      4  C   UNL     1       0.148  12.016  19.454  0.00  0.00    +0.000 C 
ATOM      5  S   UNL     1       1.765  11.983  18.544  0.00  0.00    +0.000 S 
ATOM      6  C   UNL     1       2.507  13.529  19.185  0.00  0.00    +0.000 C 
ENDROOT
BRANCH   4   7
ATOM      7  C   UNL     1      -0.739  10.785  19.108  0.00  0.00    +0.000 C 
ATOM      8  O   UNL     1      -0.507   9.647  19.523  0.00  0.00    +0.000 OA
BRANCH   7   9
ATOM      9  C   UNL     1      -1.937  10.932  18.198  0.00  0.00    +0.000 A 
ATOM     10  C   UNL     1      -1.826  10.414  16.897  0.00  0.00    +0.000 A 
ATOM     11  C   UNL     1      -2.899  10.482  16.003  0.00  0.00    +0.000 A 
ATOM     12  C   UNL     1      -4.105  11.052  16.400  0.00  0.00    +0.000 A 
ATOM     13  C   UNL     1      -4.234  11.560  17.688  0.00  0.00    +0.000 A 
ATOM     14  C   UNL     1      -3.156  11.506  18.579  0.00  0.00    +0.000 A 
ENDBRANCH   7   9
ENDBRANCH   4   7
BRANCH   4  15
ATOM     15  C   UNL     1       0.449  12.161  20.955  0.00  0.00    +0.000 C 
ATOM     16  O   UNL     1       1.522  11.817  21.456  0.00  0.00    +0.000 OA
BRANCH  15  17
ATOM     17  C   UNL     1      -0.575  12.714  21.920  0.00  0.00    +0.000 A 
ATOM     18  C   UNL     1      -1.666  11.880  22.218  0.00  0.00    +0.000 A 
ATOM     19  C   UNL     1      -2.657  12.289  23.113  0.00  0.00    +0.000 A 
ATOM     20  C   UNL     1      -2.562  13.531  23.732  0.00  0.00    +0.000 A 
ATOM     21  C   UNL     1      -1.479  14.359  23.454  0.00  0.00    +0.000 A 
ATOM     22  C   UNL     1      -0.491  13.959  22.545  0.00  0.00    +0.000 A 
ENDBRANCH  15  17
ENDBRANCH   4  15
BRANCH   1  23
ATOM     23  C   UNL     1       2.436  16.095  19.386  0.00  0.00    +0.000 C 
BRANCH  23  25
ATOM     24  C   UNL     1       4.730  16.643  18.731  0.00  0.00    +0.000 C 
ATOM     25  N   UNL     1       3.310  16.956  18.565  0.00  0.00    +0.000 NA
ATOM     26  C   UNL     1       2.952  16.789  17.143  0.00  0.00    +0.000 C 
ENDBRANCH  23  25
ENDBRANCH   1  23
TORSDOF 6
ENDMDL
MODEL 8
REMARK VINA RESULT:      -5.9      7.356      9.280
REMARK  Name = 
REMARK  8 active torsions:
REMARK  status: ('A' for Active; 'I' for Inactive)
REMARK    1  A    between atoms: C_1  and  N_2
REMARK    2  A    between atoms: N_2  and  C_3
REMARK    3  A    between atoms: N_2  and  C_4
REMARK    4  A    between atoms: C_4  and  C_5
REMARK    5  A    between atoms: C_8  and  C_9
REMARK    6  A    between atoms: C_8  and  C_17
REMARK    7  A    between atoms: C_9  and  C_11
REMARK    8  A    between atoms: C_17  and  C_19
REMARK                            x       y       z     vdW  Elec       q    Type
REMARK                         _______ _______ _______ _____ _____    ______ ____
ROOT
ATOM      1  C   UNL     1       1.418  15.481  19.222  0.00  0.00    +0.000 C 
ATOM      2  C   UNL     1       0.395  15.812  20.324  0.00  0.00    +0.000 C 
ATOM      3  S   UNL     1      -1.271  15.111  20.221  0.00  0.00    +0.000 S 
ATOM      4  C   UNL     1      -0.918  13.276  20.059  0.00  0.00    +0.000 C 
ATOM      5  S   UNL     1       0.022  13.126  18.466  0.00  0.00    +0.000 S 
ATOM      6  C   UNL     1       1.568  13.983  18.943  0.00  0.00    +0.000 C 
ENDROOT
BRANCH   4   7
ATOM      7  C   UNL     1      -2.324  12.616  19.968  0.00  0.00    +0.000 C 
ATOM      8  O   UNL     1      -3.188  12.741  20.840  0.00  0.00    +0.000 OA
BRANCH   7   9
ATOM      9  C   UNL     1      -2.690  11.744  18.788  0.00  0.00    +0.000 A 
ATOM     10  C   UNL     1      -1.840  10.665  18.497  0.00  0.00    +0.000 A 
ATOM     11  C   UNL     1      -2.122   9.793  17.441  0.00  0.00    +0.000 A 
ATOM     12  C   UNL     1      -3.267   9.975  16.671  0.00  0.00    +0.000 A 
ATOM     13  C   UNL     1      -4.124  11.033  16.953  0.00  0.00    +0.000 A 
ATOM     14  C   UNL     1      -3.834  11.916  18.000  0.00  0.00    +0.000 A 
ENDBRANCH   7   9
ENDBRANCH   4   7
BRANCH   4  15
ATOM     15  C   UNL     1      -0.039  12.709  21.187  0.00  0.00    +0.000 C 
ATOM     16  O   UNL     1       0.585  13.428  21.971  0.00  0.00    +0.000 OA
BRANCH  15  17
ATOM     17  C   UNL     1       0.138  11.220  21.384  0.00  0.00    +0.000 A 
ATOM     18  C   UNL     1      -0.557  10.646  22.461  0.00  0.00    +0.000 A 
ATOM     19  C   UNL     1      -0.476   9.276  22.718  0.00  0.00    +0.000 A 
ATOM     20  C   UNL     1       0.290   8.461  21.892  0.00  0.00    +0.000 A 
ATOM     21  C   UNL     1       0.972   9.017  20.814  0.00  0.00    +0.000 A 
ATOM     22  C   UNL     1       0.905  10.393  20.562  0.00  0.00    +0.000 A 
ENDBRANCH  15  17
ENDBRANCH   4  15
BRANCH   1  23
ATOM     23  C   UNL     1       2.757  16.145  19.682  0.00  0.00    +0.000 C 
BRANCH  23  25
ATOM     24  C   UNL     1       4.925  16.801  18.756  0.00  0.00    +0.000 C 
ATOM     25  N   UNL     1       3.483  17.046  18.766  0.00  0.00    +0.000 NA
ATOM     26  C   UNL     1       2.963  16.863  17.397  0.00  0.00    +0.000 C 
ENDBRANCH  23  25
ENDBRANCH   1  23
TORSDOF 6
ENDMDL
MODEL 9
REMARK VINA RESULT:      -5.8      7.849     10.882
REMARK  Name = 
REMARK  8 active torsions:
REMARK  status: ('A' for Active; 'I' for Inactive)
REMARK    1  A    between atoms: C_1  and  N_2
REMARK    2  A    between atoms: N_2  and  C_3
REMARK    3  A    between atoms: N_2  and  C_4
REMARK    4  A    between atoms: C_4  and  C_5
REMARK    5  A    between atoms: C_8  and  C_9
REMARK    6  A    between atoms: C_8  and  C_17
REMARK    7  A    between atoms: C_9  and  C_11
REMARK    8  A    between atoms: C_17  and  C_19
REMARK                            x       y       z     vdW  Elec       q    Type
REMARK                         _______ _______ _______ _____ _____    ______ ____
ROOT
ATOM      1  C   UNL     1      -1.435  11.227  18.153  0.00  0.00    +0.000 C 
ATOM      2  C   UNL     1      -0.107  10.512  18.464  0.00  0.00    +0.000 C 
ATOM      3  S   UNL     1       1.382  11.501  18.752  0.00  0.00    +0.000 S 
ATOM      4  C   UNL     1       0.826  12.666  20.113  0.00  0.00    +0.000 C 
ATOM      5  S   UNL     1      -0.550  13.648  19.346  0.00  0.00    +0.000 S 
ATOM      6  C   UNL     1      -1.800  12.324  19.157  0.00  0.00    +0.000 C 
ENDROOT
BRANCH   4   7
ATOM      7  C   UNL     1       2.075  13.546  20.406  0.00  0.00    +0.000 C 
ATOM      8  O   UNL     1       2.799  13.387  21.392  0.00  0.00    +0.000 OA
BRANCH   7   9
ATOM      9  C   UNL     1       2.446  14.686  19.484  0.00  0.00    +0.000 A 
ATOM     10  C   UNL     1       3.379  14.416  18.469  0.00  0.00    +0.000 A 
ATOM     11  C   UNL     1       3.754  15.406  17.556  0.00  0.00    +0.000 A 
ATOM     12  C   UNL     1       3.190  16.675  17.631  0.00  0.00    +0.000 A 
ATOM     13  C   UNL     1       2.258  16.956  18.624  0.00  0.00    +0.000 A 
ATOM     14  C   UNL     1       1.893  15.970  19.548  0.00  0.00    +0.000 A 
ENDBRANCH   7   9
ENDBRANCH   4   7
BRANCH   4  15
ATOM     15  C   UNL     1       0.267  11.951  21.355  0.00  0.00    +0.000 C 
ATOM     16  O   UNL     1       0.614  10.813  21.681  0.00  0.00    +0.000 OA
BRANCH  15  17
ATOM     17  C   UNL     1      -0.775  12.596  22.241  0.00  0.00    +0.000 A 
ATOM     18  C   UNL     1      -0.481  13.886  22.712  0.00  0.00    +0.000 A 
ATOM     19  C   UNL     1      -1.385  14.577  23.522  0.00  0.00    +0.000 A 
ATOM     20  C   UNL     1      -2.601  13.991  23.859  0.00  0.00    +0.000 A 
ATOM     21  C   UNL     1      -2.908  12.718  23.386  0.00  0.00    +0.000 A 
ATOM     22  C   UNL     1      -1.997  12.016  22.586  0.00  0.00    +0.000 A 
ENDBRANCH  15  17
ENDBRANCH   4  15
BRANCH   1  23
ATOM     23  C   UNL     1      -2.512  10.096  18.079  0.00  0.00    +0.000 C 
BRANCH  23  25
ATOM     24  C   UNL     1      -4.415  11.165  16.973  0.00  0.00    +0.000 C 
ATOM     25  N   UNL     1      -3.460  10.056  16.949  0.00  0.00    +0.000 NA
ATOM     26  C   UNL     1      -2.703  10.111  15.683  0.00  0.00    +0.000 C 
ENDBRANCH  23  25
ENDBRANCH   1  23
TORSDOF 6
ENDMDL
