MODEL 1
REMARK VINA RESULT:      -7.2      0.000      0.000
REMARK  Name = 
REMARK  8 active torsions:
REMARK  status: ('A' for Active; 'I' for Inactive)
REMARK    1  A    between atoms: C_1  and  O_2
REMARK    2  A    between atoms: O_2  and  C_3
REMARK    3  A    between atoms: N_7  and  C_8
REMARK    4  A    between atoms: C_8  and  C_9
REMARK    5  A    between atoms: C_9  and  C_10
REMARK    6  A    between atoms: C_10  and  C_11
REMARK    7  A    between atoms: C_21  and  O_22
REMARK    8  A    between atoms: O_22  and  C_23
REMARK                            x       y       z     vdW  Elec       q    Type
REMARK                         _______ _______ _______ _____ _____    ______ ____
ROOT
ATOM      1  C   UNL     1       4.094   3.257  19.111  0.00  0.00    +0.000 A 
ATOM      2  C   UNL     1       5.343   3.824  19.426  0.00  0.00    +0.000 A 
ATOM      3  C   UNL     1       5.849   4.834  18.630  0.00  0.00    +0.000 A 
ATOM      4  S   UNL     1       7.295   5.809  18.919  0.00  0.00    +0.000 S 
ATOM      5  N   UNL     1       6.933   6.774  17.549  0.00  0.00    +0.000 N 
ATOM      6  C   UNL     1       5.847   6.347  16.799  0.00  0.00    +0.000 A 
ATOM      7  O   UNL     1       5.458   6.800  15.738  0.00  0.00    +0.000 OA
ATOM      8  C   UNL     1       5.174   5.225  17.481  0.00  0.00    +0.000 A 
ATOM      9  C   UNL     1       3.988   4.627  17.100  0.00  0.00    +0.000 A 
ATOM     10  C   UNL     1       3.428   3.637  17.923  0.00  0.00    +0.000 A 
ENDROOT
BRANCH   1  12
ATOM     11  C   UNL     1       2.557   2.832  20.869  0.00  0.00    +0.000 C 
ATOM     12  O   UNL     1       3.524   2.331  19.942  0.00  0.00    +0.000 OA
ENDBRANCH   1  12
BRANCH  10  13
ATOM     13  O   UNL     1       2.236   3.183  17.421  0.00  0.00    +0.000 OA
ATOM     14  C   UNL     1       1.051   3.927  17.650  0.00  0.00    +0.000 C 
ENDBRANCH  10  13
BRANCH   5  15
ATOM     15  C   UNL     1       7.825   7.841  17.144  0.00  0.00    +0.000 C 
BRANCH  15  16
ATOM     16  C   UNL     1       8.337   8.669  18.325  0.00  0.00    +0.000 C 
BRANCH  16  17
ATOM     17  C   UNL     1       8.431  10.142  17.933  0.00  0.00    +0.000 C 
BRANCH  17  18
ATOM     18  C   UNL     1       9.576  10.846  18.611  0.00  0.00    +0.000 A 
ATOM     19  C   UNL     1      10.646  11.335  17.865  0.00  0.00    +0.000 A 
ATOM     20  C   UNL     1      11.707  11.943  18.531  0.00  0.00    +0.000 A 
ATOM     21  C   UNL     1      11.665  12.056  19.915  0.00  0.00    +0.000 A 
ATOM     22  C   UNL     1      10.556  11.561  20.578  0.00  0.00    +0.000 A 
ATOM     23  N   UNL     1       9.514  10.961  19.959  0.00  0.00    +0.000 NA
ENDBRANCH  17  18
ENDBRANCH  16  17
ENDBRANCH  15  16
ENDBRANCH   5  15
TORSDOF 6
ENDMDL
MODEL 2
REMARK VINA RESULT:      -6.9      1.433      2.158
REMARK  Name = 
REMARK  8 active torsions:
REMARK  status: ('A' for Active; 'I' for Inactive)
REMARK    1  A    between atoms: C_1  and  O_2
REMARK    2  A    between atoms: O_2  and  C_3
REMARK    3  A    between atoms: N_7  and  C_8
REMARK    4  A    between atoms: C_8  and  C_9
REMARK    5  A    between atoms: C_9  and  C_10
REMARK    6  A    between atoms: C_10  and  C_11
REMARK    7  A    between atoms: C_21  and  O_22
REMARK    8  A    between atoms: O_22  and  C_23
REMARK                            x       y       z     vdW  Elec       q    Type
REMARK                         _______ _______ _______ _____ _____    ______ ____
ROOT
ATOM      1  C   UNL     1       2.802   3.967  18.469  0.00  0.00    +0.000 A 
ATOM      2  C   UNL     1       3.093   5.222  17.903  0.00  0.00    +0.000 A 
ATOM      3  C   UNL     1       4.400   5.672  17.889  0.00  0.00    +0.000 A 
ATOM      4  S   UNL     1       5.030   7.117  17.088  0.00  0.00    +0.000 S 
ATOM      5  N   UNL     1       6.629   6.672  17.518  0.00  0.00    +0.000 N 
ATOM      6  C   UNL     1       6.730   5.555  18.334  0.00  0.00    +0.000 A 
ATOM      7  O   UNL     1       7.736   5.105  18.851  0.00  0.00    +0.000 OA
ATOM      8  C   UNL     1       5.402   4.934  18.504  0.00  0.00    +0.000 A 
ATOM      9  C   UNL     1       5.132   3.739  19.142  0.00  0.00    +0.000 A 
ATOM     10  C   UNL     1       3.822   3.235  19.122  0.00  0.00    +0.000 A 
ENDROOT
BRANCH   1  12
ATOM     11  C   UNL     1       0.808   3.415  19.633  0.00  0.00    +0.000 C 
ATOM     12  O   UNL     1       1.535   3.453  18.402  0.00  0.00    +0.000 OA
ENDBRANCH   1  12
BRANCH  10  13
ATOM     13  O   UNL     1       3.739   2.026  19.762  0.00  0.00    +0.000 OA
ATOM     14  C   UNL     1       4.720   1.673  20.723  0.00  0.00    +0.000 C 
ENDBRANCH  10  13
BRANCH   5  15
ATOM     15  C   UNL     1       7.748   7.526  17.176  0.00  0.00    +0.000 C 
BRANCH  15  16
ATOM     16  C   UNL     1       8.162   8.451  18.324  0.00  0.00    +0.000 C 
BRANCH  16  17
ATOM     17  C   UNL     1       8.293   9.887  17.820  0.00  0.00    +0.000 C 
BRANCH  17  18
ATOM     18  C   UNL     1       9.329  10.671  18.581  0.00  0.00    +0.000 A 
ATOM     19  C   UNL     1      10.357  11.325  17.906  0.00  0.00    +0.000 A 
ATOM     20  C   UNL     1      11.320  12.006  18.646  0.00  0.00    +0.000 A 
ATOM     21  C   UNL     1      11.225  12.024  20.032  0.00  0.00    +0.000 A 
ATOM     22  C   UNL     1      10.161  11.364  20.622  0.00  0.00    +0.000 A 
ATOM     23  N   UNL     1       9.214  10.691  19.930  0.00  0.00    +0.000 NA
ENDBRANCH  17  18
ENDBRANCH  16  17
ENDBRANCH  15  16
ENDBRANCH   5  15
TORSDOF 6
ENDMDL
MODEL 3
REMARK VINA RESULT:      -6.9      4.602      6.575
REMARK  Name = 
REMARK  8 active torsions:
REMARK  status: ('A' for Active; 'I' for Inactive)
REMARK    1  A    between atoms: C_1  and  O_2
REMARK    2  A    between atoms: O_2  and  C_3
REMARK    3  A    between atoms: N_7  and  C_8
REMARK    4  A    between atoms: C_8  and  C_9
REMARK    5  A    between atoms: C_9  and  C_10
REMARK    6  A    between atoms: C_10  and  C_11
REMARK    7  A    between atoms: C_21  and  O_22
REMARK    8  A    between atoms: O_22  and  C_23
REMARK                            x       y       z     vdW  Elec       q    Type
REMARK                         _______ _______ _______ _____ _____    ______ ____
ROOT
ATOM      1  C   UNL     1       0.645   9.567  19.983  0.00  0.00    +0.000 A 
ATOM      2  C   UNL     1       1.567   9.113  19.021  0.00  0.00    +0.000 A 
ATOM      3  C   UNL     1       2.094   7.841  19.135  0.00  0.00    +0.000 A 
ATOM      4  S   UNL     1       3.121   6.995  17.971  0.00  0.00    +0.000 S 
ATOM      5  N   UNL     1       3.055   5.574  18.928  0.00  0.00    +0.000 N 
ATOM      6  C   UNL     1       2.401   5.713  20.143  0.00  0.00    +0.000 A 
ATOM      7  O   UNL     1       2.310   4.886  21.033  0.00  0.00    +0.000 OA
ATOM      8  C   UNL     1       1.783   7.050  20.233  0.00  0.00    +0.000 A 
ATOM      9  C   UNL     1       0.948   7.501  21.236  0.00  0.00    +0.000 A 
ATOM     10  C   UNL     1       0.358   8.769  21.115  0.00  0.00    +0.000 A 
ENDROOT
BRANCH   1  12
ATOM     11  C   UNL     1       0.889  11.887  19.546  0.00  0.00    +0.000 C 
ATOM     12  O   UNL     1       0.030  10.781  19.835  0.00  0.00    +0.000 OA
ENDBRANCH   1  12
BRANCH  10  13
ATOM     13  O   UNL     1      -0.472   9.040  22.172  0.00  0.00    +0.000 OA
ATOM     14  C   UNL     1       0.010   9.805  23.264  0.00  0.00    +0.000 C 
ENDBRANCH  10  13
BRANCH   5  15
ATOM     15  C   UNL     1       3.791   4.389  18.538  0.00  0.00    +0.000 C 
BRANCH  15  16
ATOM     16  C   UNL     1       4.115   4.356  17.042  0.00  0.00    +0.000 C 
BRANCH  16  17
ATOM     17  C   UNL     1       5.603   4.081  16.833  0.00  0.00    +0.000 C 
BRANCH  17  18
ATOM     18  C   UNL     1       6.476   5.132  17.466  0.00  0.00    +0.000 A 
ATOM     19  C   UNL     1       6.631   6.379  16.865  0.00  0.00    +0.000 A 
ATOM     20  C   UNL     1       7.479   7.310  17.457  0.00  0.00    +0.000 A 
ATOM     21  C   UNL     1       8.137   6.977  18.635  0.00  0.00    +0.000 A 
ATOM     22  C   UNL     1       7.912   5.724  19.176  0.00  0.00    +0.000 A 
ATOM     23  N   UNL     1       7.100   4.797  18.621  0.00  0.00    +0.000 NA
ENDBRANCH  17  18
ENDBRANCH  16  17
ENDBRANCH  15  16
ENDBRANCH   5  15
TORSDOF 6
ENDMDL
MODEL 4
REMARK VINA RESULT:      -6.9      5.529      8.613
REMARK  Name = 
REMARK  8 active torsions:
REMARK  status: ('A' for Active; 'I' for Inactive)
REMARK    1  A    between atoms: C_1  and  O_2
REMARK    2  A    between atoms: O_2  and  C_3
REMARK    3  A    between atoms: N_7  and  C_8
REMARK    4  A    between atoms: C_8  and  C_9
REMARK    5  A    between atoms: C_9  and  C_10
REMARK    6  A    between atoms: C_10  and  C_11
REMARK    7  A    between atoms: C_21  and  O_22
REMARK    8  A    between atoms: O_22  and  C_23
REMARK                            x       y       z     vdW  Elec       q    Type
REMARK                         _______ _______ _______ _____ _____    ______ ____
ROOT
ATOM      1  C   UNL     1       0.583  10.235  19.193  0.00  0.00    +0.000 A 
ATOM      2  C   UNL     1       1.495   9.780  18.223  0.00  0.00    +0.000 A 
ATOM      3  C   UNL     1       2.158   8.585  18.424  0.00  0.00    +0.000 A 
ATOM      4  S   UNL     1       3.205   7.731  17.283  0.00  0.00    +0.000 S 
ATOM      5  N   UNL     1       3.341   6.416  18.374  0.00  0.00    +0.000 N 
ATOM      6  C   UNL     1       2.742   6.612  19.610  0.00  0.00    +0.000 A 
ATOM      7  O   UNL     1       2.787   5.876  20.578  0.00  0.00    +0.000 OA
ATOM      8  C   UNL     1       1.993   7.883  19.611  0.00  0.00    +0.000 A 
ATOM      9  C   UNL     1       1.170   8.349  20.617  0.00  0.00    +0.000 A 
ATOM     10  C   UNL     1       0.444   9.533  20.413  0.00  0.00    +0.000 A 
ENDROOT
BRANCH   1  12
ATOM     11  C   UNL     1      -1.466  11.150  18.419  0.00  0.00    +0.000 C 
ATOM     12  O   UNL     1      -0.163  11.361  18.970  0.00  0.00    +0.000 OA
ENDBRANCH   1  12
BRANCH  10  13
ATOM     13  O   UNL     1      -0.352   9.826  21.490  0.00  0.00    +0.000 OA
ATOM     14  C   UNL     1       0.034   9.394  22.784  0.00  0.00    +0.000 C 
ENDBRANCH  10  13
BRANCH   5  15
ATOM     15  C   UNL     1       4.176   5.276  18.053  0.00  0.00    +0.000 C 
BRANCH  15  16
ATOM     16  C   UNL     1       3.452   4.229  17.203  0.00  0.00    +0.000 C 
BRANCH  16  17
ATOM     17  C   UNL     1       3.537   2.859  17.873  0.00  0.00    +0.000 C 
BRANCH  17  18
ATOM     18  C   UNL     1       2.752   2.797  19.156  0.00  0.00    +0.000 A 
ATOM     19  C   UNL     1       1.388   3.081  19.165  0.00  0.00    +0.000 A 
ATOM     20  C   UNL     1       0.704   3.054  20.378  0.00  0.00    +0.000 A 
ATOM     21  C   UNL     1       1.395   2.735  21.541  0.00  0.00    +0.000 A 
ATOM     22  C   UNL     1       2.745   2.448  21.440  0.00  0.00    +0.000 A 
ATOM     23  N   UNL     1       3.436   2.471  20.279  0.00  0.00    +0.000 NA
ENDBRANCH  17  18
ENDBRANCH  16  17
ENDBRANCH  15  16
ENDBRANCH   5  15
TORSDOF 6
ENDMDL
MODEL 5
REMARK VINA RESULT:      -6.8      6.011      8.943
REMARK  Name = 
REMARK  8 active torsions:
REMARK  status: ('A' for Active; 'I' for Inactive)
REMARK    1  A    between atoms: C_1  and  O_2
REMARK    2  A    between atoms: O_2  and  C_3
REMARK    3  A    between atoms: N_7  and  C_8
REMARK    4  A    between atoms: C_8  and  C_9
REMARK    5  A    between atoms: C_9  and  C_10
REMARK    6  A    between atoms: C_10  and  C_11
REMARK    7  A    between atoms: C_21  and  O_22
REMARK    8  A    between atoms: O_22  and  C_23
REMARK                            x       y       z     vdW  Elec       q    Type
REMARK                         _______ _______ _______ _____ _____    ______ ____
ROOT
ATOM      1  C   UNL     1       0.255  10.365  21.921  0.00  0.00    +0.000 A 
ATOM      2  C   UNL     1       0.601   9.001  21.886  0.00  0.00    +0.000 A 
ATOM      3  C   UNL     1       1.152   8.471  20.735  0.00  0.00    +0.000 A 
ATOM      4  S   UNL     1       1.822   6.849  20.512  0.00  0.00    +0.000 S 
ATOM      5  N   UNL     1       2.336   7.267  18.930  0.00  0.00    +0.000 N 
ATOM      6  C   UNL     1       1.939   8.523  18.495  0.00  0.00    +0.000 A 
ATOM      7  O   UNL     1       2.091   9.003  17.387  0.00  0.00    +0.000 OA
ATOM      8  C   UNL     1       1.283   9.254  19.596  0.00  0.00    +0.000 A 
ATOM      9  C   UNL     1       0.872  10.573  19.574  0.00  0.00    +0.000 A 
ATOM     10  C   UNL     1       0.360  11.148  20.748  0.00  0.00    +0.000 A 
ENDROOT
BRANCH   1  12
ATOM     11  C   UNL     1      -1.601  11.188  23.152  0.00  0.00    +0.000 C 
ATOM     12  O   UNL     1      -0.194  10.937  23.081  0.00  0.00    +0.000 OA
ENDBRANCH   1  12
BRANCH  10  13
ATOM     13  O   UNL     1       0.043  12.468  20.562  0.00  0.00    +0.000 OA
ATOM     14  C   UNL     1      -0.642  12.867  19.387  0.00  0.00    +0.000 C 
ENDBRANCH  10  13
BRANCH   5  15
ATOM     15  C   UNL     1       2.984   6.286  18.084  0.00  0.00    +0.000 C 
BRANCH  15  16
ATOM     16  C   UNL     1       2.016   5.226  17.554  0.00  0.00    +0.000 C 
BRANCH  16  17
ATOM     17  C   UNL     1       2.613   3.832  17.735  0.00  0.00    +0.000 C 
BRANCH  17  18
ATOM     18  C   UNL     1       2.465   3.321  19.143  0.00  0.00    +0.000 A 
ATOM     19  C   UNL     1       1.211   3.260  19.745  0.00  0.00    +0.000 A 
ATOM     20  C   UNL     1       1.118   2.823  21.064  0.00  0.00    +0.000 A 
ATOM     21  C   UNL     1       2.274   2.447  21.738  0.00  0.00    +0.000 A 
ATOM     22  C   UNL     1       3.478   2.520  21.059  0.00  0.00    +0.000 A 
ATOM     23  N   UNL     1       3.600   2.946  19.782  0.00  0.00    +0.000 NA
ENDBRANCH  17  18
ENDBRANCH  16  17
ENDBRANCH  15  16
ENDBRANCH   5  15
TORSDOF 6
ENDMDL
MODEL 6
REMARK VINA RESULT:      -6.8      5.772      8.375
REMARK  Name = 
REMARK  8 active torsions:
REMARK  status: ('A' for Active; 'I' for Inactive)
REMARK    1  A    between atoms: C_1  and  O_2
REMARK    2  A    between atoms: O_2  and  C_3
REMARK    3  A    between atoms: N_7  and  C_8
REMARK    4  A    between atoms: C_8  and  C_9
REMARK    5  A    between atoms: C_9  and  C_10
REMARK    6  A    between atoms: C_10  and  C_11
REMARK    7  A    between atoms: C_21  and  O_22
REMARK    8  A    between atoms: O_22  and  C_23
REMARK                            x       y       z     vdW  Elec       q    Type
REMARK                         _______ _______ _______ _____ _____    ______ ____
ROOT
ATOM      1  C   UNL     1       3.458   4.535  19.115  0.00  0.00    +0.000 A 
ATOM      2  C   UNL     1       2.823   5.349  20.071  0.00  0.00    +0.000 A 
ATOM      3  C   UNL     1       2.456   6.637  19.729  0.00  0.00    +0.000 A 
ATOM      4  S   UNL     1       1.502   7.774  20.690  0.00  0.00    +0.000 S 
ATOM      5  N   UNL     1       1.494   8.887  19.385  0.00  0.00    +0.000 N 
ATOM      6  C   UNL     1       2.265   8.518  18.292  0.00  0.00    +0.000 A 
ATOM      7  O   UNL     1       2.499   9.178  17.296  0.00  0.00    +0.000 OA
ATOM      8  C   UNL     1       2.789   7.152  18.483  0.00  0.00    +0.000 A 
ATOM      9  C   UNL     1       3.488   6.405  17.555  0.00  0.00    +0.000 A 
ATOM     10  C   UNL     1       3.823   5.077  17.860  0.00  0.00    +0.000 A 
ENDROOT
BRANCH   1  12
ATOM     11  C   UNL     1       2.708   2.283  19.073  0.00  0.00    +0.000 C 
ATOM     12  O   UNL     1       3.736   3.224  19.395  0.00  0.00    +0.000 OA
ENDBRANCH   1  12
BRANCH  10  13
ATOM     13  O   UNL     1       4.473   4.471  16.817  0.00  0.00    +0.000 OA
ATOM     14  C   UNL     1       5.148   5.265  15.856  0.00  0.00    +0.000 C 
ENDBRANCH  10  13
BRANCH   5  15
ATOM     15  C   UNL     1       0.859  10.181  19.526  0.00  0.00    +0.000 C 
BRANCH  15  16
ATOM     16  C   UNL     1      -0.631  10.079  19.859  0.00  0.00    +0.000 C 
BRANCH  16  17
ATOM     17  C   UNL     1      -1.367  11.324  19.365  0.00  0.00    +0.000 C 
BRANCH  17  18
ATOM     18  C   UNL     1      -2.258  11.034  18.186  0.00  0.00    +0.000 A 
ATOM     19  C   UNL     1      -1.857  10.135  17.201  0.00  0.00    +0.000 A 
ATOM     20  C   UNL     1      -2.689   9.925  16.105  0.00  0.00    +0.000 A 
ATOM     21  C   UNL     1      -3.899  10.605  16.029  0.00  0.00    +0.000 A 
ATOM     22  C   UNL     1      -4.229  11.466  17.061  0.00  0.00    +0.000 A 
ATOM     23  N   UNL     1      -3.440  11.695  18.134  0.00  0.00    +0.000 NA
ENDBRANCH  17  18
ENDBRANCH  16  17
ENDBRANCH  15  16
ENDBRANCH   5  15
TORSDOF 6
ENDMDL
MODEL 7
REMARK VINA RESULT:      -6.7      1.563      2.410
REMARK  Name = 
REMARK  8 active torsions:
REMARK  status: ('A' for Active; 'I' for Inactive)
REMARK    1  A    between atoms: C_1  and  O_2
REMARK    2  A    between atoms: O_2  and  C_3
REMARK    3  A    between atoms: N_7  and  C_8
REMARK    4  A    between atoms: C_8  and  C_9
REMARK    5  A    between atoms: C_9  and  C_10
REMARK    6  A    between atoms: C_10  and  C_11
REMARK    7  A    between atoms: C_21  and  O_22
REMARK    8  A    between atoms: O_22  and  C_23
REMARK                            x       y       z     vdW  Elec       q    Type
REMARK                         _______ _______ _______ _____ _____    ______ ____
ROOT
ATOM      1  C   UNL     1       2.815   4.140  18.713  0.00  0.00    +0.000 A 
ATOM      2  C   UNL     1       3.132   5.311  17.999  0.00  0.00    +0.000 A 
ATOM      3  C   UNL     1       4.432   5.778  18.006  0.00  0.00    +0.000 A 
ATOM      4  S   UNL     1       5.100   7.111  17.054  0.00  0.00    +0.000 S 
ATOM      5  N   UNL     1       6.672   6.757  17.643  0.00  0.00    +0.000 N 
ATOM      6  C   UNL     1       6.729   5.766  18.611  0.00  0.00    +0.000 A 
ATOM      7  O   UNL     1       7.703   5.410  19.248  0.00  0.00    +0.000 OA
ATOM      8  C   UNL     1       5.398   5.150  18.780  0.00  0.00    +0.000 A 
ATOM      9  C   UNL     1       5.098   4.050  19.559  0.00  0.00    +0.000 A 
ATOM     10  C   UNL     1       3.796   3.524  19.525  0.00  0.00    +0.000 A 
ENDROOT
BRANCH   1  12
ATOM     11  C   UNL     1       0.789   3.633  19.841  0.00  0.00    +0.000 C 
ATOM     12  O   UNL     1       1.560   3.599  18.637  0.00  0.00    +0.000 OA
ENDBRANCH   1  12
BRANCH  10  13
ATOM     13  O   UNL     1       3.683   2.413  20.320  0.00  0.00    +0.000 OA
ATOM     14  C   UNL     1       4.672   1.399  20.251  0.00  0.00    +0.000 C 
ENDBRANCH  10  13
BRANCH   5  15
ATOM     15  C   UNL     1       7.802   7.577  17.258  0.00  0.00    +0.000 C 
BRANCH  15  16
ATOM     16  C   UNL     1       8.319   8.453  18.403  0.00  0.00    +0.000 C 
BRANCH  16  17
ATOM     17  C   UNL     1       8.344   9.919  17.972  0.00  0.00    +0.000 C 
BRANCH  17  18
ATOM     18  C   UNL     1       9.441  10.698  18.648  0.00  0.00    +0.000 A 
ATOM     19  C   UNL     1       9.425  10.888  20.028  0.00  0.00    +0.000 A 
ATOM     20  C   UNL     1      10.434  11.650  20.612  0.00  0.00    +0.000 A 
ATOM     21  C   UNL     1      11.432  12.186  19.809  0.00  0.00    +0.000 A 
ATOM     22  C   UNL     1      11.384  11.932  18.449  0.00  0.00    +0.000 A 
ATOM     23  N   UNL     1      10.415  11.203  17.853  0.00  0.00    +0.000 NA
ENDBRANCH  17  18
ENDBRANCH  16  17
ENDBRANCH  15  16
ENDBRANCH   5  15
TORSDOF 6
ENDMDL
MODEL 8
REMARK VINA RESULT:      -6.7      5.784      8.417
REMARK  Name = 
REMARK  8 active torsions:
REMARK  status: ('A' for Active; 'I' for Inactive)
REMARK    1  A    between atoms: C_1  and  O_2
REMARK    2  A    between atoms: O_2  and  C_3
REMARK    3  A    between atoms: N_7  and  C_8
REMARK    4  A    between atoms: C_8  and  C_9
REMARK    5  A    between atoms: C_9  and  C_10
REMARK    6  A    between atoms: C_10  and  C_11
REMARK    7  A    between atoms: C_21  and  O_22
REMARK    8  A    between atoms: O_22  and  C_23
REMARK                            x       y       z     vdW  Elec       q    Type
REMARK                         _______ _______ _______ _____ _____    ______ ____
ROOT
ATOM      1  C   UNL     1       2.519   4.413  20.099  0.00  0.00    +0.000 A 
ATOM      2  C   UNL     1       2.027   5.556  20.756  0.00  0.00    +0.000 A 
ATOM      3  C   UNL     1       1.988   6.761  20.081  0.00  0.00    +0.000 A 
ATOM      4  S   UNL     1       1.260   8.277  20.629  0.00  0.00    +0.000 S 
ATOM      5  N   UNL     1       1.592   8.998  19.109  0.00  0.00    +0.000 N 
ATOM      6  C   UNL     1       2.326   8.213  18.232  0.00  0.00    +0.000 A 
ATOM      7  O   UNL     1       2.769   8.536  17.145  0.00  0.00    +0.000 OA
ATOM      8  C   UNL     1       2.510   6.863  18.798  0.00  0.00    +0.000 A 
ATOM      9  C   UNL     1       3.077   5.777  18.160  0.00  0.00    +0.000 A 
ATOM     10  C   UNL     1       3.078   4.530  18.805  0.00  0.00    +0.000 A 
ENDROOT
BRANCH   1  12
ATOM     11  C   UNL     1       1.200   2.801  21.238  0.00  0.00    +0.000 C 
ATOM     12  O   UNL     1       2.471   3.188  20.708  0.00  0.00    +0.000 OA
ENDBRANCH   1  12
BRANCH  10  13
ATOM     13  O   UNL     1       3.638   3.558  18.016  0.00  0.00    +0.000 OA
ATOM     14  C   UNL     1       2.825   2.513  17.509  0.00  0.00    +0.000 C 
ENDBRANCH  10  13
BRANCH   5  15
ATOM     15  C   UNL     1       1.262  10.388  18.867  0.00  0.00    +0.000 C 
BRANCH  15  16
ATOM     16  C   UNL     1      -0.245  10.653  18.881  0.00  0.00    +0.000 C 
BRANCH  16  17
ATOM     17  C   UNL     1      -0.941   9.786  17.832  0.00  0.00    +0.000 C 
BRANCH  17  18
ATOM     18  C   UNL     1      -2.238  10.386  17.360  0.00  0.00    +0.000 A 
ATOM     19  C   UNL     1      -2.535  10.447  16.000  0.00  0.00    +0.000 A 
ATOM     20  C   UNL     1      -3.726  11.046  15.599  0.00  0.00    +0.000 A 
ATOM     21  C   UNL     1      -4.590  11.554  16.562  0.00  0.00    +0.000 A 
ATOM     22  C   UNL     1      -4.227  11.434  17.892  0.00  0.00    +0.000 A 
ATOM     23  N   UNL     1      -3.076  10.863  18.311  0.00  0.00    +0.000 NA
ENDBRANCH  17  18
ENDBRANCH  16  17
ENDBRANCH  15  16
ENDBRANCH   5  15
TORSDOF 6
ENDMDL
MODEL 9
REMARK VINA RESULT:      -6.7      5.858      8.557
REMARK  Name = 
REMARK  8 active torsions:
REMARK  status: ('A' for Active; 'I' for Inactive)
REMARK    1  A    between atoms: C_1  and  O_2
REMARK    2  A    between atoms: O_2  and  C_3
REMARK    3  A    between atoms: N_7  and  C_8
REMARK    4  A    between atoms: C_8  and  C_9
REMARK    5  A    between atoms: C_9  and  C_10
REMARK    6  A    between atoms: C_10  and  C_11
REMARK    7  A    between atoms: C_21  and  O_22
REMARK    8  A    between atoms: O_22  and  C_23
REMARK                            x       y       z     vdW  Elec       q    Type
REMARK                         _______ _______ _______ _____ _____    ______ ____
ROOT
ATOM      1  C   UNL     1       2.494   4.876  19.791  0.00  0.00    +0.000 A 
ATOM      2  C   UNL     1       2.062   5.910  20.643  0.00  0.00    +0.000 A 
ATOM      3  C   UNL     1       1.879   7.180  20.130  0.00  0.00    +0.000 A 
ATOM      4  S   UNL     1       1.184   8.583  20.952  0.00  0.00    +0.000 S 
ATOM      5  N   UNL     1       1.261   9.487  19.497  0.00  0.00    +0.000 N 
ATOM      6  C   UNL     1       1.887   8.847  18.438  0.00  0.00    +0.000 A 
ATOM      7  O   UNL     1       2.152   9.313  17.345  0.00  0.00    +0.000 OA
ATOM      8  C   UNL     1       2.202   7.453  18.807  0.00  0.00    +0.000 A 
ATOM      9  C   UNL     1       2.708   6.478  17.970  0.00  0.00    +0.000 A 
ATOM     10  C   UNL     1       2.851   5.169  18.455  0.00  0.00    +0.000 A 
ENDROOT
BRANCH   1  12
ATOM     11  C   UNL     1       1.879   3.310  21.466  0.00  0.00    +0.000 C 
ATOM     12  O   UNL     1       2.581   3.590  20.252  0.00  0.00    +0.000 OA
ENDBRANCH   1  12
BRANCH  10  13
ATOM     13  O   UNL     1       3.324   4.323  17.485  0.00  0.00    +0.000 OA
ATOM     14  C   UNL     1       4.723   4.156  17.322  0.00  0.00    +0.000 C 
ENDBRANCH  10  13
BRANCH   5  15
ATOM     15  C   UNL     1       0.848  10.875  19.472  0.00  0.00    +0.000 C 
BRANCH  15  16
ATOM     16  C   UNL     1      -0.669  11.047  19.585  0.00  0.00    +0.000 C 
BRANCH  16  17
ATOM     17  C   UNL     1      -1.382   9.877  18.910  0.00  0.00    +0.000 C 
BRANCH  17  18
ATOM     18  C   UNL     1      -2.289  10.324  17.794  0.00  0.00    +0.000 A 
ATOM     19  C   UNL     1      -3.375  11.155  18.056  0.00  0.00    +0.000 A 
ATOM     20  C   UNL     1      -4.216  11.513  17.005  0.00  0.00    +0.000 A 
ATOM     21  C   UNL     1      -3.943  11.044  15.726  0.00  0.00    +0.000 A 
ATOM     22  C   UNL     1      -2.832  10.238  15.550  0.00  0.00    +0.000 A 
ATOM     23  N   UNL     1      -2.002   9.869  16.551  0.00  0.00    +0.000 NA
ENDBRANCH  17  18
ENDBRANCH  16  17
ENDBRANCH  15  16
ENDBRANCH   5  15
TORSDOF 6
ENDMDL
