MODEL 1
REMARK VINA RESULT:      -8.7      0.000      0.000
REMARK  Name = 
REMARK  9 active torsions:
REMARK  status: ('A' for Active; 'I' for Inactive)
REMARK    1  A    between atoms: C_1  and  C_2
REMARK    2  A    between atoms: C_5  and  N_6
REMARK    3  A    between atoms: N_9  and  C_10
REMARK    4  A    between atoms: C_10  and  C_11
REMARK    5  A    between atoms: C_11  and  O_12
REMARK    6  A    between atoms: O_12  and  C_13
REMARK    7  A    between atoms: C_13  and  C_14
REMARK    8  A    between atoms: C_13  and  C_20
REMARK    9  A    between atoms: C_23  and  C_24
REMARK                            x       y       z     vdW  Elec       q    Type
REMARK                         _______ _______ _______ _____ _____    ______ ____
ROOT
ATOM      1  C   UNL     1       3.302   5.898  19.595  0.00  0.00    +0.000 C 
ENDROOT
BRANCH   1   2
ATOM      2  C   UNL     1       2.439   4.711  20.001  0.00  0.00    +0.000 A 
ATOM      3  C   UNL     1       1.544   4.116  19.096  0.00  0.00    +0.000 A 
ATOM      4  C   UNL     1       0.814   2.985  19.453  0.00  0.00    +0.000 A 
ATOM      5  C   UNL     1       0.973   2.431  20.720  0.00  0.00    +0.000 A 
ATOM      6  C   UNL     1       1.847   3.017  21.635  0.00  0.00    +0.000 A 
ATOM      7  C   UNL     1       2.577   4.150  21.279  0.00  0.00    +0.000 A 
ENDBRANCH   1   2
BRANCH   1   8
ATOM      8  C   UNL     1       4.068   5.630  18.310  0.00  0.00    +0.000 A 
ATOM      9  C   UNL     1       4.527   4.339  18.025  0.00  0.00    +0.000 A 
ATOM     10  C   UNL     1       5.166   4.064  16.813  0.00  0.00    +0.000 A 
ATOM     11  C   UNL     1       5.353   5.055  15.832  0.00  0.00    +0.000 A 
ATOM     12  C   UNL     1       4.916   6.352  16.144  0.00  0.00    +0.000 A 
ATOM     13  C   UNL     1       4.300   6.640  17.367  0.00  0.00    +0.000 A 
BRANCH  11  14
ATOM     14  C   UNL     1       5.977   4.732  14.529  0.00  0.00    +0.000 A 
ATOM     15  C   UNL     1       5.382   3.809  13.648  0.00  0.00    +0.000 A 
ATOM     16  C   UNL     1       5.977   3.473  12.429  0.00  0.00    +0.000 A 
ATOM     17  C   UNL     1       7.175   4.068  12.053  0.00  0.00    +0.000 A 
ATOM     18  C   UNL     1       7.776   5.001  12.892  0.00  0.00    +0.000 A 
ATOM     19  C   UNL     1       7.184   5.325  14.119  0.00  0.00    +0.000 A 
ENDBRANCH  11  14
ENDBRANCH   1   8
BRANCH   1  20
ATOM     20  O   UNL     1       2.564   7.116  19.433  0.00  0.00    +0.000 OA
BRANCH  20  21
ATOM     21  C   UNL     1       2.100   7.733  20.637  0.00  0.00    +0.000 C 
BRANCH  21  22
ATOM     22  C   UNL     1       0.627   8.125  20.608  0.00  0.00    +0.000 C 
BRANCH  22  28
ATOM     23  C   UNL     1      -0.034   9.560  23.290  0.00  0.00    +0.000 C 
ATOM     24  C   UNL     1       0.179  10.214  21.969  0.00  0.00    +0.000 A 
ATOM     25  N   UNL     1       0.150  11.521  21.775  0.00  0.00    +0.000 NA
ATOM     26  C   UNL     1       0.373  11.718  20.439  0.00  0.00    +0.000 A 
ATOM     27  C   UNL     1       0.527  10.517  19.813  0.00  0.00    +0.000 A 
ATOM     28  N   UNL     1       0.428   9.551  20.777  0.00  0.00    +0.000 N 
BRANCH  27  29
ATOM     29  N   UNL     1       0.760  10.259  18.444  0.00  0.00    +0.000 N 
ATOM     30  O   UNL     1      -0.230   9.988  17.760  0.00  0.00    +0.000 OA
ATOM     31  O   UNL     1       1.928  10.333  18.054  0.00  0.00    +0.000 OA
ENDBRANCH  27  29
ENDBRANCH  22  28
ENDBRANCH  21  22
ENDBRANCH  20  21
ENDBRANCH   1  20
TORSDOF 8
ENDMDL
MODEL 2
REMARK VINA RESULT:      -8.7      1.477      2.079
REMARK  Name = 
REMARK  9 active torsions:
REMARK  status: ('A' for Active; 'I' for Inactive)
REMARK    1  A    between atoms: C_1  and  C_2
REMARK    2  A    between atoms: C_5  and  N_6
REMARK    3  A    between atoms: N_9  and  C_10
REMARK    4  A    between atoms: C_10  and  C_11
REMARK    5  A    between atoms: C_11  and  O_12
REMARK    6  A    between atoms: O_12  and  C_13
REMARK    7  A    between atoms: C_13  and  C_14
REMARK    8  A    between atoms: C_13  and  C_20
REMARK    9  A    between atoms: C_23  and  C_24
REMARK                            x       y       z     vdW  Elec       q    Type
REMARK                         _______ _______ _______ _____ _____    ______ ____
ROOT
ATOM      1  C   UNL     1       3.302   5.897  19.570  0.00  0.00    +0.000 C 
ENDROOT
BRANCH   1   2
ATOM      2  C   UNL     1       2.453   4.707  19.997  0.00  0.00    +0.000 A 
ATOM      3  C   UNL     1       1.507   4.137  19.128  0.00  0.00    +0.000 A 
ATOM      4  C   UNL     1       0.788   3.004  19.500  0.00  0.00    +0.000 A 
ATOM      5  C   UNL     1       1.009   2.423  20.746  0.00  0.00    +0.000 A 
ATOM      6  C   UNL     1       1.933   2.984  21.625  0.00  0.00    +0.000 A 
ATOM      7  C   UNL     1       2.653   4.120  21.254  0.00  0.00    +0.000 A 
ENDBRANCH   1   2
BRANCH   1   8
ATOM      8  C   UNL     1       4.071   5.614  18.290  0.00  0.00    +0.000 A 
ATOM      9  C   UNL     1       4.430   4.302  17.963  0.00  0.00    +0.000 A 
ATOM     10  C   UNL     1       5.070   4.020  16.754  0.00  0.00    +0.000 A 
ATOM     11  C   UNL     1       5.360   5.028  15.816  0.00  0.00    +0.000 A 
ATOM     12  C   UNL     1       5.023   6.345  16.170  0.00  0.00    +0.000 A 
ATOM     13  C   UNL     1       4.406   6.636  17.391  0.00  0.00    +0.000 A 
BRANCH  11  14
ATOM     14  C   UNL     1       5.984   4.704  14.514  0.00  0.00    +0.000 A 
ATOM     15  C   UNL     1       5.396   3.769  13.640  0.00  0.00    +0.000 A 
ATOM     16  C   UNL     1       5.991   3.432  12.421  0.00  0.00    +0.000 A 
ATOM     17  C   UNL     1       7.182   4.038  12.038  0.00  0.00    +0.000 A 
ATOM     18  C   UNL     1       7.775   4.982  12.870  0.00  0.00    +0.000 A 
ATOM     19  C   UNL     1       7.183   5.308  14.096  0.00  0.00    +0.000 A 
ENDBRANCH  11  14
ENDBRANCH   1   8
BRANCH   1  20
ATOM     20  O   UNL     1       2.550   7.103  19.386  0.00  0.00    +0.000 OA
BRANCH  20  21
ATOM     21  C   UNL     1       2.047   7.715  20.576  0.00  0.00    +0.000 C 
BRANCH  21  22
ATOM     22  C   UNL     1       0.674   8.359  20.412  0.00  0.00    +0.000 C 
BRANCH  22  28
ATOM     23  C   UNL     1       1.580  10.169  18.047  0.00  0.00    +0.000 C 
ATOM     24  C   UNL     1       1.089  10.632  19.375  0.00  0.00    +0.000 A 
ATOM     25  N   UNL     1       0.937  11.903  19.707  0.00  0.00    +0.000 NA
ATOM     26  C   UNL     1       0.486  11.911  20.999  0.00  0.00    +0.000 A 
ATOM     27  C   UNL     1       0.373  10.634  21.460  0.00  0.00    +0.000 A 
ATOM     28  N   UNL     1       0.733   9.807  20.430  0.00  0.00    +0.000 N 
BRANCH  27  29
ATOM     29  N   UNL     1      -0.042  10.188  22.734  0.00  0.00    +0.000 N 
ATOM     30  O   UNL     1       0.818   9.644  23.432  0.00  0.00    +0.000 OA
ATOM     31  O   UNL     1      -1.221  10.388  23.038  0.00  0.00    +0.000 OA
ENDBRANCH  27  29
ENDBRANCH  22  28
ENDBRANCH  21  22
ENDBRANCH  20  21
ENDBRANCH   1  20
TORSDOF 8
ENDMDL
MODEL 3
REMARK VINA RESULT:      -8.7      0.205      1.047
REMARK  Name = 
REMARK  9 active torsions:
REMARK  status: ('A' for Active; 'I' for Inactive)
REMARK    1  A    between atoms: C_1  and  C_2
REMARK    2  A    between atoms: C_5  and  N_6
REMARK    3  A    between atoms: N_9  and  C_10
REMARK    4  A    between atoms: C_10  and  C_11
REMARK    5  A    between atoms: C_11  and  O_12
REMARK    6  A    between atoms: O_12  and  C_13
REMARK    7  A    between atoms: C_13  and  C_14
REMARK    8  A    between atoms: C_13  and  C_20
REMARK    9  A    between atoms: C_23  and  C_24
REMARK                            x       y       z     vdW  Elec       q    Type
REMARK                         _______ _______ _______ _____ _____    ______ ____
ROOT
ATOM      1  C   UNL     1       3.200   5.972  19.430  0.00  0.00    +0.000 C 
ENDROOT
BRANCH   1   2
ATOM      2  C   UNL     1       2.405   4.769  19.921  0.00  0.00    +0.000 A 
ATOM      3  C   UNL     1       1.489   4.109  19.084  0.00  0.00    +0.000 A 
ATOM      4  C   UNL     1       0.822   2.967  19.518  0.00  0.00    +0.000 A 
ATOM      5  C   UNL     1       1.065   2.466  20.794  0.00  0.00    +0.000 A 
ATOM      6  C   UNL     1       1.960   3.117  21.642  0.00  0.00    +0.000 A 
ATOM      7  C   UNL     1       2.628   4.262  21.209  0.00  0.00    +0.000 A 
ENDBRANCH   1   2
BRANCH   1   8
ATOM      8  C   UNL     1       3.989   5.654  18.170  0.00  0.00    +0.000 A 
ATOM      9  C   UNL     1       4.253   4.324  17.826  0.00  0.00    +0.000 A 
ATOM     10  C   UNL     1       4.911   4.016  16.632  0.00  0.00    +0.000 A 
ATOM     11  C   UNL     1       5.311   5.016  15.728  0.00  0.00    +0.000 A 
ATOM     12  C   UNL     1       5.068   6.348  16.100  0.00  0.00    +0.000 A 
ATOM     13  C   UNL     1       4.434   6.663  17.306  0.00  0.00    +0.000 A 
BRANCH  11  14
ATOM     14  C   UNL     1       5.953   4.668  14.439  0.00  0.00    +0.000 A 
ATOM     15  C   UNL     1       7.137   5.306  14.022  0.00  0.00    +0.000 A 
ATOM     16  C   UNL     1       7.734   5.008  12.795  0.00  0.00    +0.000 A 
ATOM     17  C   UNL     1       7.171   4.049  11.962  0.00  0.00    +0.000 A 
ATOM     18  C   UNL     1       6.014   3.385  12.357  0.00  0.00    +0.000 A 
ATOM     19  C   UNL     1       5.410   3.695  13.581  0.00  0.00    +0.000 A 
ENDBRANCH  11  14
ENDBRANCH   1   8
BRANCH   1  20
ATOM     20  O   UNL     1       2.394   7.129  19.177  0.00  0.00    +0.000 OA
BRANCH  20  21
ATOM     21  C   UNL     1       2.184   8.003  20.288  0.00  0.00    +0.000 C 
BRANCH  21  22
ATOM     22  C   UNL     1       0.716   8.241  20.625  0.00  0.00    +0.000 C 
BRANCH  22  28
ATOM     23  C   UNL     1      -0.037   9.497  23.372  0.00  0.00    +0.000 C 
ATOM     24  C   UNL     1       0.128  10.227  22.084  0.00  0.00    +0.000 A 
ATOM     25  N   UNL     1       0.010  11.537  21.954  0.00  0.00    +0.000 NA
ATOM     26  C   UNL     1       0.217  11.812  20.629  0.00  0.00    +0.000 A 
ATOM     27  C   UNL     1       0.452  10.657  19.946  0.00  0.00    +0.000 A 
ATOM     28  N   UNL     1       0.420   9.640  20.863  0.00  0.00    +0.000 N 
BRANCH  27  29
ATOM     29  N   UNL     1       0.701  10.481  18.567  0.00  0.00    +0.000 N 
ATOM     30  O   UNL     1       1.841  10.746  18.177  0.00  0.00    +0.000 OA
ATOM     31  O   UNL     1      -0.238  10.074  17.879  0.00  0.00    +0.000 OA
ENDBRANCH  27  29
ENDBRANCH  22  28
ENDBRANCH  21  22
ENDBRANCH  20  21
ENDBRANCH   1  20
TORSDOF 8
ENDMDL
MODEL 4
REMARK VINA RESULT:      -8.6      1.530      2.239
REMARK  Name = 
REMARK  9 active torsions:
REMARK  status: ('A' for Active; 'I' for Inactive)
REMARK    1  A    between atoms: C_1  and  C_2
REMARK    2  A    between atoms: C_5  and  N_6
REMARK    3  A    between atoms: N_9  and  C_10
REMARK    4  A    between atoms: C_10  and  C_11
REMARK    5  A    between atoms: C_11  and  O_12
REMARK    6  A    between atoms: O_12  and  C_13
REMARK    7  A    between atoms: C_13  and  C_14
REMARK    8  A    between atoms: C_13  and  C_20
REMARK    9  A    between atoms: C_23  and  C_24
REMARK                            x       y       z     vdW  Elec       q    Type
REMARK                         _______ _______ _______ _____ _____    ______ ____
ROOT
ATOM      1  C   UNL     1       3.300   5.901  19.492  0.00  0.00    +0.000 C 
ENDROOT
BRANCH   1   2
ATOM      2  C   UNL     1       2.483   4.699  19.946  0.00  0.00    +0.000 A 
ATOM      3  C   UNL     1       1.526   4.107  19.103  0.00  0.00    +0.000 A 
ATOM      4  C   UNL     1       0.837   2.963  19.499  0.00  0.00    +0.000 A 
ATOM      5  C   UNL     1       1.099   2.393  20.741  0.00  0.00    +0.000 A 
ATOM      6  C   UNL     1       2.035   2.975  21.595  0.00  0.00    +0.000 A 
ATOM      7  C   UNL     1       2.725   4.122  21.201  0.00  0.00    +0.000 A 
ENDBRANCH   1   2
BRANCH   1   8
ATOM      8  C   UNL     1       4.083   5.609  18.222  0.00  0.00    +0.000 A 
ATOM      9  C   UNL     1       4.420   4.291  17.895  0.00  0.00    +0.000 A 
ATOM     10  C   UNL     1       5.073   4.001  16.694  0.00  0.00    +0.000 A 
ATOM     11  C   UNL     1       5.396   5.007  15.766  0.00  0.00    +0.000 A 
ATOM     12  C   UNL     1       5.081   6.329  16.121  0.00  0.00    +0.000 A 
ATOM     13  C   UNL     1       4.451   6.627  17.334  0.00  0.00    +0.000 A 
BRANCH  11  14
ATOM     14  C   UNL     1       6.033   4.676  14.471  0.00  0.00    +0.000 A 
ATOM     15  C   UNL     1       7.216   5.320  14.058  0.00  0.00    +0.000 A 
ATOM     16  C   UNL     1       7.810   5.037  12.825  0.00  0.00    +0.000 A 
ATOM     17  C   UNL     1       7.244   4.087  11.982  0.00  0.00    +0.000 A 
ATOM     18  C   UNL     1       6.089   3.418  12.373  0.00  0.00    +0.000 A 
ATOM     19  C   UNL     1       5.489   3.713  13.603  0.00  0.00    +0.000 A 
ENDBRANCH  11  14
ENDBRANCH   1   8
BRANCH   1  20
ATOM     20  O   UNL     1       2.515   7.081  19.275  0.00  0.00    +0.000 OA
BRANCH  20  21
ATOM     21  C   UNL     1       1.674   7.481  20.359  0.00  0.00    +0.000 C 
BRANCH  21  22
ATOM     22  C   UNL     1       1.858   8.934  20.787  0.00  0.00    +0.000 C 
BRANCH  22  28
ATOM     23  C   UNL     1       1.608   9.930  17.849  0.00  0.00    +0.000 C 
ATOM     24  C   UNL     1       0.662  10.218  18.961  0.00  0.00    +0.000 A 
ATOM     25  N   UNL     1      -0.451  10.920  18.826  0.00  0.00    +0.000 NA
ATOM     26  C   UNL     1      -1.027  10.972  20.066  0.00  0.00    +0.000 A 
ATOM     27  C   UNL     1      -0.251  10.306  20.967  0.00  0.00    +0.000 A 
ATOM     28  N   UNL     1       0.817   9.801  20.274  0.00  0.00    +0.000 N 
BRANCH  27  29
ATOM     29  N   UNL     1      -0.463  10.124  22.351  0.00  0.00    +0.000 N 
ATOM     30  O   UNL     1      -0.809   8.996  22.710  0.00  0.00    +0.000 OA
ATOM     31  O   UNL     1      -0.277  11.104  23.076  0.00  0.00    +0.000 OA
ENDBRANCH  27  29
ENDBRANCH  22  28
ENDBRANCH  21  22
ENDBRANCH  20  21
ENDBRANCH   1  20
TORSDOF 8
ENDMDL
MODEL 5
REMARK VINA RESULT:      -8.6      1.497      2.513
REMARK  Name = 
REMARK  9 active torsions:
REMARK  status: ('A' for Active; 'I' for Inactive)
REMARK    1  A    between atoms: C_1  and  C_2
REMARK    2  A    between atoms: C_5  and  N_6
REMARK    3  A    between atoms: N_9  and  C_10
REMARK    4  A    between atoms: C_10  and  C_11
REMARK    5  A    between atoms: C_11  and  O_12
REMARK    6  A    between atoms: O_12  and  C_13
REMARK    7  A    between atoms: C_13  and  C_14
REMARK    8  A    between atoms: C_13  and  C_20
REMARK    9  A    between atoms: C_23  and  C_24
REMARK                            x       y       z     vdW  Elec       q    Type
REMARK                         _______ _______ _______ _____ _____    ______ ____
ROOT
ATOM      1  C   UNL     1       3.307   5.870  19.505  0.00  0.00    +0.000 C 
ENDROOT
BRANCH   1   2
ATOM      2  C   UNL     1       2.531   4.689  20.073  0.00  0.00    +0.000 A 
ATOM      3  C   UNL     1       2.904   4.087  21.286  0.00  0.00    +0.000 A 
ATOM      4  C   UNL     1       2.144   3.056  21.834  0.00  0.00    +0.000 A 
ATOM      5  C   UNL     1       0.999   2.616  21.177  0.00  0.00    +0.000 A 
ATOM      6  C   UNL     1       0.623   3.193  19.965  0.00  0.00    +0.000 A 
ATOM      7  C   UNL     1       1.383   4.225  19.414  0.00  0.00    +0.000 A 
ENDBRANCH   1   2
BRANCH   1   8
ATOM      8  C   UNL     1       3.925   5.546  18.154  0.00  0.00    +0.000 A 
ATOM      9  C   UNL     1       4.372   6.579  17.323  0.00  0.00    +0.000 A 
ATOM     10  C   UNL     1       5.010   6.293  16.113  0.00  0.00    +0.000 A 
ATOM     11  C   UNL     1       5.244   4.970  15.695  0.00  0.00    +0.000 A 
ATOM     12  C   UNL     1       4.763   3.944  16.523  0.00  0.00    +0.000 A 
ATOM     13  C   UNL     1       4.099   4.225  17.722  0.00  0.00    +0.000 A 
BRANCH  11  14
ATOM     14  C   UNL     1       5.975   4.685  14.439  0.00  0.00    +0.000 A 
ATOM     15  C   UNL     1       7.196   5.324  14.149  0.00  0.00    +0.000 A 
ATOM     16  C   UNL     1       7.880   5.086  12.954  0.00  0.00    +0.000 A 
ATOM     17  C   UNL     1       7.368   4.186  12.027  0.00  0.00    +0.000 A 
ATOM     18  C   UNL     1       6.175   3.522  12.296  0.00  0.00    +0.000 A 
ATOM     19  C   UNL     1       5.486   3.773  13.488  0.00  0.00    +0.000 A 
ENDBRANCH  11  14
ENDBRANCH   1   8
BRANCH   1  20
ATOM     20  O   UNL     1       2.522   7.061  19.367  0.00  0.00    +0.000 OA
BRANCH  20  21
ATOM     21  C   UNL     1       2.045   7.641  20.583  0.00  0.00    +0.000 C 
BRANCH  21  22
ATOM     22  C   UNL     1       0.654   8.258  20.476  0.00  0.00    +0.000 C 
BRANCH  22  28
ATOM     23  C   UNL     1       1.407  10.038  18.036  0.00  0.00    +0.000 C 
ATOM     24  C   UNL     1       0.975  10.518  19.378  0.00  0.00    +0.000 A 
ATOM     25  N   UNL     1       0.817  11.792  19.695  0.00  0.00    +0.000 NA
ATOM     26  C   UNL     1       0.431  11.817  21.008  0.00  0.00    +0.000 A 
ATOM     27  C   UNL     1       0.366  10.547  21.497  0.00  0.00    +0.000 A 
ATOM     28  N   UNL     1       0.688   9.707  20.465  0.00  0.00    +0.000 N 
BRANCH  27  29
ATOM     29  N   UNL     1       0.024  10.118  22.798  0.00  0.00    +0.000 N 
ATOM     30  O   UNL     1      -1.158  10.252  23.127  0.00  0.00    +0.000 OA
ATOM     31  O   UNL     1       0.932   9.644  23.485  0.00  0.00    +0.000 OA
ENDBRANCH  27  29
ENDBRANCH  22  28
ENDBRANCH  21  22
ENDBRANCH  20  21
ENDBRANCH   1  20
TORSDOF 8
ENDMDL
MODEL 6
REMARK VINA RESULT:      -8.6      1.527      2.234
REMARK  Name = 
REMARK  9 active torsions:
REMARK  status: ('A' for Active; 'I' for Inactive)
REMARK    1  A    between atoms: C_1  and  C_2
REMARK    2  A    between atoms: C_5  and  N_6
REMARK    3  A    between atoms: N_9  and  C_10
REMARK    4  A    between atoms: C_10  and  C_11
REMARK    5  A    between atoms: C_11  and  O_12
REMARK    6  A    between atoms: O_12  and  C_13
REMARK    7  A    between atoms: C_13  and  C_14
REMARK    8  A    between atoms: C_13  and  C_20
REMARK    9  A    between atoms: C_23  and  C_24
REMARK                            x       y       z     vdW  Elec       q    Type
REMARK                         _______ _______ _______ _____ _____    ______ ____
ROOT
ATOM      1  C   UNL     1       3.311   5.906  19.406  0.00  0.00    +0.000 C 
ENDROOT
BRANCH   1   2
ATOM      2  C   UNL     1       2.567   4.685  19.927  0.00  0.00    +0.000 A 
ATOM      3  C   UNL     1       2.874   4.123  21.178  0.00  0.00    +0.000 A 
ATOM      4  C   UNL     1       2.138   3.052  21.679  0.00  0.00    +0.000 A 
ATOM      5  C   UNL     1       1.082   2.530  20.936  0.00  0.00    +0.000 A 
ATOM      6  C   UNL     1       0.774   3.067  19.687  0.00  0.00    +0.000 A 
ATOM      7  C   UNL     1       1.511   4.139  19.184  0.00  0.00    +0.000 A 
ENDBRANCH   1   2
BRANCH   1   8
ATOM      8  C   UNL     1       4.083   5.600  18.132  0.00  0.00    +0.000 A 
ATOM      9  C   UNL     1       4.306   4.272  17.752  0.00  0.00    +0.000 A 
ATOM     10  C   UNL     1       4.948   3.977  16.545  0.00  0.00    +0.000 A 
ATOM     11  C   UNL     1       5.371   4.989  15.665  0.00  0.00    +0.000 A 
ATOM     12  C   UNL     1       5.169   6.317  16.074  0.00  0.00    +0.000 A 
ATOM     13  C   UNL     1       4.552   6.619  17.293  0.00  0.00    +0.000 A 
BRANCH  11  14
ATOM     14  C   UNL     1       5.994   4.658  14.364  0.00  0.00    +0.000 A 
ATOM     15  C   UNL     1       5.414   3.707  13.502  0.00  0.00    +0.000 A 
ATOM     16  C   UNL     1       6.008   3.364  12.285  0.00  0.00    +0.000 A 
ATOM     17  C   UNL     1       7.191   3.979  11.891  0.00  0.00    +0.000 A 
ATOM     18  C   UNL     1       7.776   4.938  12.710  0.00  0.00    +0.000 A 
ATOM     19  C   UNL     1       7.185   5.270  13.935  0.00  0.00    +0.000 A 
ENDBRANCH  11  14
ENDBRANCH   1   8
BRANCH   1  20
ATOM     20  O   UNL     1       2.463   7.034  19.158  0.00  0.00    +0.000 OA
BRANCH  20  21
ATOM     21  C   UNL     1       1.616   7.432  20.238  0.00  0.00    +0.000 C 
BRANCH  21  22
ATOM     22  C   UNL     1       1.895   8.836  20.765  0.00  0.00    +0.000 C 
BRANCH  22  28
ATOM     23  C   UNL     1       1.793  10.333  18.037  0.00  0.00    +0.000 C 
ATOM     24  C   UNL     1       0.794  10.434  19.136  0.00  0.00    +0.000 A 
ATOM     25  N   UNL     1      -0.309  11.161  19.072  0.00  0.00    +0.000 NA
ATOM     26  C   UNL     1      -0.945  11.002  20.273  0.00  0.00    +0.000 A 
ATOM     27  C   UNL     1      -0.217  10.180  21.079  0.00  0.00    +0.000 A 
ATOM     28  N   UNL     1       0.882   9.792  20.362  0.00  0.00    +0.000 N 
BRANCH  27  29
ATOM     29  N   UNL     1      -0.498   9.761  22.399  0.00  0.00    +0.000 N 
ATOM     30  O   UNL     1      -0.860   8.590  22.538  0.00  0.00    +0.000 OA
ATOM     31  O   UNL     1      -0.351  10.599  23.292  0.00  0.00    +0.000 OA
ENDBRANCH  27  29
ENDBRANCH  22  28
ENDBRANCH  21  22
ENDBRANCH  20  21
ENDBRANCH   1  20
TORSDOF 8
ENDMDL
MODEL 7
REMARK VINA RESULT:      -8.5      1.529      2.422
REMARK  Name = 
REMARK  9 active torsions:
REMARK  status: ('A' for Active; 'I' for Inactive)
REMARK    1  A    between atoms: C_1  and  C_2
REMARK    2  A    between atoms: C_5  and  N_6
REMARK    3  A    between atoms: N_9  and  C_10
REMARK    4  A    between atoms: C_10  and  C_11
REMARK    5  A    between atoms: C_11  and  O_12
REMARK    6  A    between atoms: O_12  and  C_13
REMARK    7  A    between atoms: C_13  and  C_14
REMARK    8  A    between atoms: C_13  and  C_20
REMARK    9  A    between atoms: C_23  and  C_24
REMARK                            x       y       z     vdW  Elec       q    Type
REMARK                         _______ _______ _______ _____ _____    ______ ____
ROOT
ATOM      1  C   UNL     1       3.296   5.938  19.476  0.00  0.00    +0.000 C 
ENDROOT
BRANCH   1   2
ATOM      2  C   UNL     1       2.555   4.716  20.001  0.00  0.00    +0.000 A 
ATOM      3  C   UNL     1       2.872   4.151  21.249  0.00  0.00    +0.000 A 
ATOM      4  C   UNL     1       2.139   3.080  21.753  0.00  0.00    +0.000 A 
ATOM      5  C   UNL     1       1.076   2.561  21.019  0.00  0.00    +0.000 A 
ATOM      6  C   UNL     1       0.758   3.101  19.774  0.00  0.00    +0.000 A 
ATOM      7  C   UNL     1       1.491   4.173  19.266  0.00  0.00    +0.000 A 
ENDBRANCH   1   2
BRANCH   1   8
ATOM      8  C   UNL     1       4.075   5.627  18.207  0.00  0.00    +0.000 A 
ATOM      9  C   UNL     1       4.267   4.298  17.812  0.00  0.00    +0.000 A 
ATOM     10  C   UNL     1       4.915   4.002  16.610  0.00  0.00    +0.000 A 
ATOM     11  C   UNL     1       5.377   5.013  15.748  0.00  0.00    +0.000 A 
ATOM     12  C   UNL     1       5.205   6.341  16.172  0.00  0.00    +0.000 A 
ATOM     13  C   UNL     1       4.581   6.643  17.387  0.00  0.00    +0.000 A 
BRANCH  11  14
ATOM     14  C   UNL     1       6.006   4.681  14.450  0.00  0.00    +0.000 A 
ATOM     15  C   UNL     1       7.205   5.300  14.045  0.00  0.00    +0.000 A 
ATOM     16  C   UNL     1       7.793   5.018  12.809  0.00  0.00    +0.000 A 
ATOM     17  C   UNL     1       7.204   4.093  11.955  0.00  0.00    +0.000 A 
ATOM     18  C   UNL     1       6.032   3.449  12.336  0.00  0.00    +0.000 A 
ATOM     19  C   UNL     1       5.438   3.744  13.569  0.00  0.00    +0.000 A 
ENDBRANCH  11  14
ENDBRANCH   1   8
BRANCH   1  20
ATOM     20  O   UNL     1       2.444   7.060  19.216  0.00  0.00    +0.000 OA
BRANCH  20  21
ATOM     21  C   UNL     1       1.591   7.461  20.291  0.00  0.00    +0.000 C 
BRANCH  21  22
ATOM     22  C   UNL     1       1.829   8.888  20.776  0.00  0.00    +0.000 C 
BRANCH  22  28
ATOM     23  C   UNL     1       1.719  10.088  17.906  0.00  0.00    +0.000 C 
ATOM     24  C   UNL     1       0.737  10.325  18.999  0.00  0.00    +0.000 A 
ATOM     25  N   UNL     1      -0.353  11.063  18.870  0.00  0.00    +0.000 NA
ATOM     26  C   UNL     1      -0.976  11.047  20.089  0.00  0.00    +0.000 A 
ATOM     27  C   UNL     1      -0.253  10.300  20.970  0.00  0.00    +0.000 A 
ATOM     28  N   UNL     1       0.829   9.816  20.285  0.00  0.00    +0.000 N 
BRANCH  27  29
ATOM     29  N   UNL     1      -0.523  10.031  22.329  0.00  0.00    +0.000 N 
ATOM     30  O   UNL     1      -0.416  10.981  23.109  0.00  0.00    +0.000 OA
ATOM     31  O   UNL     1      -0.848   8.876  22.614  0.00  0.00    +0.000 OA
ENDBRANCH  27  29
ENDBRANCH  22  28
ENDBRANCH  21  22
ENDBRANCH  20  21
ENDBRANCH   1  20
TORSDOF 8
ENDMDL
MODEL 8
REMARK VINA RESULT:      -8.4      3.528      8.369
REMARK  Name = 
REMARK  9 active torsions:
REMARK  status: ('A' for Active; 'I' for Inactive)
REMARK    1  A    between atoms: C_1  and  C_2
REMARK    2  A    between atoms: C_5  and  N_6
REMARK    3  A    between atoms: N_9  and  C_10
REMARK    4  A    between atoms: C_10  and  C_11
REMARK    5  A    between atoms: C_11  and  O_12
REMARK    6  A    between atoms: O_12  and  C_13
REMARK    7  A    between atoms: C_13  and  C_14
REMARK    8  A    between atoms: C_13  and  C_20
REMARK    9  A    between atoms: C_23  and  C_24
REMARK                            x       y       z     vdW  Elec       q    Type
REMARK                         _______ _______ _______ _____ _____    ______ ____
ROOT
ATOM      1  C   UNL     1       2.672   6.398  18.068  0.00  0.00    +0.000 C 
ENDROOT
BRANCH   1   2
ATOM      2  C   UNL     1       2.408   5.002  18.616  0.00  0.00    +0.000 A 
ATOM      3  C   UNL     1       1.414   4.177  18.062  0.00  0.00    +0.000 A 
ATOM      4  C   UNL     1       1.230   2.875  18.521  0.00  0.00    +0.000 A 
ATOM      5  C   UNL     1       2.042   2.379  19.538  0.00  0.00    +0.000 A 
ATOM      6  C   UNL     1       3.023   3.189  20.108  0.00  0.00    +0.000 A 
ATOM      7  C   UNL     1       3.207   4.494  19.650  0.00  0.00    +0.000 A 
ENDBRANCH   1   2
BRANCH   1   8
ATOM      8  C   UNL     1       2.078   7.478  18.958  0.00  0.00    +0.000 A 
ATOM      9  C   UNL     1       1.735   8.722  18.416  0.00  0.00    +0.000 A 
ATOM     10  C   UNL     1       1.119   9.696  19.206  0.00  0.00    +0.000 A 
ATOM     11  C   UNL     1       0.803   9.463  20.557  0.00  0.00    +0.000 A 
ATOM     12  C   UNL     1       1.181   8.223  21.096  0.00  0.00    +0.000 A 
ATOM     13  C   UNL     1       1.823   7.254  20.317  0.00  0.00    +0.000 A 
BRANCH  11  14
ATOM     14  C   UNL     1       0.095  10.484  21.363  0.00  0.00    +0.000 A 
ATOM     15  C   UNL     1      -0.630  10.124  22.515  0.00  0.00    +0.000 A 
ATOM     16  C   UNL     1      -1.326  11.075  23.267  0.00  0.00    +0.000 A 
ATOM     17  C   UNL     1      -1.298  12.413  22.893  0.00  0.00    +0.000 A 
ATOM     18  C   UNL     1      -0.572  12.802  21.772  0.00  0.00    +0.000 A 
ATOM     19  C   UNL     1       0.113  11.846  21.014  0.00  0.00    +0.000 A 
ENDBRANCH  11  14
ENDBRANCH   1   8
BRANCH   1  20
ATOM     20  O   UNL     1       4.062   6.688  17.877  0.00  0.00    +0.000 OA
BRANCH  20  21
ATOM     21  C   UNL     1       4.392   7.425  16.698  0.00  0.00    +0.000 C 
BRANCH  21  22
ATOM     22  C   UNL     1       5.500   6.797  15.858  0.00  0.00    +0.000 C 
BRANCH  22  28
ATOM     23  C   UNL     1       7.701   8.097  17.634  0.00  0.00    +0.000 C 
ATOM     24  C   UNL     1       7.426   6.640  17.495  0.00  0.00    +0.000 A 
ATOM     25  N   UNL     1       8.075   5.697  18.156  0.00  0.00    +0.000 NA
ATOM     26  C   UNL     1       7.545   4.504  17.746  0.00  0.00    +0.000 A 
ATOM     27  C   UNL     1       6.572   4.724  16.818  0.00  0.00    +0.000 A 
ATOM     28  N   UNL     1       6.469   6.080  16.663  0.00  0.00    +0.000 N 
BRANCH  27  29
ATOM     29  N   UNL     1       5.780   3.780  16.128  0.00  0.00    +0.000 N 
ATOM     30  O   UNL     1       6.165   3.461  14.999  0.00  0.00    +0.000 OA
ATOM     31  O   UNL     1       4.782   3.355  16.714  0.00  0.00    +0.000 OA
ENDBRANCH  27  29
ENDBRANCH  22  28
ENDBRANCH  21  22
ENDBRANCH  20  21
ENDBRANCH   1  20
TORSDOF 8
ENDMDL
MODEL 9
REMARK VINA RESULT:      -8.4      0.583      1.597
REMARK  Name = 
REMARK  9 active torsions:
REMARK  status: ('A' for Active; 'I' for Inactive)
REMARK    1  A    between atoms: C_1  and  C_2
REMARK    2  A    between atoms: C_5  and  N_6
REMARK    3  A    between atoms: N_9  and  C_10
REMARK    4  A    between atoms: C_10  and  C_11
REMARK    5  A    between atoms: C_11  and  O_12
REMARK    6  A    between atoms: O_12  and  C_13
REMARK    7  A    between atoms: C_13  and  C_14
REMARK    8  A    between atoms: C_13  and  C_20
REMARK    9  A    between atoms: C_23  and  C_24
REMARK                            x       y       z     vdW  Elec       q    Type
REMARK                         _______ _______ _______ _____ _____    ______ ____
ROOT
ATOM      1  C   UNL     1       3.316   5.888  19.458  0.00  0.00    +0.000 C 
ENDROOT
BRANCH   1   2
ATOM      2  C   UNL     1       2.552   4.706  20.039  0.00  0.00    +0.000 A 
ATOM      3  C   UNL     1       2.896   4.157  21.287  0.00  0.00    +0.000 A 
ATOM      4  C   UNL     1       2.145   3.125  21.843  0.00  0.00    +0.000 A 
ATOM      5  C   UNL     1       1.038   2.629  21.161  0.00  0.00    +0.000 A 
ATOM      6  C   UNL     1       0.692   3.152  19.916  0.00  0.00    +0.000 A 
ATOM      7  C   UNL     1       1.443   4.185  19.357  0.00  0.00    +0.000 A 
ENDBRANCH   1   2
BRANCH   1   8
ATOM      8  C   UNL     1       3.932   5.557  18.108  0.00  0.00    +0.000 A 
ATOM      9  C   UNL     1       4.421   6.582  17.292  0.00  0.00    +0.000 A 
ATOM     10  C   UNL     1       5.058   6.286  16.084  0.00  0.00    +0.000 A 
ATOM     11  C   UNL     1       5.249   4.961  15.653  0.00  0.00    +0.000 A 
ATOM     12  C   UNL     1       4.726   3.943  16.467  0.00  0.00    +0.000 A 
ATOM     13  C   UNL     1       4.064   4.235  17.664  0.00  0.00    +0.000 A 
BRANCH  11  14
ATOM     14  C   UNL     1       5.980   4.663  14.400  0.00  0.00    +0.000 A 
ATOM     15  C   UNL     1       7.188   5.317  14.091  0.00  0.00    +0.000 A 
ATOM     16  C   UNL     1       7.871   5.066  12.897  0.00  0.00    +0.000 A 
ATOM     17  C   UNL     1       7.370   4.140  11.991  0.00  0.00    +0.000 A 
ATOM     18  C   UNL     1       6.190   3.461  12.279  0.00  0.00    +0.000 A 
ATOM     19  C   UNL     1       5.501   3.724  13.469  0.00  0.00    +0.000 A 
ENDBRANCH  11  14
ENDBRANCH   1   8
BRANCH   1  20
ATOM     20  O   UNL     1       2.520   7.071  19.312  0.00  0.00    +0.000 OA
BRANCH  20  21
ATOM     21  C   UNL     1       1.650   7.380  20.402  0.00  0.00    +0.000 C 
BRANCH  21  22
ATOM     22  C   UNL     1       1.871   8.764  21.003  0.00  0.00    +0.000 C 
BRANCH  22  28
ATOM     23  C   UNL     1      -0.310   9.554  23.080  0.00  0.00    +0.000 C 
ATOM     24  C   UNL     1      -0.197  10.059  21.684  0.00  0.00    +0.000 A 
ATOM     25  N   UNL     1      -1.008  10.958  21.153  0.00  0.00    +0.000 NA
ATOM     26  C   UNL     1      -0.588  11.143  19.863  0.00  0.00    +0.000 A 
ATOM     27  C   UNL     1       0.482  10.340  19.605  0.00  0.00    +0.000 A 
ATOM     28  N   UNL     1       0.757   9.660  20.760  0.00  0.00    +0.000 N 
BRANCH  27  29
ATOM     29  N   UNL     1       1.215  10.204  18.405  0.00  0.00    +0.000 N 
ATOM     30  O   UNL     1       0.856   9.304  17.642  0.00  0.00    +0.000 OA
ATOM     31  O   UNL     1       2.140  10.999  18.224  0.00  0.00    +0.000 OA
ENDBRANCH  27  29
ENDBRANCH  22  28
ENDBRANCH  21  22
ENDBRANCH  20  21
ENDBRANCH   1  20
TORSDOF 8
ENDMDL
