MODEL 1
REMARK VINA RESULT:      -7.6      0.000      0.000
REMARK  Name = 
REMARK  9 active torsions:
REMARK  status: ('A' for Active; 'I' for Inactive)
REMARK    1  A    between atoms: C_1  and  O_2
REMARK    2  A    between atoms: O_2  and  C_3
REMARK    3  A    between atoms: C_3  and  C_5
REMARK    4  A    between atoms: C_5  and  C_6
REMARK    5  A    between atoms: C_6  and  N_7
REMARK    6  A    between atoms: C_8  and  C_10
REMARK    7  A    between atoms: C_14  and  C_15
REMARK    8  A    between atoms: C_15  and  N_16
REMARK    9  A    between atoms: C_24  and  C_25
REMARK                            x       y       z     vdW  Elec       q    Type
REMARK                         _______ _______ _______ _____ _____    ______ ____
ROOT
ATOM      1  C   UNL     1       2.405   3.516  19.106  0.00  0.00    +0.000 A 
ATOM      2  C   UNL     1       1.547   2.585  19.775  0.00  0.00    +0.000 A 
ATOM      3  C   UNL     1       1.233   3.131  20.993  0.00  0.00    +0.000 A 
ATOM      4  O   UNL     1       1.827   4.336  21.133  0.00  0.00    +0.000 OA
ATOM      5  C   UNL     1       2.557   4.571  20.000  0.00  0.00    +0.000 A 
ENDROOT
BRANCH   1   7
ATOM      6  N   UNL     1       4.398   3.458  17.770  0.00  0.00    +0.000 N 
ATOM      7  C   UNL     1       3.012   3.434  17.780  0.00  0.00    +0.000 C 
ATOM      8  O   UNL     1       2.350   3.329  16.754  0.00  0.00    +0.000 OA
ATOM      9  H   UNL     1       4.875   3.254  18.636  0.00  0.00    +0.000 HD
BRANCH   6  10
ATOM     10  C   UNL     1       5.146   3.294  16.534  0.00  0.00    +0.000 C 
BRANCH  10  11
ATOM     11  C   UNL     1       5.465   4.627  15.871  0.00  0.00    +0.000 C 
BRANCH  11  12
ATOM     12  C   UNL     1       6.811   5.115  16.336  0.00  0.00    +0.000 C 
ATOM     13  O   UNL     1       7.512   5.909  15.722  0.00  0.00    +0.000 OA
BRANCH  12  15
ATOM     14  C   UNL     1       7.659   5.427  18.496  0.00  0.00    +0.000 C 
ATOM     15  O   UNL     1       7.159   4.518  17.511  0.00  0.00    +0.000 OA
ENDBRANCH  12  15
ENDBRANCH  11  12
ENDBRANCH  10  11
ENDBRANCH   6  10
ENDBRANCH   1   7
BRANCH   5  16
ATOM     16  C   UNL     1       3.264   5.894  19.963  0.00  0.00    +0.000 C 
BRANCH  16  17
ATOM     17  N   UNL     1       2.576   7.009  19.336  0.00  0.00    +0.000 N 
ATOM     18  C   UNL     1       1.759   7.924  19.974  0.00  0.00    +0.000 A 
ATOM     19  C   UNL     1       1.291   7.919  21.277  0.00  0.00    +0.000 A 
ATOM     20  C   UNL     1       0.479   8.971  21.722  0.00  0.00    +0.000 A 
ATOM     21  C   UNL     1       0.151  10.033  20.870  0.00  0.00    +0.000 A 
ATOM     22  C   UNL     1       0.610  10.041  19.556  0.00  0.00    +0.000 A 
ATOM     23  C   UNL     1       1.390   8.974  19.128  0.00  0.00    +0.000 A 
ATOM     24  C   UNL     1       1.994   8.773  17.778  0.00  0.00    +0.000 C 
ATOM     25  C   UNL     1       2.610   7.349  17.906  0.00  0.00    +0.000 C 
ATOM     26  C   UNL     1       4.003   7.339  17.290  0.00  0.00    +0.000 C 
ENDBRANCH  16  17
ENDBRANCH   5  16
TORSDOF 7
ENDMDL
MODEL 2
REMARK VINA RESULT:      -7.6      1.245      1.605
REMARK  Name = 
REMARK  9 active torsions:
REMARK  status: ('A' for Active; 'I' for Inactive)
REMARK    1  A    between atoms: C_1  and  O_2
REMARK    2  A    between atoms: O_2  and  C_3
REMARK    3  A    between atoms: C_3  and  C_5
REMARK    4  A    between atoms: C_5  and  C_6
REMARK    5  A    between atoms: C_6  and  N_7
REMARK    6  A    between atoms: C_8  and  C_10
REMARK    7  A    between atoms: C_14  and  C_15
REMARK    8  A    between atoms: C_15  and  N_16
REMARK    9  A    between atoms: C_24  and  C_25
REMARK                            x       y       z     vdW  Elec       q    Type
REMARK                         _______ _______ _______ _____ _____    ______ ____
ROOT
ATOM      1  C   UNL     1       2.857   3.762  18.685  0.00  0.00    +0.000 A 
ATOM      2  C   UNL     1       1.909   2.692  18.770  0.00  0.00    +0.000 A 
ATOM      3  C   UNL     1       1.006   3.033  19.744  0.00  0.00    +0.000 A 
ATOM      4  O   UNL     1       1.315   4.237  20.270  0.00  0.00    +0.000 OA
ATOM      5  C   UNL     1       2.450   4.681  19.646  0.00  0.00    +0.000 A 
ENDROOT
BRANCH   1   7
ATOM      6  N   UNL     1       5.226   4.075  18.452  0.00  0.00    +0.000 N 
ATOM      7  C   UNL     1       4.011   3.912  17.803  0.00  0.00    +0.000 C 
ATOM      8  O   UNL     1       3.920   3.876  16.581  0.00  0.00    +0.000 OA
ATOM      9  H   UNL     1       5.274   3.810  19.425  0.00  0.00    +0.000 HD
BRANCH   6  10
ATOM     10  C   UNL     1       6.474   4.148  17.710  0.00  0.00    +0.000 C 
BRANCH  10  11
ATOM     11  C   UNL     1       6.988   5.576  17.582  0.00  0.00    +0.000 C 
BRANCH  11  12
ATOM     12  C   UNL     1       7.600   6.013  18.886  0.00  0.00    +0.000 C 
ATOM     13  O   UNL     1       7.479   5.412  19.945  0.00  0.00    +0.000 OA
BRANCH  12  15
ATOM     14  C   UNL     1       7.785   7.994  17.652  0.00  0.00    +0.000 C 
ATOM     15  O   UNL     1       8.268   7.191  18.732  0.00  0.00    +0.000 OA
ENDBRANCH  12  15
ENDBRANCH  11  12
ENDBRANCH  10  11
ENDBRANCH   6  10
ENDBRANCH   1   7
BRANCH   5  16
ATOM     16  C   UNL     1       2.926   6.035  20.083  0.00  0.00    +0.000 C 
BRANCH  16  17
ATOM     17  N   UNL     1       2.315   7.197  19.462  0.00  0.00    +0.000 N 
ATOM     18  C   UNL     1       1.561   8.162  20.105  0.00  0.00    +0.000 A 
ATOM     19  C   UNL     1       1.094   8.182  21.408  0.00  0.00    +0.000 A 
ATOM     20  C   UNL     1       0.356   9.284  21.860  0.00  0.00    +0.000 A 
ATOM     21  C   UNL     1       0.100  10.370  21.013  0.00  0.00    +0.000 A 
ATOM     22  C   UNL     1       0.558  10.353  19.699  0.00  0.00    +0.000 A 
ATOM     23  C   UNL     1       1.263   9.239  19.265  0.00  0.00    +0.000 A 
ATOM     24  C   UNL     1       1.852   9.005  17.914  0.00  0.00    +0.000 C 
ATOM     25  C   UNL     1       2.371   7.542  18.034  0.00  0.00    +0.000 C 
ATOM     26  C   UNL     1       3.760   7.442  17.417  0.00  0.00    +0.000 C 
ENDBRANCH  16  17
ENDBRANCH   5  16
TORSDOF 7
ENDMDL
MODEL 3
REMARK VINA RESULT:      -7.5      1.450      2.202
REMARK  Name = 
REMARK  9 active torsions:
REMARK  status: ('A' for Active; 'I' for Inactive)
REMARK    1  A    between atoms: C_1  and  O_2
REMARK    2  A    between atoms: O_2  and  C_3
REMARK    3  A    between atoms: C_3  and  C_5
REMARK    4  A    between atoms: C_5  and  C_6
REMARK    5  A    between atoms: C_6  and  N_7
REMARK    6  A    between atoms: C_8  and  C_10
REMARK    7  A    between atoms: C_14  and  C_15
REMARK    8  A    between atoms: C_15  and  N_16
REMARK    9  A    between atoms: C_24  and  C_25
REMARK                            x       y       z     vdW  Elec       q    Type
REMARK                         _______ _______ _______ _____ _____    ______ ____
ROOT
ATOM      1  C   UNL     1       3.853   3.815  18.616  0.00  0.00    +0.000 A 
ATOM      2  C   UNL     1       3.132   2.709  18.064  0.00  0.00    +0.000 A 
ATOM      3  C   UNL     1       1.815   2.876  18.410  0.00  0.00    +0.000 A 
ATOM      4  O   UNL     1       1.660   4.006  19.132  0.00  0.00    +0.000 OA
ATOM      5  C   UNL     1       2.896   4.575  19.280  0.00  0.00    +0.000 A 
ENDROOT
BRANCH   1   7
ATOM      6  N   UNL     1       5.820   4.041  17.258  0.00  0.00    +0.000 N 
ATOM      7  C   UNL     1       5.277   4.131  18.530  0.00  0.00    +0.000 C 
ATOM      8  O   UNL     1       5.939   4.472  19.504  0.00  0.00    +0.000 OA
ATOM      9  H   UNL     1       5.181   4.043  16.477  0.00  0.00    +0.000 HD
BRANCH   6  10
ATOM     10  C   UNL     1       7.203   4.412  17.000  0.00  0.00    +0.000 C 
BRANCH  10  11
ATOM     11  C   UNL     1       7.385   5.047  15.628  0.00  0.00    +0.000 C 
BRANCH  11  12
ATOM     12  C   UNL     1       6.173   4.773  14.778  0.00  0.00    +0.000 C 
ATOM     13  O   UNL     1       5.220   5.532  14.664  0.00  0.00    +0.000 OA
BRANCH  12  15
ATOM     14  C   UNL     1       6.193   3.582  12.763  0.00  0.00    +0.000 C 
ATOM     15  O   UNL     1       6.265   3.546  14.190  0.00  0.00    +0.000 OA
ENDBRANCH  12  15
ENDBRANCH  11  12
ENDBRANCH  10  11
ENDBRANCH   6  10
ENDBRANCH   1   7
BRANCH   5  16
ATOM     16  C   UNL     1       2.913   5.872  20.034  0.00  0.00    +0.000 C 
BRANCH  16  17
ATOM     17  N   UNL     1       2.387   7.048  19.364  0.00  0.00    +0.000 N 
ATOM     18  C   UNL     1       1.619   8.041  19.945  0.00  0.00    +0.000 A 
ATOM     19  C   UNL     1       1.057   8.085  21.209  0.00  0.00    +0.000 A 
ATOM     20  C   UNL     1       0.323   9.213  21.599  0.00  0.00    +0.000 A 
ATOM     21  C   UNL     1       0.166  10.301  20.730  0.00  0.00    +0.000 A 
ATOM     22  C   UNL     1       0.720  10.261  19.454  0.00  0.00    +0.000 A 
ATOM     23  C   UNL     1       1.420   9.122  19.079  0.00  0.00    +0.000 A 
ATOM     24  C   UNL     1       2.100   8.859  17.777  0.00  0.00    +0.000 C 
ATOM     25  C   UNL     1       2.561   7.381  17.943  0.00  0.00    +0.000 C 
ATOM     26  C   UNL     1       3.988   7.232  17.432  0.00  0.00    +0.000 C 
ENDBRANCH  16  17
ENDBRANCH   5  16
TORSDOF 7
ENDMDL
MODEL 4
REMARK VINA RESULT:      -7.4      1.488      2.101
REMARK  Name = 
REMARK  9 active torsions:
REMARK  status: ('A' for Active; 'I' for Inactive)
REMARK    1  A    between atoms: C_1  and  O_2
REMARK    2  A    between atoms: O_2  and  C_3
REMARK    3  A    between atoms: C_3  and  C_5
REMARK    4  A    between atoms: C_5  and  C_6
REMARK    5  A    between atoms: C_6  and  N_7
REMARK    6  A    between atoms: C_8  and  C_10
REMARK    7  A    between atoms: C_14  and  C_15
REMARK    8  A    between atoms: C_15  and  N_16
REMARK    9  A    between atoms: C_24  and  C_25
REMARK                            x       y       z     vdW  Elec       q    Type
REMARK                         _______ _______ _______ _____ _____    ______ ____
ROOT
ATOM      1  C   UNL     1       3.105   3.517  18.537  0.00  0.00    +0.000 A 
ATOM      2  C   UNL     1       2.141   2.505  18.227  0.00  0.00    +0.000 A 
ATOM      3  C   UNL     1       0.977   2.850  18.865  0.00  0.00    +0.000 A 
ATOM      4  O   UNL     1       1.140   4.004  19.546  0.00  0.00    +0.000 OA
ATOM      5  C   UNL     1       2.436   4.409  19.369  0.00  0.00    +0.000 A 
ENDROOT
BRANCH   1   7
ATOM      6  N   UNL     1       4.664   3.861  16.745  0.00  0.00    +0.000 N 
ATOM      7  C   UNL     1       4.494   3.641  18.103  0.00  0.00    +0.000 C 
ATOM      8  O   UNL     1       5.439   3.578  18.881  0.00  0.00    +0.000 OA
ATOM      9  H   UNL     1       3.865   4.186  16.221  0.00  0.00    +0.000 HD
BRANCH   6  10
ATOM     10  C   UNL     1       5.983   4.094  16.178  0.00  0.00    +0.000 C 
BRANCH  10  11
ATOM     11  C   UNL     1       6.033   3.792  14.686  0.00  0.00    +0.000 C 
BRANCH  11  12
ATOM     12  C   UNL     1       7.039   4.691  14.020  0.00  0.00    +0.000 C 
ATOM     13  O   UNL     1       7.825   5.415  14.617  0.00  0.00    +0.000 OA
BRANCH  12  15
ATOM     14  C   UNL     1       6.548   3.327  12.182  0.00  0.00    +0.000 C 
ATOM     15  O   UNL     1       6.924   4.620  12.664  0.00  0.00    +0.000 OA
ENDBRANCH  12  15
ENDBRANCH  11  12
ENDBRANCH  10  11
ENDBRANCH   6  10
ENDBRANCH   1   7
BRANCH   5  16
ATOM     16  C   UNL     1       2.793   5.706  20.032  0.00  0.00    +0.000 C 
BRANCH  16  17
ATOM     17  N   UNL     1       2.314   6.931  19.417  0.00  0.00    +0.000 N 
ATOM     18  C   UNL     1       1.581   7.924  20.042  0.00  0.00    +0.000 A 
ATOM     19  C   UNL     1       1.016   7.929  21.306  0.00  0.00    +0.000 A 
ATOM     20  C   UNL     1       0.322   9.064  21.747  0.00  0.00    +0.000 A 
ATOM     21  C   UNL     1       0.209  10.196  20.931  0.00  0.00    +0.000 A 
ATOM     22  C   UNL     1       0.767  10.196  19.655  0.00  0.00    +0.000 A 
ATOM     23  C   UNL     1       1.426   9.050  19.229  0.00  0.00    +0.000 A 
ATOM     24  C   UNL     1       2.101   8.824  17.917  0.00  0.00    +0.000 C 
ATOM     25  C   UNL     1       2.506   7.325  18.014  0.00  0.00    +0.000 C 
ATOM     26  C   UNL     1       3.928   7.146  17.500  0.00  0.00    +0.000 C 
ENDBRANCH  16  17
ENDBRANCH   5  16
TORSDOF 7
ENDMDL
MODEL 5
REMARK VINA RESULT:      -7.2      1.335      1.599
REMARK  Name = 
REMARK  9 active torsions:
REMARK  status: ('A' for Active; 'I' for Inactive)
REMARK    1  A    between atoms: C_1  and  O_2
REMARK    2  A    between atoms: O_2  and  C_3
REMARK    3  A    between atoms: C_3  and  C_5
REMARK    4  A    between atoms: C_5  and  C_6
REMARK    5  A    between atoms: C_6  and  N_7
REMARK    6  A    between atoms: C_8  and  C_10
REMARK    7  A    between atoms: C_14  and  C_15
REMARK    8  A    between atoms: C_15  and  N_16
REMARK    9  A    between atoms: C_24  and  C_25
REMARK                            x       y       z     vdW  Elec       q    Type
REMARK                         _______ _______ _______ _____ _____    ______ ____
ROOT
ATOM      1  C   UNL     1       3.092   3.547  19.089  0.00  0.00    +0.000 A 
ATOM      2  C   UNL     1       2.093   2.562  18.805  0.00  0.00    +0.000 A 
ATOM      3  C   UNL     1       0.894   3.072  19.234  0.00  0.00    +0.000 A 
ATOM      4  O   UNL     1       1.068   4.303  19.760  0.00  0.00    +0.000 OA
ATOM      5  C   UNL     1       2.404   4.594  19.694  0.00  0.00    +0.000 A 
ENDROOT
BRANCH   1   7
ATOM      6  N   UNL     1       4.904   4.033  17.592  0.00  0.00    +0.000 N 
ATOM      7  C   UNL     1       4.528   3.518  18.823  0.00  0.00    +0.000 C 
ATOM      8  O   UNL     1       5.343   3.091  19.633  0.00  0.00    +0.000 OA
ATOM      9  H   UNL     1       4.240   4.620  17.109  0.00  0.00    +0.000 HD
BRANCH   6  10
ATOM     10  C   UNL     1       6.306   4.153  17.222  0.00  0.00    +0.000 C 
BRANCH  10  11
ATOM     11  C   UNL     1       7.083   5.046  18.180  0.00  0.00    +0.000 C 
BRANCH  11  12
ATOM     12  C   UNL     1       7.491   6.312  17.476  0.00  0.00    +0.000 C 
ATOM     13  O   UNL     1       7.473   6.467  16.262  0.00  0.00    +0.000 OA
BRANCH  12  15
ATOM     14  C   UNL     1       8.074   8.552  17.820  0.00  0.00    +0.000 C 
ATOM     15  O   UNL     1       7.926   7.242  18.372  0.00  0.00    +0.000 OA
ENDBRANCH  12  15
ENDBRANCH  11  12
ENDBRANCH  10  11
ENDBRANCH   6  10
ENDBRANCH   1   7
BRANCH   5  16
ATOM     16  C   UNL     1       2.784   5.952  20.207  0.00  0.00    +0.000 C 
BRANCH  16  17
ATOM     17  N   UNL     1       2.273   7.109  19.493  0.00  0.00    +0.000 N 
ATOM     18  C   UNL     1       1.504   8.125  20.034  0.00  0.00    +0.000 A 
ATOM     19  C   UNL     1       0.930   8.212  21.290  0.00  0.00    +0.000 A 
ATOM     20  C   UNL     1       0.198   9.357  21.636  0.00  0.00    +0.000 A 
ATOM     21  C   UNL     1       0.056  10.416  20.731  0.00  0.00    +0.000 A 
ATOM     22  C   UNL     1       0.623  10.332  19.462  0.00  0.00    +0.000 A 
ATOM     23  C   UNL     1       1.320   9.178  19.132  0.00  0.00    +0.000 A 
ATOM     24  C   UNL     1       2.012   8.869  17.846  0.00  0.00    +0.000 C 
ATOM     25  C   UNL     1       2.462   7.395  18.064  0.00  0.00    +0.000 C 
ATOM     26  C   UNL     1       3.894   7.222  17.573  0.00  0.00    +0.000 C 
ENDBRANCH  16  17
ENDBRANCH   5  16
TORSDOF 7
ENDMDL
MODEL 6
REMARK VINA RESULT:      -7.1      3.299      5.341
REMARK  Name = 
REMARK  9 active torsions:
REMARK  status: ('A' for Active; 'I' for Inactive)
REMARK    1  A    between atoms: C_1  and  O_2
REMARK    2  A    between atoms: O_2  and  C_3
REMARK    3  A    between atoms: C_3  and  C_5
REMARK    4  A    between atoms: C_5  and  C_6
REMARK    5  A    between atoms: C_6  and  N_7
REMARK    6  A    between atoms: C_8  and  C_10
REMARK    7  A    between atoms: C_14  and  C_15
REMARK    8  A    between atoms: C_15  and  N_16
REMARK    9  A    between atoms: C_24  and  C_25
REMARK                            x       y       z     vdW  Elec       q    Type
REMARK                         _______ _______ _______ _____ _____    ______ ____
ROOT
ATOM      1  C   UNL     1       7.056   5.660  17.876  0.00  0.00    +0.000 A 
ATOM      2  C   UNL     1       8.300   5.485  18.562  0.00  0.00    +0.000 A 
ATOM      3  C   UNL     1       8.004   5.308  19.890  0.00  0.00    +0.000 A 
ATOM      4  O   UNL     1       6.669   5.354  20.083  0.00  0.00    +0.000 OA
ATOM      5  C   UNL     1       6.084   5.587  18.867  0.00  0.00    +0.000 A 
ENDROOT
BRANCH   1   7
ATOM      6  N   UNL     1       7.312   4.887  15.617  0.00  0.00    +0.000 N 
ATOM      7  C   UNL     1       6.801   5.869  16.452  0.00  0.00    +0.000 C 
ATOM      8  O   UNL     1       6.166   6.827  16.027  0.00  0.00    +0.000 OA
ATOM      9  H   UNL     1       7.561   4.003  16.035  0.00  0.00    +0.000 HD
BRANCH   6  10
ATOM     10  C   UNL     1       7.062   4.911  14.185  0.00  0.00    +0.000 C 
BRANCH  10  11
ATOM     11  C   UNL     1       6.260   3.703  13.718  0.00  0.00    +0.000 C 
BRANCH  11  12
ATOM     12  C   UNL     1       6.440   3.518  12.235  0.00  0.00    +0.000 C 
ATOM     13  O   UNL     1       7.246   4.136  11.551  0.00  0.00    +0.000 OA
BRANCH  12  15
ATOM     14  C   UNL     1       4.287   3.160  11.388  0.00  0.00    +0.000 C 
ATOM     15  O   UNL     1       5.552   2.603  11.753  0.00  0.00    +0.000 OA
ENDBRANCH  12  15
ENDBRANCH  11  12
ENDBRANCH  10  11
ENDBRANCH   6  10
ENDBRANCH   1   7
BRANCH   5  16
ATOM     16  C   UNL     1       4.584   5.635  18.884  0.00  0.00    +0.000 C 
BRANCH  16  17
ATOM     17  N   UNL     1       3.868   4.375  18.786  0.00  0.00    +0.000 N 
ATOM     18  C   UNL     1       3.006   3.854  19.734  0.00  0.00    +0.000 A 
ATOM     19  C   UNL     1       2.739   4.304  21.015  0.00  0.00    +0.000 A 
ATOM     20  C   UNL     1       1.803   3.623  21.805  0.00  0.00    +0.000 A 
ATOM     21  C   UNL     1       1.124   2.504  21.306  0.00  0.00    +0.000 A 
ATOM     22  C   UNL     1       1.393   2.040  20.021  0.00  0.00    +0.000 A 
ATOM     23  C   UNL     1       2.344   2.713  19.267  0.00  0.00    +0.000 A 
ATOM     24  C   UNL     1       2.788   2.405  17.876  0.00  0.00    +0.000 C 
ATOM     25  C   UNL     1       3.950   3.420  17.672  0.00  0.00    +0.000 C 
ATOM     26  C   UNL     1       3.837   4.053  16.292  0.00  0.00    +0.000 C 
ENDBRANCH  16  17
ENDBRANCH   5  16
TORSDOF 7
ENDMDL
MODEL 7
REMARK VINA RESULT:      -7.1      1.053      1.420
REMARK  Name = 
REMARK  9 active torsions:
REMARK  status: ('A' for Active; 'I' for Inactive)
REMARK    1  A    between atoms: C_1  and  O_2
REMARK    2  A    between atoms: O_2  and  C_3
REMARK    3  A    between atoms: C_3  and  C_5
REMARK    4  A    between atoms: C_5  and  C_6
REMARK    5  A    between atoms: C_6  and  N_7
REMARK    6  A    between atoms: C_8  and  C_10
REMARK    7  A    between atoms: C_14  and  C_15
REMARK    8  A    between atoms: C_15  and  N_16
REMARK    9  A    between atoms: C_24  and  C_25
REMARK                            x       y       z     vdW  Elec       q    Type
REMARK                         _______ _______ _______ _____ _____    ______ ____
ROOT
ATOM      1  C   UNL     1       2.689   3.644  19.445  0.00  0.00    +0.000 A 
ATOM      2  C   UNL     1       1.595   2.746  19.658  0.00  0.00    +0.000 A 
ATOM      3  C   UNL     1       0.651   3.429  20.382  0.00  0.00    +0.000 A 
ATOM      4  O   UNL     1       1.071   4.687  20.632  0.00  0.00    +0.000 OA
ATOM      5  C   UNL     1       2.318   4.823  20.083  0.00  0.00    +0.000 A 
ENDROOT
BRANCH   1   7
ATOM      6  N   UNL     1       3.837   3.492  17.342  0.00  0.00    +0.000 N 
ATOM      7  C   UNL     1       3.941   3.428  18.723  0.00  0.00    +0.000 C 
ATOM      8  O   UNL     1       5.008   3.227  19.293  0.00  0.00    +0.000 OA
ATOM      9  H   UNL     1       3.018   3.938  16.956  0.00  0.00    +0.000 HD
BRANCH   6  10
ATOM     10  C   UNL     1       5.013   3.387  16.492  0.00  0.00    +0.000 C 
BRANCH  10  11
ATOM     11  C   UNL     1       5.660   4.740  16.231  0.00  0.00    +0.000 C 
BRANCH  11  12
ATOM     12  C   UNL     1       7.139   4.654  16.496  0.00  0.00    +0.000 C 
ATOM     13  O   UNL     1       7.644   4.625  17.611  0.00  0.00    +0.000 OA
BRANCH  12  15
ATOM     14  C   UNL     1       7.055   5.017  14.185  0.00  0.00    +0.000 C 
ATOM     15  O   UNL     1       7.839   4.658  15.326  0.00  0.00    +0.000 OA
ENDBRANCH  12  15
ENDBRANCH  11  12
ENDBRANCH  10  11
ENDBRANCH   6  10
ENDBRANCH   1   7
BRANCH   5  16
ATOM     16  C   UNL     1       2.934   6.182  20.234  0.00  0.00    +0.000 C 
BRANCH  16  17
ATOM     17  N   UNL     1       2.288   7.294  19.558  0.00  0.00    +0.000 N 
ATOM     18  C   UNL     1       1.531   8.283  20.160  0.00  0.00    +0.000 A 
ATOM     19  C   UNL     1       1.093   8.374  21.470  0.00  0.00    +0.000 A 
ATOM     20  C   UNL     1       0.344   9.489  21.871  0.00  0.00    +0.000 A 
ATOM     21  C   UNL     1       0.050  10.517  20.966  0.00  0.00    +0.000 A 
ATOM     22  C   UNL     1       0.479  10.428  19.645  0.00  0.00    +0.000 A 
ATOM     23  C   UNL     1       1.195   9.302  19.263  0.00  0.00    +0.000 A 
ATOM     24  C   UNL     1       1.758   8.996  17.915  0.00  0.00    +0.000 C 
ATOM     25  C   UNL     1       2.306   7.552  18.111  0.00  0.00    +0.000 C 
ATOM     26  C   UNL     1       3.683   7.438  17.470  0.00  0.00    +0.000 C 
ENDBRANCH  16  17
ENDBRANCH   5  16
TORSDOF 7
ENDMDL
MODEL 8
REMARK VINA RESULT:      -6.9      1.594      2.950
REMARK  Name = 
REMARK  9 active torsions:
REMARK  status: ('A' for Active; 'I' for Inactive)
REMARK    1  A    between atoms: C_1  and  O_2
REMARK    2  A    between atoms: O_2  and  C_3
REMARK    3  A    between atoms: C_3  and  C_5
REMARK    4  A    between atoms: C_5  and  C_6
REMARK    5  A    between atoms: C_6  and  N_7
REMARK    6  A    between atoms: C_8  and  C_10
REMARK    7  A    between atoms: C_14  and  C_15
REMARK    8  A    between atoms: C_15  and  N_16
REMARK    9  A    between atoms: C_24  and  C_25
REMARK                            x       y       z     vdW  Elec       q    Type
REMARK                         _______ _______ _______ _____ _____    ______ ____
ROOT
ATOM      1  C   UNL     1       4.161   3.413  18.569  0.00  0.00    +0.000 A 
ATOM      2  C   UNL     1       3.832   2.021  18.607  0.00  0.00    +0.000 A 
ATOM      3  C   UNL     1       2.533   1.904  18.182  0.00  0.00    +0.000 A 
ATOM      4  O   UNL     1       2.029   3.118  17.875  0.00  0.00    +0.000 OA
ATOM      5  C   UNL     1       3.004   4.045  18.126  0.00  0.00    +0.000 A 
ENDROOT
BRANCH   1   7
ATOM      6  N   UNL     1       6.393   4.017  17.923  0.00  0.00    +0.000 N 
ATOM      7  C   UNL     1       5.416   4.081  18.905  0.00  0.00    +0.000 C 
ATOM      8  O   UNL     1       5.588   4.673  19.965  0.00  0.00    +0.000 OA
ATOM      9  H   UNL     1       6.099   3.778  16.988  0.00  0.00    +0.000 HD
BRANCH   6  10
ATOM     10  C   UNL     1       7.663   4.710  18.076  0.00  0.00    +0.000 C 
BRANCH  10  11
ATOM     11  C   UNL     1       7.480   6.172  18.458  0.00  0.00    +0.000 C 
BRANCH  11  12
ATOM     12  C   UNL     1       7.324   7.005  17.215  0.00  0.00    +0.000 C 
ATOM     13  O   UNL     1       7.665   8.177  17.117  0.00  0.00    +0.000 OA
BRANCH  12  15
ATOM     14  C   UNL     1       5.346   6.661  16.011  0.00  0.00    +0.000 C 
ATOM     15  O   UNL     1       6.709   6.290  16.231  0.00  0.00    +0.000 OA
ENDBRANCH  12  15
ENDBRANCH  11  12
ENDBRANCH  10  11
ENDBRANCH   6  10
ENDBRANCH   1   7
BRANCH   5  16
ATOM     16  C   UNL     1       2.629   5.463  17.806  0.00  0.00    +0.000 C 
BRANCH  16  17
ATOM     17  N   UNL     1       2.264   6.329  18.914  0.00  0.00    +0.000 N 
ATOM     18  C   UNL     1       2.012   7.687  18.836  0.00  0.00    +0.000 A 
ATOM     19  C   UNL     1       2.186   8.548  17.767  0.00  0.00    +0.000 A 
ATOM     20  C   UNL     1       1.844   9.900  17.908  0.00  0.00    +0.000 A 
ATOM     21  C   UNL     1       1.314  10.383  19.111  0.00  0.00    +0.000 A 
ATOM     22  C   UNL     1       1.145   9.525  20.194  0.00  0.00    +0.000 A 
ATOM     23  C   UNL     1       1.517   8.196  20.041  0.00  0.00    +0.000 A 
ATOM     24  C   UNL     1       1.421   7.102  21.051  0.00  0.00    +0.000 C 
ATOM     25  C   UNL     1       2.118   5.919  20.318  0.00  0.00    +0.000 C 
ATOM     26  C   UNL     1       1.307   4.646  20.520  0.00  0.00    +0.000 C 
ENDBRANCH  16  17
ENDBRANCH   5  16
TORSDOF 7
ENDMDL
MODEL 9
REMARK VINA RESULT:      -6.9      2.633      4.734
REMARK  Name = 
REMARK  9 active torsions:
REMARK  status: ('A' for Active; 'I' for Inactive)
REMARK    1  A    between atoms: C_1  and  O_2
REMARK    2  A    between atoms: O_2  and  C_3
REMARK    3  A    between atoms: C_3  and  C_5
REMARK    4  A    between atoms: C_5  and  C_6
REMARK    5  A    between atoms: C_6  and  N_7
REMARK    6  A    between atoms: C_8  and  C_10
REMARK    7  A    between atoms: C_14  and  C_15
REMARK    8  A    between atoms: C_15  and  N_16
REMARK    9  A    between atoms: C_24  and  C_25
REMARK                            x       y       z     vdW  Elec       q    Type
REMARK                         _______ _______ _______ _____ _____    ______ ____
ROOT
ATOM      1  C   UNL     1       6.647   5.567  17.413  0.00  0.00    +0.000 A 
ATOM      2  C   UNL     1       7.766   6.035  18.174  0.00  0.00    +0.000 A 
ATOM      3  C   UNL     1       7.510   5.737  19.488  0.00  0.00    +0.000 A 
ATOM      4  O   UNL     1       6.319   5.114  19.605  0.00  0.00    +0.000 OA
ATOM      5  C   UNL     1       5.776   5.022  18.351  0.00  0.00    +0.000 A 
ENDROOT
BRANCH   1   7
ATOM      6  N   UNL     1       7.058   4.629  15.242  0.00  0.00    +0.000 N 
ATOM      7  C   UNL     1       6.416   5.619  15.972  0.00  0.00    +0.000 C 
ATOM      8  O   UNL     1       5.694   6.458  15.446  0.00  0.00    +0.000 OA
ATOM      9  H   UNL     1       7.389   3.819  15.745  0.00  0.00    +0.000 HD
BRANCH   6  10
ATOM     10  C   UNL     1       6.853   4.497  13.808  0.00  0.00    +0.000 C 
BRANCH  10  11
ATOM     11  C   UNL     1       5.569   3.749  13.475  0.00  0.00    +0.000 C 
BRANCH  11  12
ATOM     12  C   UNL     1       5.672   3.157  12.095  0.00  0.00    +0.000 C 
ATOM     13  O   UNL     1       4.714   2.891  11.381  0.00  0.00    +0.000 OA
BRANCH  12  15
ATOM     14  C   UNL     1       7.176   1.697  11.052  0.00  0.00    +0.000 C 
ATOM     15  O   UNL     1       6.974   2.917  11.770  0.00  0.00    +0.000 OA
ENDBRANCH  12  15
ENDBRANCH  11  12
ENDBRANCH  10  11
ENDBRANCH   6  10
ENDBRANCH   1   7
BRANCH   5  16
ATOM     16  C   UNL     1       4.453   4.318  18.282  0.00  0.00    +0.000 C 
BRANCH  16  17
ATOM     17  N   UNL     1       3.502   4.565  19.351  0.00  0.00    +0.000 N 
ATOM     18  C   UNL     1       2.831   5.751  19.586  0.00  0.00    +0.000 A 
ATOM     19  C   UNL     1       3.003   6.987  18.985  0.00  0.00    +0.000 A 
ATOM     20  C   UNL     1       2.189   8.061  19.371  0.00  0.00    +0.000 A 
ATOM     21  C   UNL     1       1.196   7.893  20.344  0.00  0.00    +0.000 A 
ATOM     22  C   UNL     1       1.023   6.656  20.959  0.00  0.00    +0.000 A 
ATOM     23  C   UNL     1       1.858   5.614  20.581  0.00  0.00    +0.000 A 
ATOM     24  C   UNL     1       1.853   4.212  21.094  0.00  0.00    +0.000 C 
ATOM     25  C   UNL     1       3.099   3.603  20.387  0.00  0.00    +0.000 C 
ATOM     26  C   UNL     1       2.757   2.216  19.858  0.00  0.00    +0.000 C 
ENDBRANCH  16  17
ENDBRANCH   5  16
TORSDOF 7
ENDMDL
