MODEL 1
REMARK VINA RESULT:      -6.6      0.000      0.000
REMARK  Name = 
REMARK  7 active torsions:
REMARK  status: ('A' for Active; 'I' for Inactive)
REMARK    1  A    between atoms: C_1  and  C_2
REMARK    2  A    between atoms: C_2  and  C_3
REMARK    3  A    between atoms: C_3  and  C_4
REMARK    4  A    between atoms: C_4  and  C_5
REMARK    5  A    between atoms: C_5  and  C_6
REMARK    6  A    between atoms: C_6  and  C_7
REMARK    7  A    between atoms: C_10  and  C_11
REMARK                            x       y       z     vdW  Elec       q    Type
REMARK                         _______ _______ _______ _____ _____    ______ ____
ROOT
ATOM      1  C   UNL     1       2.944   2.691  18.446  0.00  0.00    +0.000 A 
ATOM      2  C   UNL     1       4.163   2.787  19.134  0.00  0.00    +0.000 A 
ATOM      3  C   UNL     1       5.140   3.696  18.728  0.00  0.00    +0.000 A 
ATOM      4  C   UNL     1       4.934   4.496  17.601  0.00  0.00    +0.000 A 
ATOM      5  C   UNL     1       3.725   4.385  16.900  0.00  0.00    +0.000 A 
ATOM      6  C   UNL     1       2.737   3.490  17.317  0.00  0.00    +0.000 A 
ENDROOT
BRANCH   4   7
ATOM      7  C   UNL     1       5.973   5.410  17.174  0.00  0.00    +0.000 A 
ATOM      8  C   UNL     1       6.846   5.194  16.127  0.00  0.00    +0.000 A 
ATOM      9  N   UNL     1       7.653   6.294  16.111  0.00  0.00    +0.000 N 
ATOM     10  C   UNL     1       7.263   7.116  17.130  0.00  0.00    +0.000 A 
ATOM     11  N   UNL     1       7.891   8.277  17.352  0.00  0.00    +0.000 N 
ATOM     12  N   UNL     1       6.258   6.607  17.794  0.00  0.00    +0.000 NA
ATOM     13  H   UNL     1       8.406   6.480  15.465  0.00  0.00    +0.000 HD
ATOM     14  H   UNL     1       8.852   8.417  17.067  0.00  0.00    +0.000 HD
ATOM     15  H   UNL     1       7.664   8.731  18.232  0.00  0.00    +0.000 HD
ENDBRANCH   4   7
BRANCH   1  16
ATOM     16  C   UNL     1       1.850   1.793  18.966  0.00  0.00    +0.000 C 
BRANCH  16  17
ATOM     17  C   UNL     1       0.859   2.616  19.792  0.00  0.00    +0.000 C 
BRANCH  17  18
ATOM     18  C   UNL     1       1.285   2.766  21.246  0.00  0.00    +0.000 C 
BRANCH  18  19
ATOM     19  C   UNL     1       2.014   4.097  21.429  0.00  0.00    +0.000 C 
BRANCH  19  21
ATOM     20  C   UNL     1       2.462   6.095  19.978  0.00  0.00    +0.000 C 
ATOM     21  C   UNL     1       1.391   5.200  20.579  0.00  0.00    +0.000 C 
ENDBRANCH  19  21
ENDBRANCH  18  19
ENDBRANCH  17  18
ENDBRANCH  16  17
ENDBRANCH   1  16
TORSDOF 6
ENDMDL
MODEL 2
REMARK VINA RESULT:      -6.6      1.590      3.108
REMARK  Name = 
REMARK  7 active torsions:
REMARK  status: ('A' for Active; 'I' for Inactive)
REMARK    1  A    between atoms: C_1  and  C_2
REMARK    2  A    between atoms: C_2  and  C_3
REMARK    3  A    between atoms: C_3  and  C_4
REMARK    4  A    between atoms: C_4  and  C_5
REMARK    5  A    between atoms: C_5  and  C_6
REMARK    6  A    between atoms: C_6  and  C_7
REMARK    7  A    between atoms: C_10  and  C_11
REMARK                            x       y       z     vdW  Elec       q    Type
REMARK                         _______ _______ _______ _____ _____    ______ ____
ROOT
ATOM      1  C   UNL     1       3.179   5.195  19.602  0.00  0.00    +0.000 A 
ATOM      2  C   UNL     1       2.905   5.902  18.421  0.00  0.00    +0.000 A 
ATOM      3  C   UNL     1       3.753   5.799  17.318  0.00  0.00    +0.000 A 
ATOM      4  C   UNL     1       4.912   5.022  17.389  0.00  0.00    +0.000 A 
ATOM      5  C   UNL     1       5.197   4.333  18.577  0.00  0.00    +0.000 A 
ATOM      6  C   UNL     1       4.339   4.418  19.675  0.00  0.00    +0.000 A 
ENDROOT
BRANCH   4   7
ATOM      7  C   UNL     1       5.798   4.953  16.245  0.00  0.00    +0.000 A 
ATOM      8  C   UNL     1       7.034   5.561  16.156  0.00  0.00    +0.000 A 
ATOM      9  N   UNL     1       7.488   5.250  14.907  0.00  0.00    +0.000 N 
ATOM     10  C   UNL     1       6.533   4.494  14.289  0.00  0.00    +0.000 A 
ATOM     11  N   UNL     1       6.712   4.047  13.040  0.00  0.00    +0.000 N 
ATOM     12  N   UNL     1       5.499   4.305  15.068  0.00  0.00    +0.000 NA
ATOM     13  H   UNL     1       8.370   5.522  14.501  0.00  0.00    +0.000 HD
ATOM     14  H   UNL     1       7.325   4.529  12.394  0.00  0.00    +0.000 HD
ATOM     15  H   UNL     1       5.887   3.658  12.596  0.00  0.00    +0.000 HD
ENDBRANCH   4   7
BRANCH   1  16
ATOM     16  C   UNL     1       2.193   5.219  20.743  0.00  0.00    +0.000 C 
BRANCH  16  17
ATOM     17  C   UNL     1       2.273   3.901  21.518  0.00  0.00    +0.000 C 
BRANCH  17  18
ATOM     18  C   UNL     1       1.123   2.957  21.195  0.00  0.00    +0.000 C 
BRANCH  18  19
ATOM     19  C   UNL     1       0.897   2.927  19.683  0.00  0.00    +0.000 C 
BRANCH  19  21
ATOM     20  C   UNL     1       2.269   2.270  17.688  0.00  0.00    +0.000 C 
ATOM     21  C   UNL     1       1.695   1.811  19.017  0.00  0.00    +0.000 C 
ENDBRANCH  19  21
ENDBRANCH  18  19
ENDBRANCH  17  18
ENDBRANCH  16  17
ENDBRANCH   1  16
TORSDOF 6
ENDMDL
MODEL 3
REMARK VINA RESULT:      -6.5      1.127      1.808
REMARK  Name = 
REMARK  7 active torsions:
REMARK  status: ('A' for Active; 'I' for Inactive)
REMARK    1  A    between atoms: C_1  and  C_2
REMARK    2  A    between atoms: C_2  and  C_3
REMARK    3  A    between atoms: C_3  and  C_4
REMARK    4  A    between atoms: C_4  and  C_5
REMARK    5  A    between atoms: C_5  and  C_6
REMARK    6  A    between atoms: C_6  and  C_7
REMARK    7  A    between atoms: C_10  and  C_11
REMARK                            x       y       z     vdW  Elec       q    Type
REMARK                         _______ _______ _______ _____ _____    ______ ____
ROOT
ATOM      1  C   UNL     1       2.869   2.666  19.059  0.00  0.00    +0.000 A 
ATOM      2  C   UNL     1       4.101   3.033  19.622  0.00  0.00    +0.000 A 
ATOM      3  C   UNL     1       5.059   3.706  18.862  0.00  0.00    +0.000 A 
ATOM      4  C   UNL     1       4.819   3.985  17.513  0.00  0.00    +0.000 A 
ATOM      5  C   UNL     1       3.597   3.598  16.945  0.00  0.00    +0.000 A 
ATOM      6  C   UNL     1       2.629   2.944  17.710  0.00  0.00    +0.000 A 
ENDROOT
BRANCH   4   7
ATOM      7  C   UNL     1       5.838   4.653  16.730  0.00  0.00    +0.000 A 
ATOM      8  C   UNL     1       6.622   5.701  17.168  0.00  0.00    +0.000 A 
ATOM      9  N   UNL     1       7.407   6.021  16.099  0.00  0.00    +0.000 N 
ATOM     10  C   UNL     1       7.076   5.187  15.069  0.00  0.00    +0.000 A 
ATOM     11  N   UNL     1       7.692   5.281  13.885  0.00  0.00    +0.000 N 
ATOM     12  N   UNL     1       6.127   4.357  15.416  0.00  0.00    +0.000 NA
ATOM     13  H   UNL     1       8.113   6.742  16.064  0.00  0.00    +0.000 HD
ATOM     14  H   UNL     1       8.114   6.149  13.580  0.00  0.00    +0.000 HD
ATOM     15  H   UNL     1       7.261   4.758  13.129  0.00  0.00    +0.000 HD
ENDBRANCH   4   7
BRANCH   1  16
ATOM     16  C   UNL     1       1.798   2.049  19.922  0.00  0.00    +0.000 C 
BRANCH  16  17
ATOM     17  C   UNL     1       1.339   3.062  20.973  0.00  0.00    +0.000 C 
BRANCH  17  18
ATOM     18  C   UNL     1       0.821   4.356  20.359  0.00  0.00    +0.000 C 
BRANCH  18  19
ATOM     19  C   UNL     1       1.673   5.528  20.845  0.00  0.00    +0.000 C 
BRANCH  19  21
ATOM     20  C   UNL     1       2.041   7.759  19.757  0.00  0.00    +0.000 C 
ATOM     21  C   UNL     1       2.326   6.269  19.682  0.00  0.00    +0.000 C 
ENDBRANCH  19  21
ENDBRANCH  18  19
ENDBRANCH  17  18
ENDBRANCH  16  17
ENDBRANCH   1  16
TORSDOF 6
ENDMDL
MODEL 4
REMARK VINA RESULT:      -6.5      3.686      7.092
REMARK  Name = 
REMARK  7 active torsions:
REMARK  status: ('A' for Active; 'I' for Inactive)
REMARK    1  A    between atoms: C_1  and  C_2
REMARK    2  A    between atoms: C_2  and  C_3
REMARK    3  A    between atoms: C_3  and  C_4
REMARK    4  A    between atoms: C_4  and  C_5
REMARK    5  A    between atoms: C_5  and  C_6
REMARK    6  A    between atoms: C_6  and  C_7
REMARK    7  A    between atoms: C_10  and  C_11
REMARK                            x       y       z     vdW  Elec       q    Type
REMARK                         _______ _______ _______ _____ _____    ______ ____
ROOT
ATOM      1  C   UNL     1       5.057   5.133  16.239  0.00  0.00    +0.000 A 
ATOM      2  C   UNL     1       4.885   3.758  16.455  0.00  0.00    +0.000 A 
ATOM      3  C   UNL     1       3.983   3.294  17.412  0.00  0.00    +0.000 A 
ATOM      4  C   UNL     1       3.267   4.198  18.202  0.00  0.00    +0.000 A 
ATOM      5  C   UNL     1       3.455   5.574  18.002  0.00  0.00    +0.000 A 
ATOM      6  C   UNL     1       4.343   6.039  17.029  0.00  0.00    +0.000 A 
ENDROOT
BRANCH   4   7
ATOM      7  C   UNL     1       2.360   3.700  19.215  0.00  0.00    +0.000 A 
ATOM      8  C   UNL     1       0.995   3.558  19.064  0.00  0.00    +0.000 A 
ATOM      9  N   UNL     1       0.557   3.088  20.268  0.00  0.00    +0.000 N 
ATOM     10  C   UNL     1       1.639   2.975  21.095  0.00  0.00    +0.000 A 
ATOM     11  N   UNL     1       1.499   2.537  22.351  0.00  0.00    +0.000 N 
ATOM     12  N   UNL     1       2.739   3.345  20.491  0.00  0.00    +0.000 NA
ATOM     13  H   UNL     1      -0.394   2.859  20.516  0.00  0.00    +0.000 HD
ATOM     14  H   UNL     1       0.622   2.636  22.847  0.00  0.00    +0.000 HD
ATOM     15  H   UNL     1       2.312   2.660  22.946  0.00  0.00    +0.000 HD
ENDBRANCH   4   7
BRANCH   1  16
ATOM     16  C   UNL     1       5.943   5.619  15.120  0.00  0.00    +0.000 C 
BRANCH  16  17
ATOM     17  C   UNL     1       6.543   4.419  14.383  0.00  0.00    +0.000 C 
BRANCH  17  18
ATOM     18  C   UNL     1       7.429   4.828  13.214  0.00  0.00    +0.000 C 
BRANCH  18  19
ATOM     19  C   UNL     1       6.970   4.103  11.949  0.00  0.00    +0.000 C 
BRANCH  19  21
ATOM     20  C   UNL     1       5.825   1.922  11.473  0.00  0.00    +0.000 C 
ATOM     21  C   UNL     1       5.733   3.249  12.207  0.00  0.00    +0.000 C 
ENDBRANCH  19  21
ENDBRANCH  18  19
ENDBRANCH  17  18
ENDBRANCH  16  17
ENDBRANCH   1  16
TORSDOF 6
ENDMDL
MODEL 5
REMARK VINA RESULT:      -6.4      1.630      2.975
REMARK  Name = 
REMARK  7 active torsions:
REMARK  status: ('A' for Active; 'I' for Inactive)
REMARK    1  A    between atoms: C_1  and  C_2
REMARK    2  A    between atoms: C_2  and  C_3
REMARK    3  A    between atoms: C_3  and  C_4
REMARK    4  A    between atoms: C_4  and  C_5
REMARK    5  A    between atoms: C_5  and  C_6
REMARK    6  A    between atoms: C_6  and  C_7
REMARK    7  A    between atoms: C_10  and  C_11
REMARK                            x       y       z     vdW  Elec       q    Type
REMARK                         _______ _______ _______ _____ _____    ______ ____
ROOT
ATOM      1  C   UNL     1       3.207   5.361  19.576  0.00  0.00    +0.000 A 
ATOM      2  C   UNL     1       4.462   4.746  19.701  0.00  0.00    +0.000 A 
ATOM      3  C   UNL     1       5.343   4.698  18.620  0.00  0.00    +0.000 A 
ATOM      4  C   UNL     1       4.968   5.226  17.382  0.00  0.00    +0.000 A 
ATOM      5  C   UNL     1       3.705   5.821  17.250  0.00  0.00    +0.000 A 
ATOM      6  C   UNL     1       2.831   5.889  18.337  0.00  0.00    +0.000 A 
ENDROOT
BRANCH   4   7
ATOM      7  C   UNL     1       5.882   5.137  16.261  0.00  0.00    +0.000 A 
ATOM      8  C   UNL     1       7.137   5.708  16.208  0.00  0.00    +0.000 A 
ATOM      9  N   UNL     1       7.614   5.390  14.970  0.00  0.00    +0.000 N 
ATOM     10  C   UNL     1       6.652   4.667  14.322  0.00  0.00    +0.000 A 
ATOM     11  N   UNL     1       6.851   4.223  13.075  0.00  0.00    +0.000 N 
ATOM     12  N   UNL     1       5.593   4.505  15.072  0.00  0.00    +0.000 NA
ATOM     13  H   UNL     1       8.514   5.638  14.589  0.00  0.00    +0.000 HD
ATOM     14  H   UNL     1       7.495   4.690  12.448  0.00  0.00    +0.000 HD
ATOM     15  H   UNL     1       6.026   3.862  12.607  0.00  0.00    +0.000 HD
ENDBRANCH   4   7
BRANCH   1  16
ATOM     16  C   UNL     1       2.315   5.514  20.782  0.00  0.00    +0.000 C 
BRANCH  16  17
ATOM     17  C   UNL     1       1.734   4.151  21.166  0.00  0.00    +0.000 C 
BRANCH  17  18
ATOM     18  C   UNL     1       0.876   3.545  20.063  0.00  0.00    +0.000 C 
BRANCH  18  19
ATOM     19  C   UNL     1       1.468   2.201  19.638  0.00  0.00    +0.000 C 
BRANCH  19  21
ATOM     20  C   UNL     1       3.409   1.656  18.145  0.00  0.00    +0.000 C 
ATOM     21  C   UNL     1       2.013   2.252  18.215  0.00  0.00    +0.000 C 
ENDBRANCH  19  21
ENDBRANCH  18  19
ENDBRANCH  17  18
ENDBRANCH  16  17
ENDBRANCH   1  16
TORSDOF 6
ENDMDL
MODEL 6
REMARK VINA RESULT:      -6.4      3.874      7.130
REMARK  Name = 
REMARK  7 active torsions:
REMARK  status: ('A' for Active; 'I' for Inactive)
REMARK    1  A    between atoms: C_1  and  C_2
REMARK    2  A    between atoms: C_2  and  C_3
REMARK    3  A    between atoms: C_3  and  C_4
REMARK    4  A    between atoms: C_4  and  C_5
REMARK    5  A    between atoms: C_5  and  C_6
REMARK    6  A    between atoms: C_6  and  C_7
REMARK    7  A    between atoms: C_10  and  C_11
REMARK                            x       y       z     vdW  Elec       q    Type
REMARK                         _______ _______ _______ _____ _____    ______ ____
ROOT
ATOM      1  C   UNL     1       5.189   4.952  16.248  0.00  0.00    +0.000 A 
ATOM      2  C   UNL     1       4.421   5.899  16.941  0.00  0.00    +0.000 A 
ATOM      3  C   UNL     1       3.550   5.503  17.957  0.00  0.00    +0.000 A 
ATOM      4  C   UNL     1       3.399   4.149  18.268  0.00  0.00    +0.000 A 
ATOM      5  C   UNL     1       4.151   3.200  17.560  0.00  0.00    +0.000 A 
ATOM      6  C   UNL     1       5.039   3.597  16.558  0.00  0.00    +0.000 A 
ENDROOT
BRANCH   4   7
ATOM      7  C   UNL     1       2.465   3.753  19.302  0.00  0.00    +0.000 A 
ATOM      8  C   UNL     1       1.110   4.013  19.295  0.00  0.00    +0.000 A 
ATOM      9  N   UNL     1       0.646   3.485  20.465  0.00  0.00    +0.000 N 
ATOM     10  C   UNL     1       1.709   2.947  21.134  0.00  0.00    +0.000 A 
ATOM     11  N   UNL     1       1.544   2.359  22.325  0.00  0.00    +0.000 N 
ATOM     12  N   UNL     1       2.821   3.100  20.461  0.00  0.00    +0.000 NA
ATOM     13  H   UNL     1      -0.309   3.484  20.790  0.00  0.00    +0.000 HD
ATOM     14  H   UNL     1       0.772   2.608  22.930  0.00  0.00    +0.000 HD
ATOM     15  H   UNL     1       2.401   2.157  22.831  0.00  0.00    +0.000 HD
ENDBRANCH   4   7
BRANCH   1  16
ATOM     16  C   UNL     1       6.214   5.402  15.238  0.00  0.00    +0.000 C 
BRANCH  16  17
ATOM     17  C   UNL     1       6.610   4.223  14.347  0.00  0.00    +0.000 C 
BRANCH  17  18
ATOM     18  C   UNL     1       5.600   3.956  13.239  0.00  0.00    +0.000 C 
BRANCH  18  19
ATOM     19  C   UNL     1       6.312   3.333  12.039  0.00  0.00    +0.000 C 
BRANCH  19  21
ATOM     20  C   UNL     1       6.492   1.017  11.091  0.00  0.00    +0.000 C 
ATOM     21  C   UNL     1       5.544   2.135  11.489  0.00  0.00    +0.000 C 
ENDBRANCH  19  21
ENDBRANCH  18  19
ENDBRANCH  17  18
ENDBRANCH  16  17
ENDBRANCH   1  16
TORSDOF 6
ENDMDL
MODEL 7
REMARK VINA RESULT:      -6.4      3.777      6.870
REMARK  Name = 
REMARK  7 active torsions:
REMARK  status: ('A' for Active; 'I' for Inactive)
REMARK    1  A    between atoms: C_1  and  C_2
REMARK    2  A    between atoms: C_2  and  C_3
REMARK    3  A    between atoms: C_3  and  C_4
REMARK    4  A    between atoms: C_4  and  C_5
REMARK    5  A    between atoms: C_5  and  C_6
REMARK    6  A    between atoms: C_6  and  C_7
REMARK    7  A    between atoms: C_10  and  C_11
REMARK                            x       y       z     vdW  Elec       q    Type
REMARK                         _______ _______ _______ _____ _____    ______ ____
ROOT
ATOM      1  C   UNL     1       5.422   4.931  15.760  0.00  0.00    +0.000 A 
ATOM      2  C   UNL     1       5.033   3.697  16.302  0.00  0.00    +0.000 A 
ATOM      3  C   UNL     1       4.281   3.640  17.476  0.00  0.00    +0.000 A 
ATOM      4  C   UNL     1       3.941   4.815  18.153  0.00  0.00    +0.000 A 
ATOM      5  C   UNL     1       4.348   6.048  17.623  0.00  0.00    +0.000 A 
ATOM      6  C   UNL     1       5.083   6.107  16.436  0.00  0.00    +0.000 A 
ENDROOT
BRANCH   4   7
ATOM      7  C   UNL     1       3.188   4.736  19.388  0.00  0.00    +0.000 A 
ATOM      8  C   UNL     1       2.491   5.777  19.965  0.00  0.00    +0.000 A 
ATOM      9  N   UNL     1       1.969   5.256  21.113  0.00  0.00    +0.000 N 
ATOM     10  C   UNL     1       2.367   3.952  21.201  0.00  0.00    +0.000 A 
ATOM     11  N   UNL     1       2.001   3.191  22.240  0.00  0.00    +0.000 N 
ATOM     12  N   UNL     1       3.110   3.612  20.180  0.00  0.00    +0.000 NA
ATOM     13  H   UNL     1       1.390   5.736  21.785  0.00  0.00    +0.000 HD
ATOM     14  H   UNL     1       1.768   3.602  23.135  0.00  0.00    +0.000 HD
ATOM     15  H   UNL     1       2.488   2.304  22.320  0.00  0.00    +0.000 HD
ENDBRANCH   4   7
BRANCH   1  16
ATOM     16  C   UNL     1       6.129   4.983  14.429  0.00  0.00    +0.000 C 
BRANCH  16  17
ATOM     17  C   UNL     1       5.643   3.833  13.545  0.00  0.00    +0.000 C 
BRANCH  17  18
ATOM     18  C   UNL     1       6.514   3.630  12.312  0.00  0.00    +0.000 C 
BRANCH  18  19
ATOM     19  C   UNL     1       5.640   3.193  11.137  0.00  0.00    +0.000 C 
BRANCH  19  21
ATOM     20  C   UNL     1       3.335   3.626  10.246  0.00  0.00    +0.000 C 
ATOM     21  C   UNL     1       4.156   3.279  11.476  0.00  0.00    +0.000 C 
ENDBRANCH  19  21
ENDBRANCH  18  19
ENDBRANCH  17  18
ENDBRANCH  16  17
ENDBRANCH   1  16
TORSDOF 6
ENDMDL
MODEL 8
REMARK VINA RESULT:      -6.4      1.583      3.088
REMARK  Name = 
REMARK  7 active torsions:
REMARK  status: ('A' for Active; 'I' for Inactive)
REMARK    1  A    between atoms: C_1  and  C_2
REMARK    2  A    between atoms: C_2  and  C_3
REMARK    3  A    between atoms: C_3  and  C_4
REMARK    4  A    between atoms: C_4  and  C_5
REMARK    5  A    between atoms: C_5  and  C_6
REMARK    6  A    between atoms: C_6  and  C_7
REMARK    7  A    between atoms: C_10  and  C_11
REMARK                            x       y       z     vdW  Elec       q    Type
REMARK                         _______ _______ _______ _____ _____    ______ ____
ROOT
ATOM      1  C   UNL     1       3.371   5.797  19.380  0.00  0.00    +0.000 A 
ATOM      2  C   UNL     1       3.031   6.288  18.111  0.00  0.00    +0.000 A 
ATOM      3  C   UNL     1       3.799   5.963  16.993  0.00  0.00    +0.000 A 
ATOM      4  C   UNL     1       4.946   5.176  17.130  0.00  0.00    +0.000 A 
ATOM      5  C   UNL     1       5.299   4.703  18.402  0.00  0.00    +0.000 A 
ATOM      6  C   UNL     1       4.518   5.010  19.519  0.00  0.00    +0.000 A 
ENDROOT
BRANCH   4   7
ATOM      7  C   UNL     1       5.751   4.876  15.963  0.00  0.00    +0.000 A 
ATOM      8  C   UNL     1       5.764   3.671  15.291  0.00  0.00    +0.000 A 
ATOM      9  N   UNL     1       6.677   3.838  14.291  0.00  0.00    +0.000 N 
ATOM     10  C   UNL     1       7.186   5.102  14.393  0.00  0.00    +0.000 A 
ATOM     11  N   UNL     1       8.114   5.539  13.533  0.00  0.00    +0.000 N 
ATOM     12  N   UNL     1       6.653   5.749  15.397  0.00  0.00    +0.000 NA
ATOM     13  H   UNL     1       6.937   3.158  13.593  0.00  0.00    +0.000 HD
ATOM     14  H   UNL     1       8.729   4.894  13.053  0.00  0.00    +0.000 HD
ATOM     15  H   UNL     1       8.568   6.409  13.791  0.00  0.00    +0.000 HD
ENDBRANCH   4   7
BRANCH   1  16
ATOM     16  C   UNL     1       2.466   6.055  20.559  0.00  0.00    +0.000 C 
BRANCH  16  17
ATOM     17  C   UNL     1       1.973   4.723  21.129  0.00  0.00    +0.000 C 
BRANCH  17  18
ATOM     18  C   UNL     1       0.964   4.031  20.223  0.00  0.00    +0.000 C 
BRANCH  18  19
ATOM     19  C   UNL     1       1.229   2.526  20.221  0.00  0.00    +0.000 C 
BRANCH  19  21
ATOM     20  C   UNL     1       2.062   2.698  17.861  0.00  0.00    +0.000 C 
ATOM     21  C   UNL     1       2.344   2.152  19.250  0.00  0.00    +0.000 C 
ENDBRANCH  19  21
ENDBRANCH  18  19
ENDBRANCH  17  18
ENDBRANCH  16  17
ENDBRANCH   1  16
TORSDOF 6
ENDMDL
MODEL 9
REMARK VINA RESULT:      -6.3      3.669      6.663
REMARK  Name = 
REMARK  7 active torsions:
REMARK  status: ('A' for Active; 'I' for Inactive)
REMARK    1  A    between atoms: C_1  and  C_2
REMARK    2  A    between atoms: C_2  and  C_3
REMARK    3  A    between atoms: C_3  and  C_4
REMARK    4  A    between atoms: C_4  and  C_5
REMARK    5  A    between atoms: C_5  and  C_6
REMARK    6  A    between atoms: C_6  and  C_7
REMARK    7  A    between atoms: C_10  and  C_11
REMARK                            x       y       z     vdW  Elec       q    Type
REMARK                         _______ _______ _______ _____ _____    ______ ____
ROOT
ATOM      1  C   UNL     1       5.525   5.263  15.625  0.00  0.00    +0.000 A 
ATOM      2  C   UNL     1       4.886   4.229  16.326  0.00  0.00    +0.000 A 
ATOM      3  C   UNL     1       4.083   4.510  17.431  0.00  0.00    +0.000 A 
ATOM      4  C   UNL     1       3.938   5.824  17.882  0.00  0.00    +0.000 A 
ATOM      5  C   UNL     1       4.595   6.856  17.195  0.00  0.00    +0.000 A 
ATOM      6  C   UNL     1       5.383   6.578  16.075  0.00  0.00    +0.000 A 
ENDROOT
BRANCH   4   7
ATOM      7  C   UNL     1       3.127   6.094  19.052  0.00  0.00    +0.000 A 
ATOM      8  C   UNL     1       2.822   5.179  20.039  0.00  0.00    +0.000 A 
ATOM      9  N   UNL     1       2.024   5.860  20.912  0.00  0.00    +0.000 N 
ATOM     10  C   UNL     1       1.865   7.130  20.434  0.00  0.00    +0.000 A 
ATOM     11  N   UNL     1       1.119   8.023  21.094  0.00  0.00    +0.000 N 
ATOM     12  N   UNL     1       2.511   7.298  19.309  0.00  0.00    +0.000 NA
ATOM     13  H   UNL     1       1.619   5.501  21.764  0.00  0.00    +0.000 HD
ATOM     14  H   UNL     1       0.373   7.729  21.713  0.00  0.00    +0.000 HD
ATOM     15  H   UNL     1       0.902   8.871  20.581  0.00  0.00    +0.000 HD
ENDBRANCH   4   7
BRANCH   1  16
ATOM     16  C   UNL     1       6.291   4.959  14.361  0.00  0.00    +0.000 C 
BRANCH  16  17
ATOM     17  C   UNL     1       6.017   3.517  13.929  0.00  0.00    +0.000 C 
BRANCH  17  18
ATOM     18  C   UNL     1       5.958   3.357  12.416  0.00  0.00    +0.000 C 
BRANCH  18  19
ATOM     19  C   UNL     1       4.653   3.955  11.891  0.00  0.00    +0.000 C 
BRANCH  19  21
ATOM     20  C   UNL     1       3.125   3.673   9.921  0.00  0.00    +0.000 C 
ATOM     21  C   UNL     1       3.886   2.960  11.026  0.00  0.00    +0.000 C 
ENDBRANCH  19  21
ENDBRANCH  18  19
ENDBRANCH  17  18
ENDBRANCH  16  17
ENDBRANCH   1  16
TORSDOF 6
ENDMDL
