MODEL 1
REMARK VINA RESULT:      -6.8      0.000      0.000
REMARK  Name = 
REMARK  4 active torsions:
REMARK  status: ('A' for Active; 'I' for Inactive)
REMARK    1  A    between atoms: C_1  and  O_2
REMARK    2  A    between atoms: O_2  and  C_3
REMARK    3  A    between atoms: C_3  and  C_5
REMARK    4  A    between atoms: C_16  and  C_17
REMARK                            x       y       z     vdW  Elec       q    Type
REMARK                         _______ _______ _______ _____ _____    ______ ____
ROOT
ATOM      1  C   UNL     1      -7.280  11.802  19.516  0.00  0.00    +0.000 C 
ATOM      2  C   UNL     1      -6.348  11.309  18.375  0.00  0.00    +0.000 C 
ATOM      3  C   UNL     1      -4.946  11.732  18.621  0.00  0.00    +0.000 A 
ATOM      4  C   UNL     1      -4.669  12.805  19.435  0.00  0.00    +0.000 A 
ATOM      5  N   UNL     1      -3.311  12.990  19.444  0.00  0.00    +0.000 N 
ATOM      6  C   UNL     1      -2.698  11.948  18.787  0.00  0.00    +0.000 A 
ATOM      7  C   UNL     1      -1.337  11.643  18.664  0.00  0.00    +0.000 A 
ATOM      8  C   UNL     1      -0.997  10.478  17.973  0.00  0.00    +0.000 A 
ATOM      9  C   UNL     1      -1.979   9.668  17.406  0.00  0.00    +0.000 A 
ATOM     10  C   UNL     1      -3.336   9.998  17.520  0.00  0.00    +0.000 A 
ATOM     11  C   UNL     1      -3.706  11.152  18.238  0.00  0.00    +0.000 A 
ATOM     12  C   UNL     1      -5.628  13.587  20.271  0.00  0.00    +0.000 C 
ATOM     13  N   UNL     1      -7.037  13.195  20.024  0.00  0.00    +0.000 NA
ATOM     14  H   UNL     1      -2.822  13.704  19.965  0.00  0.00    +0.000 HD
ATOM     15  H   UNL     1      -7.373  13.820  19.293  0.00  0.00    +0.000 HD
ENDROOT
BRANCH  12  16
ATOM     16  C   UNL     1      -5.221  13.565  21.742  0.00  0.00    +0.000 A 
ATOM     17  C   UNL     1      -4.363  12.545  22.207  0.00  0.00    +0.000 A 
ATOM     18  C   UNL     1      -3.824  12.561  23.493  0.00  0.00    +0.000 A 
ATOM     19  C   UNL     1      -4.107  13.617  24.346  0.00  0.00    +0.000 A 
ATOM     20  C   UNL     1      -4.967  14.629  23.928  0.00  0.00    +0.000 A 
ATOM     21  C   UNL     1      -5.541  14.596  22.647  0.00  0.00    +0.000 A 
ATOM     22 BR   UNL     1      -6.723  16.025  22.226  0.00  0.00    +0.000 Br
ENDBRANCH  12  16
BRANCH   1  23
ATOM     23  C   UNL     1      -7.383  10.748  20.632  0.00  0.00    +0.000 C 
ATOM     24  O   UNL     1      -7.496  11.008  21.821  0.00  0.00    +0.000 OA
BRANCH  23  26
ATOM     25  C   UNL     1      -7.834   8.421  20.892  0.00  0.00    +0.000 C 
ATOM     26  O   UNL     1      -7.230   9.483  20.135  0.00  0.00    +0.000 OA
ENDBRANCH  23  26
ENDBRANCH   1  23
TORSDOF 3
ENDMDL
MODEL 2
REMARK VINA RESULT:      -6.5     10.245     13.490
REMARK  Name = 
REMARK  4 active torsions:
REMARK  status: ('A' for Active; 'I' for Inactive)
REMARK    1  A    between atoms: C_1  and  O_2
REMARK    2  A    between atoms: O_2  and  C_3
REMARK    3  A    between atoms: C_3  and  C_5
REMARK    4  A    between atoms: C_16  and  C_17
REMARK                            x       y       z     vdW  Elec       q    Type
REMARK                         _______ _______ _______ _____ _____    ______ ____
ROOT
ATOM      1  C   UNL     1       7.648   5.604  18.337  0.00  0.00    +0.000 C 
ATOM      2  C   UNL     1       7.975   4.763  17.072  0.00  0.00    +0.000 C 
ATOM      3  C   UNL     1       6.735   4.428  16.328  0.00  0.00    +0.000 A 
ATOM      4  C   UNL     1       5.514   4.427  16.962  0.00  0.00    +0.000 A 
ATOM      5  N   UNL     1       4.564   4.043  16.052  0.00  0.00    +0.000 N 
ATOM      6  C   UNL     1       5.130   3.964  14.800  0.00  0.00    +0.000 A 
ATOM      7  C   UNL     1       4.525   3.745  13.556  0.00  0.00    +0.000 A 
ATOM      8  C   UNL     1       5.346   3.765  12.427  0.00  0.00    +0.000 A 
ATOM      9  C   UNL     1       6.720   3.968  12.543  0.00  0.00    +0.000 A 
ATOM     10  C   UNL     1       7.313   4.165  13.797  0.00  0.00    +0.000 A 
ATOM     11  C   UNL     1       6.502   4.179  14.948  0.00  0.00    +0.000 A 
ATOM     12  C   UNL     1       5.211   4.868  18.356  0.00  0.00    +0.000 C 
ATOM     13  N   UNL     1       6.439   5.186  19.124  0.00  0.00    +0.000 NA
ATOM     14  H   UNL     1       3.575   3.961  16.239  0.00  0.00    +0.000 HD
ATOM     15  H   UNL     1       6.700   4.322  19.598  0.00  0.00    +0.000 HD
ENDROOT
BRANCH  12  16
ATOM     16  C   UNL     1       4.161   5.976  18.367  0.00  0.00    +0.000 A 
ATOM     17  C   UNL     1       4.266   7.037  17.442  0.00  0.00    +0.000 A 
ATOM     18  C   UNL     1       3.258   7.988  17.289  0.00  0.00    +0.000 A 
ATOM     19  C   UNL     1       2.098   7.890  18.042  0.00  0.00    +0.000 A 
ATOM     20  C   UNL     1       1.970   6.868  18.979  0.00  0.00    +0.000 A 
ATOM     21  C   UNL     1       3.000   5.931  19.162  0.00  0.00    +0.000 A 
ATOM     22 BR   UNL     1       2.701   4.615  20.502  0.00  0.00    +0.000 Br
ENDBRANCH  12  16
BRANCH   1  23
ATOM     23  C   UNL     1       7.688   7.108  18.018  0.00  0.00    +0.000 C 
ATOM     24  O   UNL     1       7.127   7.629  17.065  0.00  0.00    +0.000 OA
BRANCH  23  26
ATOM     25  C   UNL     1       8.695   9.180  18.634  0.00  0.00    +0.000 C 
ATOM     26  O   UNL     1       8.516   7.775  18.879  0.00  0.00    +0.000 OA
ENDBRANCH  23  26
ENDBRANCH   1  23
TORSDOF 3
ENDMDL
MODEL 3
REMARK VINA RESULT:      -6.4      4.143      5.830
REMARK  Name = 
REMARK  4 active torsions:
REMARK  status: ('A' for Active; 'I' for Inactive)
REMARK    1  A    between atoms: C_1  and  O_2
REMARK    2  A    between atoms: O_2  and  C_3
REMARK    3  A    between atoms: C_3  and  C_5
REMARK    4  A    between atoms: C_16  and  C_17
REMARK                            x       y       z     vdW  Elec       q    Type
REMARK                         _______ _______ _______ _____ _____    ______ ____
ROOT
ATOM      1  C   UNL     1       0.388  11.403  20.844  0.00  0.00    +0.000 C 
ATOM      2  C   UNL     1      -0.318  10.358  19.938  0.00  0.00    +0.000 C 
ATOM      3  C   UNL     1      -1.509  10.951  19.279  0.00  0.00    +0.000 A 
ATOM      4  C   UNL     1      -2.131  12.054  19.815  0.00  0.00    +0.000 A 
ATOM      5  N   UNL     1      -3.214  12.353  19.031  0.00  0.00    +0.000 N 
ATOM      6  C   UNL     1      -3.198  11.566  17.902  0.00  0.00    +0.000 A 
ATOM      7  C   UNL     1      -4.016  11.612  16.767  0.00  0.00    +0.000 A 
ATOM      8  C   UNL     1      -3.738  10.711  15.736  0.00  0.00    +0.000 A 
ATOM      9  C   UNL     1      -2.703   9.786  15.851  0.00  0.00    +0.000 A 
ATOM     10  C   UNL     1      -1.907   9.739  17.002  0.00  0.00    +0.000 A 
ATOM     11  C   UNL     1      -2.147  10.657  18.044  0.00  0.00    +0.000 A 
ATOM     12  C   UNL     1      -1.681  12.881  20.975  0.00  0.00    +0.000 C 
ATOM     13  N   UNL     1      -0.505  12.294  21.661  0.00  0.00    +0.000 NA
ATOM     14  H   UNL     1      -3.852  13.122  19.182  0.00  0.00    +0.000 HD
ATOM     15  H   UNL     1      -0.884  11.704  22.401  0.00  0.00    +0.000 HD
ENDROOT
BRANCH  12  16
ATOM     16  C   UNL     1      -1.505  14.344  20.572  0.00  0.00    +0.000 A 
ATOM     17  C   UNL     1      -0.614  14.670  19.527  0.00  0.00    +0.000 A 
ATOM     18  C   UNL     1      -0.530  15.960  19.002  0.00  0.00    +0.000 A 
ATOM     19  C   UNL     1      -1.358  16.958  19.493  0.00  0.00    +0.000 A 
ATOM     20  C   UNL     1      -2.232  16.676  20.538  0.00  0.00    +0.000 A 
ATOM     21  C   UNL     1      -2.293  15.388  21.093  0.00  0.00    +0.000 A 
ATOM     22 BR   UNL     1      -3.507  15.159  22.539  0.00  0.00    +0.000 Br
ENDBRANCH  12  16
BRANCH   1  23
ATOM     23  C   UNL     1       1.468  12.167  20.059  0.00  0.00    +0.000 C 
ATOM     24  O   UNL     1       1.714  11.995  18.874  0.00  0.00    +0.000 OA
BRANCH  23  26
ATOM     25  C   UNL     1       2.957  14.021  20.238  0.00  0.00    +0.000 C 
ATOM     26  O   UNL     1       2.189  12.990  20.880  0.00  0.00    +0.000 OA
ENDBRANCH  23  26
ENDBRANCH   1  23
TORSDOF 3
ENDMDL
MODEL 4
REMARK VINA RESULT:      -6.3      4.227      6.233
REMARK  Name = 
REMARK  4 active torsions:
REMARK  status: ('A' for Active; 'I' for Inactive)
REMARK    1  A    between atoms: C_1  and  O_2
REMARK    2  A    between atoms: O_2  and  C_3
REMARK    3  A    between atoms: C_3  and  C_5
REMARK    4  A    between atoms: C_16  and  C_17
REMARK                            x       y       z     vdW  Elec       q    Type
REMARK                         _______ _______ _______ _____ _____    ______ ____
ROOT
ATOM      1  C   UNL     1       0.720  10.679  19.072  0.00  0.00    +0.000 C 
ATOM      2  C   UNL     1       1.697  11.851  18.780  0.00  0.00    +0.000 C 
ATOM      3  C   UNL     1       0.962  13.137  18.686  0.00  0.00    +0.000 A 
ATOM      4  C   UNL     1      -0.381  13.159  18.391  0.00  0.00    +0.000 A 
ATOM      5  N   UNL     1      -0.781  14.468  18.328  0.00  0.00    +0.000 N 
ATOM      6  C   UNL     1       0.244  15.284  18.748  0.00  0.00    +0.000 A 
ATOM      7  C   UNL     1       0.252  16.665  18.980  0.00  0.00    +0.000 A 
ATOM      8  C   UNL     1       1.436  17.232  19.459  0.00  0.00    +0.000 A 
ATOM      9  C   UNL     1       2.571  16.451  19.670  0.00  0.00    +0.000 A 
ATOM     10  C   UNL     1       2.552  15.074  19.414  0.00  0.00    +0.000 A 
ATOM     11  C   UNL     1       1.362  14.474  18.959  0.00  0.00    +0.000 A 
ATOM     12  C   UNL     1      -1.306  11.993  18.265  0.00  0.00    +0.000 C 
ATOM     13  N   UNL     1      -0.588  10.697  18.333  0.00  0.00    +0.000 NA
ATOM     14  H   UNL     1      -1.721  14.785  18.135  0.00  0.00    +0.000 HD
ATOM     15  H   UNL     1      -0.366  10.454  17.369  0.00  0.00    +0.000 HD
ENDROOT
BRANCH  12  16
ATOM     16  C   UNL     1      -2.477  12.111  19.237  0.00  0.00    +0.000 A 
ATOM     17  C   UNL     1      -2.231  12.503  20.571  0.00  0.00    +0.000 A 
ATOM     18  C   UNL     1      -3.266  12.788  21.461  0.00  0.00    +0.000 A 
ATOM     19  C   UNL     1      -4.583  12.717  21.033  0.00  0.00    +0.000 A 
ATOM     20  C   UNL     1      -4.862  12.313  19.730  0.00  0.00    +0.000 A 
ATOM     21  C   UNL     1      -3.823  11.988  18.843  0.00  0.00    +0.000 A 
ATOM     22 BR   UNL     1      -4.356  11.419  17.108  0.00  0.00    +0.000 Br
ENDBRANCH  12  16
BRANCH   1  23
ATOM     23  C   UNL     1       0.570  10.457  20.586  0.00  0.00    +0.000 C 
ATOM     24  O   UNL     1       1.162  11.098  21.442  0.00  0.00    +0.000 OA
BRANCH  23  26
ATOM     25  C   UNL     1      -0.411   9.044  22.238  0.00  0.00    +0.000 C 
ATOM     26  O   UNL     1      -0.233   9.381  20.853  0.00  0.00    +0.000 OA
ENDBRANCH  23  26
ENDBRANCH   1  23
TORSDOF 3
ENDMDL
MODEL 5
REMARK VINA RESULT:      -6.1      3.609      6.369
REMARK  Name = 
REMARK  4 active torsions:
REMARK  status: ('A' for Active; 'I' for Inactive)
REMARK    1  A    between atoms: C_1  and  O_2
REMARK    2  A    between atoms: O_2  and  C_3
REMARK    3  A    between atoms: C_3  and  C_5
REMARK    4  A    between atoms: C_16  and  C_17
REMARK                            x       y       z     vdW  Elec       q    Type
REMARK                         _______ _______ _______ _____ _____    ______ ____
ROOT
ATOM      1  C   UNL     1      -1.155  12.896  22.072  0.00  0.00    +0.000 C 
ATOM      2  C   UNL     1      -2.655  13.134  21.744  0.00  0.00    +0.000 C 
ATOM      3  C   UNL     1      -2.954  12.746  20.342  0.00  0.00    +0.000 A 
ATOM      4  C   UNL     1      -1.956  12.697  19.398  0.00  0.00    +0.000 A 
ATOM      5  N   UNL     1      -2.523  12.356  18.198  0.00  0.00    +0.000 N 
ATOM      6  C   UNL     1      -3.842  12.016  18.391  0.00  0.00    +0.000 A 
ATOM      7  C   UNL     1      -4.770  11.479  17.490  0.00  0.00    +0.000 A 
ATOM      8  C   UNL     1      -6.044  11.181  17.978  0.00  0.00    +0.000 A 
ATOM      9  C   UNL     1      -6.382  11.437  19.306  0.00  0.00    +0.000 A 
ATOM     10  C   UNL     1      -5.449  11.993  20.189  0.00  0.00    +0.000 A 
ATOM     11  C   UNL     1      -4.147  12.275  19.729  0.00  0.00    +0.000 A 
ATOM     12  C   UNL     1      -0.487  12.864  19.615  0.00  0.00    +0.000 C 
ATOM     13  N   UNL     1      -0.168  13.273  21.004  0.00  0.00    +0.000 NA
ATOM     14  H   UNL     1      -2.023  12.238  17.328  0.00  0.00    +0.000 HD
ATOM     15  H   UNL     1      -0.146  14.292  20.993  0.00  0.00    +0.000 HD
ENDROOT
BRANCH  12  16
ATOM     16  C   UNL     1       0.284  11.638  19.131  0.00  0.00    +0.000 A 
ATOM     17  C   UNL     1      -0.362  10.383  19.100  0.00  0.00    +0.000 A 
ATOM     18  C   UNL     1       0.228   9.262  18.518  0.00  0.00    +0.000 A 
ATOM     19  C   UNL     1       1.476   9.370  17.922  0.00  0.00    +0.000 A 
ATOM     20  C   UNL     1       2.150  10.588  17.953  0.00  0.00    +0.000 A 
ATOM     21  C   UNL     1       1.574  11.709  18.572  0.00  0.00    +0.000 A 
ATOM     22 BR   UNL     1       2.626  13.294  18.569  0.00  0.00    +0.000 Br
ENDBRANCH  12  16
BRANCH   1  23
ATOM     23  C   UNL     1      -0.937  11.484  22.642  0.00  0.00    +0.000 C 
ATOM     24  O   UNL     1      -1.758  10.874  23.313  0.00  0.00    +0.000 OA
BRANCH  23  26
ATOM     25  C   UNL     1       0.554   9.625  22.542  0.00  0.00    +0.000 C 
ATOM     26  O   UNL     1       0.331  11.037  22.389  0.00  0.00    +0.000 OA
ENDBRANCH  23  26
ENDBRANCH   1  23
TORSDOF 3
ENDMDL
MODEL 6
REMARK VINA RESULT:      -6.1      4.023      5.751
REMARK  Name = 
REMARK  4 active torsions:
REMARK  status: ('A' for Active; 'I' for Inactive)
REMARK    1  A    between atoms: C_1  and  O_2
REMARK    2  A    between atoms: O_2  and  C_3
REMARK    3  A    between atoms: C_3  and  C_5
REMARK    4  A    between atoms: C_16  and  C_17
REMARK                            x       y       z     vdW  Elec       q    Type
REMARK                         _______ _______ _______ _____ _____    ______ ____
ROOT
ATOM      1  C   UNL     1       0.139  10.433  19.540  0.00  0.00    +0.000 C 
ATOM      2  C   UNL     1       1.145  11.356  18.799  0.00  0.00    +0.000 C 
ATOM      3  C   UNL     1       0.647  12.754  18.759  0.00  0.00    +0.000 A 
ATOM      4  C   UNL     1      -0.695  13.025  18.895  0.00  0.00    +0.000 A 
ATOM      5  N   UNL     1      -0.868  14.379  18.777  0.00  0.00    +0.000 N 
ATOM      6  C   UNL     1       0.359  15.000  18.740  0.00  0.00    +0.000 A 
ATOM      7  C   UNL     1       0.674  16.364  18.762  0.00  0.00    +0.000 A 
ATOM      8  C   UNL     1       2.026  16.714  18.767  0.00  0.00    +0.000 A 
ATOM      9  C   UNL     1       3.020  15.738  18.723  0.00  0.00    +0.000 A 
ATOM     10  C   UNL     1       2.688  14.378  18.680  0.00  0.00    +0.000 A 
ATOM     11  C   UNL     1       1.332  13.998  18.705  0.00  0.00    +0.000 A 
ATOM     12  C   UNL     1      -1.790  12.065  19.226  0.00  0.00    +0.000 C 
ATOM     13  N   UNL     1      -1.317  10.660  19.249  0.00  0.00    +0.000 NA
ATOM     14  H   UNL     1      -1.752  14.864  18.842  0.00  0.00    +0.000 HD
ATOM     15  H   UNL     1      -1.471  10.302  18.307  0.00  0.00    +0.000 HD
ENDROOT
BRANCH  12  16
ATOM     16  C   UNL     1      -2.536  12.494  20.487  0.00  0.00    +0.000 A 
ATOM     17  C   UNL     1      -1.800  12.864  21.633  0.00  0.00    +0.000 A 
ATOM     18  C   UNL     1      -2.411  13.420  22.757  0.00  0.00    +0.000 A 
ATOM     19  C   UNL     1      -3.779  13.649  22.755  0.00  0.00    +0.000 A 
ATOM     20  C   UNL     1      -4.538  13.277  21.649  0.00  0.00    +0.000 A 
ATOM     21  C   UNL     1      -3.931  12.682  20.532  0.00  0.00    +0.000 A 
ATOM     22 BR   UNL     1      -5.098  12.193  19.111  0.00  0.00    +0.000 Br
ENDBRANCH  12  16
BRANCH   1  23
ATOM     23  C   UNL     1       0.464  10.365  21.042  0.00  0.00    +0.000 C 
ATOM     24  O   UNL     1       1.373  10.979  21.582  0.00  0.00    +0.000 OA
BRANCH  23  26
ATOM     25  C   UNL     1      -0.526   9.649  23.091  0.00  0.00    +0.000 C 
ATOM     26  O   UNL     1      -0.330   9.452  21.680  0.00  0.00    +0.000 OA
ENDBRANCH  23  26
ENDBRANCH   1  23
TORSDOF 3
ENDMDL
MODEL 7
REMARK VINA RESULT:      -6.1      4.335      6.548
REMARK  Name = 
REMARK  4 active torsions:
REMARK  status: ('A' for Active; 'I' for Inactive)
REMARK    1  A    between atoms: C_1  and  O_2
REMARK    2  A    between atoms: O_2  and  C_3
REMARK    3  A    between atoms: C_3  and  C_5
REMARK    4  A    between atoms: C_16  and  C_17
REMARK                            x       y       z     vdW  Elec       q    Type
REMARK                         _______ _______ _______ _____ _____    ______ ____
ROOT
ATOM      1  C   UNL     1       0.729  11.158  20.491  0.00  0.00    +0.000 C 
ATOM      2  C   UNL     1       1.562  12.460  20.339  0.00  0.00    +0.000 C 
ATOM      3  C   UNL     1       0.800  13.487  19.584  0.00  0.00    +0.000 A 
ATOM      4  C   UNL     1      -0.225  13.123  18.743  0.00  0.00    +0.000 A 
ATOM      5  N   UNL     1      -0.713  14.259  18.153  0.00  0.00    +0.000 N 
ATOM      6  C   UNL     1      -0.133  15.365  18.732  0.00  0.00    +0.000 A 
ATOM      7  C   UNL     1      -0.419  16.724  18.551  0.00  0.00    +0.000 A 
ATOM      8  C   UNL     1       0.302  17.642  19.318  0.00  0.00    +0.000 A 
ATOM      9  C   UNL     1       1.288  17.217  20.207  0.00  0.00    +0.000 A 
ATOM     10  C   UNL     1       1.576  15.855  20.361  0.00  0.00    +0.000 A 
ATOM     11  C   UNL     1       0.841  14.907  19.621  0.00  0.00    +0.000 A 
ATOM     12  C   UNL     1      -0.813  11.763  18.557  0.00  0.00    +0.000 C 
ATOM     13  N   UNL     1      -0.053  10.719  19.286  0.00  0.00    +0.000 NA
ATOM     14  H   UNL     1      -1.477  14.294  17.492  0.00  0.00    +0.000 HD
ATOM     15  H   UNL     1       0.635  10.364  18.622  0.00  0.00    +0.000 HD
ENDROOT
BRANCH  12  16
ATOM     16  C   UNL     1      -2.311  11.766  18.851  0.00  0.00    +0.000 A 
ATOM     17  C   UNL     1      -2.798  12.505  19.950  0.00  0.00    +0.000 A 
ATOM     18  C   UNL     1      -4.163  12.684  20.175  0.00  0.00    +0.000 A 
ATOM     19  C   UNL     1      -5.084  12.148  19.288  0.00  0.00    +0.000 A 
ATOM     20  C   UNL     1      -4.638  11.395  18.205  0.00  0.00    +0.000 A 
ATOM     21  C   UNL     1      -3.266  11.182  17.997  0.00  0.00    +0.000 A 
ATOM     22 BR   UNL     1      -2.808  10.104  16.499  0.00  0.00    +0.000 Br
ENDBRANCH  12  16
BRANCH   1  23
ATOM     23  C   UNL     1      -0.100  11.187  21.787  0.00  0.00    +0.000 C 
ATOM     24  O   UNL     1      -0.363  12.201  22.418  0.00  0.00    +0.000 OA
BRANCH  23  26
ATOM     25  C   UNL     1       0.670   8.995  22.323  0.00  0.00    +0.000 C 
ATOM     26  O   UNL     1      -0.420   9.923  22.199  0.00  0.00    +0.000 OA
ENDBRANCH  23  26
ENDBRANCH   1  23
TORSDOF 3
ENDMDL
MODEL 8
REMARK VINA RESULT:      -6.0      4.262      6.592
REMARK  Name = 
REMARK  4 active torsions:
REMARK  status: ('A' for Active; 'I' for Inactive)
REMARK    1  A    between atoms: C_1  and  O_2
REMARK    2  A    between atoms: O_2  and  C_3
REMARK    3  A    between atoms: C_3  and  C_5
REMARK    4  A    between atoms: C_16  and  C_17
REMARK                            x       y       z     vdW  Elec       q    Type
REMARK                         _______ _______ _______ _____ _____    ______ ____
ROOT
ATOM      1  C   UNL     1       0.743  11.163  20.495  0.00  0.00    +0.000 C 
ATOM      2  C   UNL     1       1.546  12.489  20.400  0.00  0.00    +0.000 C 
ATOM      3  C   UNL     1       0.789  13.508  19.631  0.00  0.00    +0.000 A 
ATOM      4  C   UNL     1      -0.190  13.133  18.741  0.00  0.00    +0.000 A 
ATOM      5  N   UNL     1      -0.684  14.266  18.150  0.00  0.00    +0.000 N 
ATOM      6  C   UNL     1      -0.159  15.376  18.771  0.00  0.00    +0.000 A 
ATOM      7  C   UNL     1      -0.474  16.730  18.601  0.00  0.00    +0.000 A 
ATOM      8  C   UNL     1       0.189  17.653  19.412  0.00  0.00    +0.000 A 
ATOM      9  C   UNL     1       1.148  17.238  20.335  0.00  0.00    +0.000 A 
ATOM     10  C   UNL     1       1.466  15.882  20.478  0.00  0.00    +0.000 A 
ATOM     11  C   UNL     1       0.789  14.928  19.693  0.00  0.00    +0.000 A 
ATOM     12  C   UNL     1      -0.732  11.760  18.508  0.00  0.00    +0.000 C 
ATOM     13  N   UNL     1       0.024  10.724  19.251  0.00  0.00    +0.000 NA
ATOM     14  H   UNL     1      -1.420  14.292  17.458  0.00  0.00    +0.000 HD
ATOM     15  H   UNL     1       0.749  10.400  18.611  0.00  0.00    +0.000 HD
ENDROOT
BRANCH  12  16
ATOM     16  C   UNL     1      -2.241  11.718  18.738  0.00  0.00    +0.000 A 
ATOM     17  C   UNL     1      -2.793  12.422  19.830  0.00  0.00    +0.000 A 
ATOM     18  C   UNL     1      -4.171  12.560  20.001  0.00  0.00    +0.000 A 
ATOM     19  C   UNL     1      -5.039  12.019  19.065  0.00  0.00    +0.000 A 
ATOM     20  C   UNL     1      -4.529  11.301  17.987  0.00  0.00    +0.000 A 
ATOM     21  C   UNL     1      -3.144  11.128  17.833  0.00  0.00    +0.000 A 
ATOM     22 BR   UNL     1      -2.594  10.095  16.334  0.00  0.00    +0.000 Br
ENDBRANCH  12  16
BRANCH   1  23
ATOM     23  C   UNL     1      -0.140  11.147  21.755  0.00  0.00    +0.000 C 
ATOM     24  O   UNL     1      -0.837  10.204  22.100  0.00  0.00    +0.000 OA
BRANCH  23  26
ATOM     25  C   UNL     1      -1.317  12.723  23.104  0.00  0.00    +0.000 C 
ATOM     26  O   UNL     1      -0.126  12.361  22.385  0.00  0.00    +0.000 OA
ENDBRANCH  23  26
ENDBRANCH   1  23
TORSDOF 3
ENDMDL
MODEL 9
REMARK VINA RESULT:      -6.0      2.972      5.601
REMARK  Name = 
REMARK  4 active torsions:
REMARK  status: ('A' for Active; 'I' for Inactive)
REMARK    1  A    between atoms: C_1  and  O_2
REMARK    2  A    between atoms: O_2  and  C_3
REMARK    3  A    between atoms: C_3  and  C_5
REMARK    4  A    between atoms: C_16  and  C_17
REMARK                            x       y       z     vdW  Elec       q    Type
REMARK                         _______ _______ _______ _____ _____    ______ ____
ROOT
ATOM      1  C   UNL     1      -2.515  13.727  22.443  0.00  0.00    +0.000 C 
ATOM      2  C   UNL     1      -3.986  13.735  21.944  0.00  0.00    +0.000 C 
ATOM      3  C   UNL     1      -4.098  13.068  20.623  0.00  0.00    +0.000 A 
ATOM      4  C   UNL     1      -3.003  12.957  19.797  0.00  0.00    +0.000 A 
ATOM      5  N   UNL     1      -3.404  12.343  18.640  0.00  0.00    +0.000 N 
ATOM      6  C   UNL     1      -4.701  11.902  18.777  0.00  0.00    +0.000 A 
ATOM      7  C   UNL     1      -5.473  11.112  17.918  0.00  0.00    +0.000 A 
ATOM      8  C   UNL     1      -6.760  10.769  18.340  0.00  0.00    +0.000 A 
ATOM      9  C   UNL     1      -7.261  11.224  19.559  0.00  0.00    +0.000 A 
ATOM     10  C   UNL     1      -6.482  12.031  20.397  0.00  0.00    +0.000 A 
ATOM     11  C   UNL     1      -5.170  12.365  20.009  0.00  0.00    +0.000 A 
ATOM     12  C   UNL     1      -1.588  13.321  20.107  0.00  0.00    +0.000 C 
ATOM     13  N   UNL     1      -1.458  14.009  21.414  0.00  0.00    +0.000 NA
ATOM     14  H   UNL     1      -2.806  12.124  17.856  0.00  0.00    +0.000 HD
ATOM     15  H   UNL     1      -1.527  15.005  21.210  0.00  0.00    +0.000 HD
ENDROOT
BRANCH  12  16
ATOM     16  C   UNL     1      -0.661  12.119  19.937  0.00  0.00    +0.000 A 
ATOM     17  C   UNL     1      -1.099  10.844  20.353  0.00  0.00    +0.000 A 
ATOM     18  C   UNL     1      -0.373   9.686  20.078  0.00  0.00    +0.000 A 
ATOM     19  C   UNL     1       0.805   9.767  19.351  0.00  0.00    +0.000 A 
ATOM     20  C   UNL     1       1.278  11.012  18.944  0.00  0.00    +0.000 A 
ATOM     21  C   UNL     1       0.568  12.183  19.252  0.00  0.00    +0.000 A 
ATOM     22 BR   UNL     1       1.352  13.813  18.662  0.00  0.00    +0.000 Br
ENDBRANCH  12  16
BRANCH   1  23
ATOM     23  C   UNL     1      -2.232  12.475  23.291  0.00  0.00    +0.000 C 
ATOM     24  O   UNL     1      -1.118  12.014  23.494  0.00  0.00    +0.000 OA
BRANCH  23  26
ATOM     25  C   UNL     1      -4.084  12.516  24.793  0.00  0.00    +0.000 C 
ATOM     26  O   UNL     1      -3.394  11.882  23.703  0.00  0.00    +0.000 OA
ENDBRANCH  23  26
ENDBRANCH   1  23
TORSDOF 3
ENDMDL
