MODEL 1
REMARK VINA RESULT:      -7.6      0.000      0.000
REMARK  Name = 
REMARK  9 active torsions:
REMARK  status: ('A' for Active; 'I' for Inactive)
REMARK    1  A    between atoms: C_1  and  C_2
REMARK    2  A    between atoms: C_2  and  N_3
REMARK    3  A    between atoms: C_5  and  C_6
REMARK    4  A    between atoms: C_6  and  O_7
REMARK    5  A    between atoms: N_12  and  S_13
REMARK    6  A    between atoms: S_13  and  N_16
REMARK    7  A    between atoms: N_16  and  C_17
REMARK    8  A    between atoms: N_16  and  C_18
REMARK    9  A    between atoms: C_18  and  C_19
REMARK                            x       y       z     vdW  Elec       q    Type
REMARK                         _______ _______ _______ _____ _____    ______ ____
ROOT
ATOM      1  N   UNL     1       7.023   5.594  17.540  0.00  0.00    +0.000 N 
ATOM      2  N   UNL     1       7.303   5.326  16.244  0.00  0.00    +0.000 NA
ATOM      3  C   UNL     1       6.347   4.449  15.877  0.00  0.00    +0.000 A 
ATOM      4  C   UNL     1       5.525   4.102  16.968  0.00  0.00    +0.000 A 
ATOM      5  C   UNL     1       6.054   4.791  18.045  0.00  0.00    +0.000 A 
ATOM      6  C   UNL     1       5.506   4.744  19.431  0.00  0.00    +0.000 C 
ATOM      7  C   UNL     1       4.372   3.692  19.501  0.00  0.00    +0.000 C 
ATOM      8  N   UNL     1       3.535   3.641  18.249  0.00  0.00    +0.000 NA
ATOM      9  C   UNL     1       4.335   3.222  17.059  0.00  0.00    +0.000 C 
ENDROOT
BRANCH   8  10
ATOM     10  S   UNL     1       2.517   4.975  17.979  0.00  0.00    +0.000 S 
ATOM     11  O   UNL     1       3.327   6.060  17.493  0.00  0.00    +0.000 OA
ATOM     12  O   UNL     1       1.329   4.526  17.309  0.00  0.00    +0.000 OA
BRANCH  10  13
ATOM     13  N   UNL     1       2.082   5.309  19.559  0.00  0.00    +0.000 NA
ATOM     14  C   UNL     1       1.216   4.396  20.303  0.00  0.00    +0.000 C 
BRANCH  13  15
ATOM     15  C   UNL     1       2.574   6.500  20.270  0.00  0.00    +0.000 C 
BRANCH  15  16
ATOM     16  C   UNL     1       1.735   7.756  20.214  0.00  0.00    +0.000 A 
ATOM     17  C   UNL     1       0.878   8.125  21.258  0.00  0.00    +0.000 A 
ATOM     18  C   UNL     1       0.019   9.217  21.113  0.00  0.00    +0.000 A 
ATOM     19  C   UNL     1       0.028   9.970  19.942  0.00  0.00    +0.000 A 
ATOM     20  C   UNL     1       0.924   9.654  18.927  0.00  0.00    +0.000 A 
ATOM     21  C   UNL     1       1.777   8.560  19.061  0.00  0.00    +0.000 A 
ENDBRANCH  15  16
ENDBRANCH  13  15
ENDBRANCH  10  13
ENDBRANCH   8  10
BRANCH   1  23
ATOM     22  C   UNL     1       7.597   7.994  17.489  0.00  0.00    +0.000 C 
ATOM     23  C   UNL     1       7.722   6.668  18.221  0.00  0.00    +0.000 C 
ENDBRANCH   1  23
BRANCH   3  24
ATOM     24  C   UNL     1       6.279   3.925  14.484  0.00  0.00    +0.000 C 
BRANCH  24  25
ATOM     25  O   UNL     1       7.041   4.736  13.588  0.00  0.00    +0.000 OA
ATOM     26  H   UNL     1       7.186   5.568  14.077  0.00  0.00    +0.000 HD
ENDBRANCH  24  25
ENDBRANCH   3  24
TORSDOF 7
ENDMDL
MODEL 2
REMARK VINA RESULT:      -7.1      2.248      7.078
REMARK  Name = 
REMARK  9 active torsions:
REMARK  status: ('A' for Active; 'I' for Inactive)
REMARK    1  A    between atoms: C_1  and  C_2
REMARK    2  A    between atoms: C_2  and  N_3
REMARK    3  A    between atoms: C_5  and  C_6
REMARK    4  A    between atoms: C_6  and  O_7
REMARK    5  A    between atoms: N_12  and  S_13
REMARK    6  A    between atoms: S_13  and  N_16
REMARK    7  A    between atoms: N_16  and  C_17
REMARK    8  A    between atoms: N_16  and  C_18
REMARK    9  A    between atoms: C_18  and  C_19
REMARK                            x       y       z     vdW  Elec       q    Type
REMARK                         _______ _______ _______ _____ _____    ______ ____
ROOT
ATOM      1  N   UNL     1       1.870   6.944  20.306  0.00  0.00    +0.000 N 
ATOM      2  N   UNL     1       1.470   5.765  20.833  0.00  0.00    +0.000 NA
ATOM      3  C   UNL     1       1.928   4.843  19.962  0.00  0.00    +0.000 A 
ATOM      4  C   UNL     1       2.536   5.453  18.846  0.00  0.00    +0.000 A 
ATOM      5  C   UNL     1       2.394   6.812  19.061  0.00  0.00    +0.000 A 
ATOM      6  C   UNL     1       2.896   7.872  18.141  0.00  0.00    +0.000 C 
ATOM      7  C   UNL     1       3.447   7.214  16.852  0.00  0.00    +0.000 C 
ATOM      8  N   UNL     1       4.144   5.903  17.107  0.00  0.00    +0.000 NA
ATOM      9  C   UNL     1       3.213   4.874  17.661  0.00  0.00    +0.000 C 
ENDROOT
BRANCH   8  10
ATOM     10  S   UNL     1       5.642   6.000  17.905  0.00  0.00    +0.000 S 
ATOM     11  O   UNL     1       6.265   7.242  17.534  0.00  0.00    +0.000 OA
ATOM     12  O   UNL     1       5.469   5.591  19.271  0.00  0.00    +0.000 OA
BRANCH  10  13
ATOM     13  N   UNL     1       6.444   4.755  17.129  0.00  0.00    +0.000 NA
ATOM     14  C   UNL     1       7.803   4.386  17.518  0.00  0.00    +0.000 C 
BRANCH  13  15
ATOM     15  C   UNL     1       5.811   3.964  16.060  0.00  0.00    +0.000 C 
BRANCH  15  16
ATOM     16  C   UNL     1       6.267   4.202  14.639  0.00  0.00    +0.000 A 
ATOM     17  C   UNL     1       5.741   3.482  13.559  0.00  0.00    +0.000 A 
ATOM     18  C   UNL     1       6.281   3.633  12.280  0.00  0.00    +0.000 A 
ATOM     19  C   UNL     1       7.326   4.526  12.058  0.00  0.00    +0.000 A 
ATOM     20  C   UNL     1       7.810   5.296  13.109  0.00  0.00    +0.000 A 
ATOM     21  C   UNL     1       7.282   5.142  14.390  0.00  0.00    +0.000 A 
ENDBRANCH  15  16
ENDBRANCH  13  15
ENDBRANCH  10  13
ENDBRANCH   8  10
BRANCH   1  23
ATOM     22  C   UNL     1       0.285   8.528  21.340  0.00  0.00    +0.000 C 
ATOM     23  C   UNL     1       1.737   8.163  21.082  0.00  0.00    +0.000 C 
ENDBRANCH   1  23
BRANCH   3  24
ATOM     24  C   UNL     1       1.722   3.388  20.204  0.00  0.00    +0.000 C 
BRANCH  24  25
ATOM     25  O   UNL     1       0.335   3.078  20.344  0.00  0.00    +0.000 OA
ATOM     26  H   UNL     1      -0.058   3.328  19.486  0.00  0.00    +0.000 HD
ENDBRANCH  24  25
ENDBRANCH   3  24
TORSDOF 7
ENDMDL
MODEL 3
REMARK VINA RESULT:      -6.7      2.156      7.336
REMARK  Name = 
REMARK  9 active torsions:
REMARK  status: ('A' for Active; 'I' for Inactive)
REMARK    1  A    between atoms: C_1  and  C_2
REMARK    2  A    between atoms: C_2  and  N_3
REMARK    3  A    between atoms: C_5  and  C_6
REMARK    4  A    between atoms: C_6  and  O_7
REMARK    5  A    between atoms: N_12  and  S_13
REMARK    6  A    between atoms: S_13  and  N_16
REMARK    7  A    between atoms: N_16  and  C_17
REMARK    8  A    between atoms: N_16  and  C_18
REMARK    9  A    between atoms: C_18  and  C_19
REMARK                            x       y       z     vdW  Elec       q    Type
REMARK                         _______ _______ _______ _____ _____    ______ ____
ROOT
ATOM      1  N   UNL     1       1.472   3.993  20.287  0.00  0.00    +0.000 N 
ATOM      2  N   UNL     1       1.008   5.251  20.462  0.00  0.00    +0.000 NA
ATOM      3  C   UNL     1       2.075   6.033  20.203  0.00  0.00    +0.000 A 
ATOM      4  C   UNL     1       3.227   5.259  19.954  0.00  0.00    +0.000 A 
ATOM      5  C   UNL     1       2.816   3.948  20.112  0.00  0.00    +0.000 A 
ATOM      6  C   UNL     1       3.697   2.758  19.938  0.00  0.00    +0.000 C 
ATOM      7  C   UNL     1       5.157   3.227  19.718  0.00  0.00    +0.000 C 
ATOM      8  N   UNL     1       5.256   4.490  18.903  0.00  0.00    +0.000 NA
ATOM      9  C   UNL     1       4.610   5.650  19.589  0.00  0.00    +0.000 C 
ENDROOT
BRANCH   8  10
ATOM     10  S   UNL     1       4.871   4.344  17.254  0.00  0.00    +0.000 S 
ATOM     11  O   UNL     1       4.678   2.948  16.964  0.00  0.00    +0.000 OA
ATOM     12  O   UNL     1       3.909   5.353  16.909  0.00  0.00    +0.000 OA
BRANCH  10  13
ATOM     13  N   UNL     1       6.329   4.824  16.590  0.00  0.00    +0.000 NA
ATOM     14  C   UNL     1       7.594   4.451  17.220  0.00  0.00    +0.000 C 
BRANCH  13  15
ATOM     15  C   UNL     1       6.402   5.601  15.342  0.00  0.00    +0.000 C 
BRANCH  15  16
ATOM     16  C   UNL     1       6.576   4.843  14.045  0.00  0.00    +0.000 A 
ATOM     17  C   UNL     1       7.630   5.111  13.164  0.00  0.00    +0.000 A 
ATOM     18  C   UNL     1       7.682   4.486  11.915  0.00  0.00    +0.000 A 
ATOM     19  C   UNL     1       6.704   3.567  11.547  0.00  0.00    +0.000 A 
ATOM     20  C   UNL     1       5.691   3.242  12.442  0.00  0.00    +0.000 A 
ATOM     21  C   UNL     1       5.628   3.869  13.685  0.00  0.00    +0.000 A 
ENDBRANCH  15  16
ENDBRANCH  13  15
ENDBRANCH  10  13
ENDBRANCH   8  10
BRANCH   1  23
ATOM     22  C   UNL     1       0.485   2.187  18.925  0.00  0.00    +0.000 C 
ATOM     23  C   UNL     1       0.543   2.878  20.277  0.00  0.00    +0.000 C 
ENDBRANCH   1  23
BRANCH   3  24
ATOM     24  C   UNL     1       1.970   7.518  20.251  0.00  0.00    +0.000 C 
BRANCH  24  25
ATOM     25  O   UNL     1       1.449   7.959  21.505  0.00  0.00    +0.000 OA
ATOM     26  H   UNL     1       1.632   7.222  22.118  0.00  0.00    +0.000 HD
ENDBRANCH  24  25
ENDBRANCH   3  24
TORSDOF 7
ENDMDL
MODEL 4
REMARK VINA RESULT:      -6.5      2.369      7.068
REMARK  Name = 
REMARK  9 active torsions:
REMARK  status: ('A' for Active; 'I' for Inactive)
REMARK    1  A    between atoms: C_1  and  C_2
REMARK    2  A    between atoms: C_2  and  N_3
REMARK    3  A    between atoms: C_5  and  C_6
REMARK    4  A    between atoms: C_6  and  O_7
REMARK    5  A    between atoms: N_12  and  S_13
REMARK    6  A    between atoms: S_13  and  N_16
REMARK    7  A    between atoms: N_16  and  C_17
REMARK    8  A    between atoms: N_16  and  C_18
REMARK    9  A    between atoms: C_18  and  C_19
REMARK                            x       y       z     vdW  Elec       q    Type
REMARK                         _______ _______ _______ _____ _____    ______ ____
ROOT
ATOM      1  N   UNL     1       1.699   6.598  20.427  0.00  0.00    +0.000 N 
ATOM      2  N   UNL     1       1.026   5.513  20.875  0.00  0.00    +0.000 NA
ATOM      3  C   UNL     1       1.399   4.526  20.035  0.00  0.00    +0.000 A 
ATOM      4  C   UNL     1       2.234   5.016  19.010  0.00  0.00    +0.000 A 
ATOM      5  C   UNL     1       2.326   6.377  19.245  0.00  0.00    +0.000 A 
ATOM      6  C   UNL     1       3.120   7.327  18.415  0.00  0.00    +0.000 C 
ATOM      7  C   UNL     1       3.680   6.585  17.177  0.00  0.00    +0.000 C 
ATOM      8  N   UNL     1       4.085   5.164  17.472  0.00  0.00    +0.000 NA
ATOM      9  C   UNL     1       2.920   4.327  17.891  0.00  0.00    +0.000 C 
ENDROOT
BRANCH   8  10
ATOM     10  S   UNL     1       5.474   4.970  18.433  0.00  0.00    +0.000 S 
ATOM     11  O   UNL     1       5.602   6.134  19.268  0.00  0.00    +0.000 OA
ATOM     12  O   UNL     1       5.499   3.630  18.951  0.00  0.00    +0.000 OA
BRANCH  10  13
ATOM     13  N   UNL     1       6.643   5.046  17.240  0.00  0.00    +0.000 NA
ATOM     14  C   UNL     1       7.911   4.337  17.393  0.00  0.00    +0.000 C 
BRANCH  13  15
ATOM     15  C   UNL     1       6.433   5.789  15.986  0.00  0.00    +0.000 C 
BRANCH  15  16
ATOM     16  C   UNL     1       6.548   5.030  14.685  0.00  0.00    +0.000 A 
ATOM     17  C   UNL     1       7.579   5.274  13.769  0.00  0.00    +0.000 A 
ATOM     18  C   UNL     1       7.576   4.650  12.519  0.00  0.00    +0.000 A 
ATOM     19  C   UNL     1       6.565   3.754  12.183  0.00  0.00    +0.000 A 
ATOM     20  C   UNL     1       5.575   3.451  13.110  0.00  0.00    +0.000 A 
ATOM     21  C   UNL     1       5.567   4.078  14.355  0.00  0.00    +0.000 A 
ENDBRANCH  15  16
ENDBRANCH  13  15
ENDBRANCH  10  13
ENDBRANCH   8  10
BRANCH   1  23
ATOM     22  C   UNL     1       0.354   8.501  21.240  0.00  0.00    +0.000 C 
ATOM     23  C   UNL     1       1.710   7.815  21.217  0.00  0.00    +0.000 C 
ENDBRANCH   1  23
BRANCH   3  24
ATOM     24  C   UNL     1       0.898   3.135  20.213  0.00  0.00    +0.000 C 
BRANCH  24  25
ATOM     25  O   UNL     1       1.347   2.578  21.450  0.00  0.00    +0.000 OA
ATOM     26  H   UNL     1       1.404   1.619  21.279  0.00  0.00    +0.000 HD
ENDBRANCH  24  25
ENDBRANCH   3  24
TORSDOF 7
ENDMDL
MODEL 5
REMARK VINA RESULT:      -6.5      2.159      7.153
REMARK  Name = 
REMARK  9 active torsions:
REMARK  status: ('A' for Active; 'I' for Inactive)
REMARK    1  A    between atoms: C_1  and  C_2
REMARK    2  A    between atoms: C_2  and  N_3
REMARK    3  A    between atoms: C_5  and  C_6
REMARK    4  A    between atoms: C_6  and  O_7
REMARK    5  A    between atoms: N_12  and  S_13
REMARK    6  A    between atoms: S_13  and  N_16
REMARK    7  A    between atoms: N_16  and  C_17
REMARK    8  A    between atoms: N_16  and  C_18
REMARK    9  A    between atoms: C_18  and  C_19
REMARK                            x       y       z     vdW  Elec       q    Type
REMARK                         _______ _______ _______ _____ _____    ______ ____
ROOT
ATOM      1  N   UNL     1       1.523   3.977  20.268  0.00  0.00    +0.000 N 
ATOM      2  N   UNL     1       1.059   5.234  20.454  0.00  0.00    +0.000 NA
ATOM      3  C   UNL     1       2.126   6.018  20.199  0.00  0.00    +0.000 A 
ATOM      4  C   UNL     1       3.278   5.246  19.944  0.00  0.00    +0.000 A 
ATOM      5  C   UNL     1       2.866   3.933  20.091  0.00  0.00    +0.000 A 
ATOM      6  C   UNL     1       3.747   2.745  19.907  0.00  0.00    +0.000 C 
ATOM      7  C   UNL     1       5.207   3.215  19.689  0.00  0.00    +0.000 C 
ATOM      8  N   UNL     1       5.305   4.484  18.884  0.00  0.00    +0.000 NA
ATOM      9  C   UNL     1       4.660   5.639  19.580  0.00  0.00    +0.000 C 
ENDROOT
BRANCH   8  10
ATOM     10  S   UNL     1       4.918   4.352  17.234  0.00  0.00    +0.000 S 
ATOM     11  O   UNL     1       4.756   2.956  16.927  0.00  0.00    +0.000 OA
ATOM     12  O   UNL     1       3.933   5.343  16.906  0.00  0.00    +0.000 OA
BRANCH  10  13
ATOM     13  N   UNL     1       6.363   4.873  16.573  0.00  0.00    +0.000 NA
ATOM     14  C   UNL     1       7.636   4.548  17.213  0.00  0.00    +0.000 C 
BRANCH  13  15
ATOM     15  C   UNL     1       6.417   5.639  15.317  0.00  0.00    +0.000 C 
BRANCH  15  16
ATOM     16  C   UNL     1       6.401   4.869  14.017  0.00  0.00    +0.000 A 
ATOM     17  C   UNL     1       5.351   4.009  13.675  0.00  0.00    +0.000 A 
ATOM     18  C   UNL     1       5.435   3.212  12.530  0.00  0.00    +0.000 A 
ATOM     19  C   UNL     1       6.549   3.289  11.699  0.00  0.00    +0.000 A 
ATOM     20  C   UNL     1       7.566   4.190  11.992  0.00  0.00    +0.000 A 
ATOM     21  C   UNL     1       7.493   4.980  13.138  0.00  0.00    +0.000 A 
ENDBRANCH  15  16
ENDBRANCH  13  15
ENDBRANCH  10  13
ENDBRANCH   8  10
BRANCH   1  23
ATOM     22  C   UNL     1       0.443   2.259  18.864  0.00  0.00    +0.000 C 
ATOM     23  C   UNL     1       0.594   2.863  20.250  0.00  0.00    +0.000 C 
ENDBRANCH   1  23
BRANCH   3  24
ATOM     24  C   UNL     1       2.022   7.503  20.259  0.00  0.00    +0.000 C 
BRANCH  24  25
ATOM     25  O   UNL     1       2.145   8.082  18.959  0.00  0.00    +0.000 OA
ATOM     26  H   UNL     1       2.624   7.410  18.437  0.00  0.00    +0.000 HD
ENDBRANCH  24  25
ENDBRANCH   3  24
TORSDOF 7
ENDMDL
MODEL 6
REMARK VINA RESULT:      -6.5      2.200      6.948
REMARK  Name = 
REMARK  9 active torsions:
REMARK  status: ('A' for Active; 'I' for Inactive)
REMARK    1  A    between atoms: C_1  and  C_2
REMARK    2  A    between atoms: C_2  and  N_3
REMARK    3  A    between atoms: C_5  and  C_6
REMARK    4  A    between atoms: C_6  and  O_7
REMARK    5  A    between atoms: N_12  and  S_13
REMARK    6  A    between atoms: S_13  and  N_16
REMARK    7  A    between atoms: N_16  and  C_17
REMARK    8  A    between atoms: N_16  and  C_18
REMARK    9  A    between atoms: C_18  and  C_19
REMARK                            x       y       z     vdW  Elec       q    Type
REMARK                         _______ _______ _______ _____ _____    ______ ____
ROOT
ATOM      1  N   UNL     1       1.795   6.858  20.294  0.00  0.00    +0.000 N 
ATOM      2  N   UNL     1       1.143   5.850  20.917  0.00  0.00    +0.000 NA
ATOM      3  C   UNL     1       1.544   4.744  20.260  0.00  0.00    +0.000 A 
ATOM      4  C   UNL     1       2.376   5.072  19.169  0.00  0.00    +0.000 A 
ATOM      5  C   UNL     1       2.436   6.454  19.169  0.00  0.00    +0.000 A 
ATOM      6  C   UNL     1       3.215   7.267  18.193  0.00  0.00    +0.000 C 
ATOM      7  C   UNL     1       3.801   6.338  17.101  0.00  0.00    +0.000 C 
ATOM      8  N   UNL     1       4.235   4.998  17.636  0.00  0.00    +0.000 NA
ATOM      9  C   UNL     1       3.086   4.217  18.187  0.00  0.00    +0.000 C 
ENDROOT
BRANCH   8  10
ATOM     10  S   UNL     1       5.620   5.003  18.622  0.00  0.00    +0.000 S 
ATOM     11  O   UNL     1       5.477   6.062  19.584  0.00  0.00    +0.000 OA
ATOM     12  O   UNL     1       5.935   3.651  18.989  0.00  0.00    +0.000 OA
BRANCH  10  13
ATOM     13  N   UNL     1       6.758   5.470  17.489  0.00  0.00    +0.000 NA
ATOM     14  C   UNL     1       7.155   6.871  17.364  0.00  0.00    +0.000 C 
BRANCH  13  15
ATOM     15  C   UNL     1       7.426   4.500  16.606  0.00  0.00    +0.000 C 
BRANCH  15  16
ATOM     16  C   UNL     1       7.000   4.450  15.156  0.00  0.00    +0.000 A 
ATOM     17  C   UNL     1       5.857   3.758  14.741  0.00  0.00    +0.000 A 
ATOM     18  C   UNL     1       5.570   3.621  13.381  0.00  0.00    +0.000 A 
ATOM     19  C   UNL     1       6.400   4.199  12.424  0.00  0.00    +0.000 A 
ATOM     20  C   UNL     1       7.500   4.947  12.828  0.00  0.00    +0.000 A 
ATOM     21  C   UNL     1       7.797   5.079  14.184  0.00  0.00    +0.000 A 
ENDBRANCH  15  16
ENDBRANCH  13  15
ENDBRANCH  10  13
ENDBRANCH   8  10
BRANCH   1  23
ATOM     22  C   UNL     1       0.361   8.671  21.161  0.00  0.00    +0.000 C 
ATOM     23  C   UNL     1       1.772   8.192  20.865  0.00  0.00    +0.000 C 
ENDBRANCH   1  23
BRANCH   3  24
ATOM     24  C   UNL     1       1.073   3.392  20.670  0.00  0.00    +0.000 C 
BRANCH  24  25
ATOM     25  O   UNL     1       2.134   2.629  21.248  0.00  0.00    +0.000 OA
ATOM     26  H   UNL     1       2.784   2.529  20.526  0.00  0.00    +0.000 HD
ENDBRANCH  24  25
ENDBRANCH   3  24
TORSDOF 7
ENDMDL
MODEL 7
REMARK VINA RESULT:      -6.3      7.450     10.403
REMARK  Name = 
REMARK  9 active torsions:
REMARK  status: ('A' for Active; 'I' for Inactive)
REMARK    1  A    between atoms: C_1  and  C_2
REMARK    2  A    between atoms: C_2  and  N_3
REMARK    3  A    between atoms: C_5  and  C_6
REMARK    4  A    between atoms: C_6  and  O_7
REMARK    5  A    between atoms: N_12  and  S_13
REMARK    6  A    between atoms: S_13  and  N_16
REMARK    7  A    between atoms: N_16  and  C_17
REMARK    8  A    between atoms: N_16  and  C_18
REMARK    9  A    between atoms: C_18  and  C_19
REMARK                            x       y       z     vdW  Elec       q    Type
REMARK                         _______ _______ _______ _____ _____    ______ ____
ROOT
ATOM      1  N   UNL     1      -2.567  10.538  17.633  0.00  0.00    +0.000 N 
ATOM      2  N   UNL     1      -3.710  11.100  18.088  0.00  0.00    +0.000 NA
ATOM      3  C   UNL     1      -3.316  11.834  19.148  0.00  0.00    +0.000 A 
ATOM      4  C   UNL     1      -1.941  11.660  19.407  0.00  0.00    +0.000 A 
ATOM      5  C   UNL     1      -1.515  10.742  18.464  0.00  0.00    +0.000 A 
ATOM      6  C   UNL     1      -0.114  10.247  18.339  0.00  0.00    +0.000 C 
ATOM      7  C   UNL     1       0.732  10.794  19.515  0.00  0.00    +0.000 C 
ATOM      8  N   UNL     1       0.354  12.196  19.914  0.00  0.00    +0.000 NA
ATOM      9  C   UNL     1      -1.050  12.273  20.421  0.00  0.00    +0.000 C 
ENDROOT
BRANCH   8  10
ATOM     10  S   UNL     1       0.774  13.422  18.815  0.00  0.00    +0.000 S 
ATOM     11  O   UNL     1       2.015  13.052  18.188  0.00  0.00    +0.000 OA
ATOM     12  O   UNL     1      -0.394  13.801  18.071  0.00  0.00    +0.000 OA
BRANCH  10  13
ATOM     13  N   UNL     1       1.079  14.663  19.894  0.00  0.00    +0.000 NA
ATOM     14  C   UNL     1       2.165  14.556  20.865  0.00  0.00    +0.000 C 
BRANCH  13  15
ATOM     15  C   UNL     1       0.301  15.913  19.889  0.00  0.00    +0.000 C 
BRANCH  15  16
ATOM     16  C   UNL     1       0.473  16.849  18.716  0.00  0.00    +0.000 A 
ATOM     17  C   UNL     1      -0.608  17.530  18.143  0.00  0.00    +0.000 A 
ATOM     18  C   UNL     1      -0.432  18.280  16.977  0.00  0.00    +0.000 A 
ATOM     19  C   UNL     1       0.826  18.385  16.391  0.00  0.00    +0.000 A 
ATOM     20  C   UNL     1       1.919  17.770  16.990  0.00  0.00    +0.000 A 
ATOM     21  C   UNL     1       1.748  17.012  18.147  0.00  0.00    +0.000 A 
ENDBRANCH  15  16
ENDBRANCH  13  15
ENDBRANCH  10  13
ENDBRANCH   8  10
BRANCH   1  23
ATOM     22  C   UNL     1      -3.072  10.704  15.223  0.00  0.00    +0.000 C 
ATOM     23  C   UNL     1      -2.565   9.837  16.363  0.00  0.00    +0.000 C 
ENDBRANCH   1  23
BRANCH   3  24
ATOM     24  C   UNL     1      -4.291  12.654  19.920  0.00  0.00    +0.000 C 
BRANCH  24  25
ATOM     25  O   UNL     1      -3.878  14.020  19.988  0.00  0.00    +0.000 OA
ATOM     26  H   UNL     1      -3.012  13.991  20.437  0.00  0.00    +0.000 HD
ENDBRANCH  24  25
ENDBRANCH   3  24
TORSDOF 7
ENDMDL
MODEL 8
REMARK VINA RESULT:      -6.3      2.331      7.098
REMARK  Name = 
REMARK  9 active torsions:
REMARK  status: ('A' for Active; 'I' for Inactive)
REMARK    1  A    between atoms: C_1  and  C_2
REMARK    2  A    between atoms: C_2  and  N_3
REMARK    3  A    between atoms: C_5  and  C_6
REMARK    4  A    between atoms: C_6  and  O_7
REMARK    5  A    between atoms: N_12  and  S_13
REMARK    6  A    between atoms: S_13  and  N_16
REMARK    7  A    between atoms: N_16  and  C_17
REMARK    8  A    between atoms: N_16  and  C_18
REMARK    9  A    between atoms: C_18  and  C_19
REMARK                            x       y       z     vdW  Elec       q    Type
REMARK                         _______ _______ _______ _____ _____    ______ ____
ROOT
ATOM      1  N   UNL     1       1.787   7.339  20.158  0.00  0.00    +0.000 N 
ATOM      2  N   UNL     1       1.379   6.290  20.908  0.00  0.00    +0.000 NA
ATOM      3  C   UNL     1       1.829   5.212  20.236  0.00  0.00    +0.000 A 
ATOM      4  C   UNL     1       2.439   5.586  19.021  0.00  0.00    +0.000 A 
ATOM      5  C   UNL     1       2.306   6.961  18.964  0.00  0.00    +0.000 A 
ATOM      6  C   UNL     1       2.814   7.815  17.853  0.00  0.00    +0.000 C 
ATOM      7  C   UNL     1       3.358   6.913  16.718  0.00  0.00    +0.000 C 
ATOM      8  N   UNL     1       4.047   5.673  17.226  0.00  0.00    +0.000 NA
ATOM      9  C   UNL     1       3.110   4.780  17.972  0.00  0.00    +0.000 C 
ENDROOT
BRANCH   8  10
ATOM     10  S   UNL     1       5.547   5.914  17.989  0.00  0.00    +0.000 S 
ATOM     11  O   UNL     1       6.048   7.202  17.587  0.00  0.00    +0.000 OA
ATOM     12  O   UNL     1       5.440   5.512  19.363  0.00  0.00    +0.000 OA
BRANCH  10  13
ATOM     13  N   UNL     1       6.440   4.735  17.210  0.00  0.00    +0.000 NA
ATOM     14  C   UNL     1       7.793   4.407  17.656  0.00  0.00    +0.000 C 
BRANCH  13  15
ATOM     15  C   UNL     1       5.898   3.961  16.081  0.00  0.00    +0.000 C 
BRANCH  15  16
ATOM     16  C   UNL     1       6.492   4.195  14.711  0.00  0.00    +0.000 A 
ATOM     17  C   UNL     1       7.523   5.118  14.495  0.00  0.00    +0.000 A 
ATOM     18  C   UNL     1       7.953   5.406  13.198  0.00  0.00    +0.000 A 
ATOM     19  C   UNL     1       7.385   4.754  12.107  0.00  0.00    +0.000 A 
ATOM     20  C   UNL     1       6.410   3.785  12.315  0.00  0.00    +0.000 A 
ATOM     21  C   UNL     1       5.969   3.501  13.606  0.00  0.00    +0.000 A 
ENDBRANCH  15  16
ENDBRANCH  13  15
ENDBRANCH  10  13
ENDBRANCH   8  10
BRANCH   1  23
ATOM     22  C   UNL     1       1.765   8.734  22.195  0.00  0.00    +0.000 C 
ATOM     23  C   UNL     1       1.663   8.688  20.679  0.00  0.00    +0.000 C 
ENDBRANCH   1  23
BRANCH   3  24
ATOM     24  C   UNL     1       1.614   3.834  20.759  0.00  0.00    +0.000 C 
BRANCH  24  25
ATOM     25  O   UNL     1       2.208   3.673  22.049  0.00  0.00    +0.000 OA
ATOM     26  H   UNL     1       2.790   4.451  22.148  0.00  0.00    +0.000 HD
ENDBRANCH  24  25
ENDBRANCH   3  24
TORSDOF 7
ENDMDL
MODEL 9
REMARK VINA RESULT:      -6.3      4.655      8.971
REMARK  Name = 
REMARK  9 active torsions:
REMARK  status: ('A' for Active; 'I' for Inactive)
REMARK    1  A    between atoms: C_1  and  C_2
REMARK    2  A    between atoms: C_2  and  N_3
REMARK    3  A    between atoms: C_5  and  C_6
REMARK    4  A    between atoms: C_6  and  O_7
REMARK    5  A    between atoms: N_12  and  S_13
REMARK    6  A    between atoms: S_13  and  N_16
REMARK    7  A    between atoms: N_16  and  C_17
REMARK    8  A    between atoms: N_16  and  C_18
REMARK    9  A    between atoms: C_18  and  C_19
REMARK                            x       y       z     vdW  Elec       q    Type
REMARK                         _______ _______ _______ _____ _____    ______ ____
ROOT
ATOM      1  N   UNL     1      -2.165  12.806  21.231  0.00  0.00    +0.000 N 
ATOM      2  N   UNL     1      -3.202  12.618  20.383  0.00  0.00    +0.000 NA
ATOM      3  C   UNL     1      -2.649  12.001  19.320  0.00  0.00    +0.000 A 
ATOM      4  C   UNL     1      -1.252  11.884  19.467  0.00  0.00    +0.000 A 
ATOM      5  C   UNL     1      -0.968  12.501  20.672  0.00  0.00    +0.000 A 
ATOM      6  C   UNL     1       0.397  12.619  21.262  0.00  0.00    +0.000 C 
ATOM      7  C   UNL     1       1.442  12.095  20.247  0.00  0.00    +0.000 C 
ATOM      8  N   UNL     1       0.954  10.911  19.453  0.00  0.00    +0.000 NA
ATOM      9  C   UNL     1      -0.224  11.257  18.602  0.00  0.00    +0.000 C 
ENDROOT
BRANCH   8  10
ATOM     10  S   UNL     1       0.798   9.452  20.311  0.00  0.00    +0.000 S 
ATOM     11  O   UNL     1       1.484   9.599  21.567  0.00  0.00    +0.000 OA
ATOM     12  O   UNL     1      -0.560   8.996  20.211  0.00  0.00    +0.000 OA
BRANCH  10  13
ATOM     13  N   UNL     1       1.713   8.458  19.325  0.00  0.00    +0.000 NA
ATOM     14  C   UNL     1       1.828   8.728  17.894  0.00  0.00    +0.000 C 
BRANCH  13  15
ATOM     15  C   UNL     1       2.460   7.305  19.855  0.00  0.00    +0.000 C 
BRANCH  15  16
ATOM     16  C   UNL     1       1.948   5.920  19.534  0.00  0.00    +0.000 A 
ATOM     17  C   UNL     1       1.284   5.134  20.484  0.00  0.00    +0.000 A 
ATOM     18  C   UNL     1       0.946   3.810  20.192  0.00  0.00    +0.000 A 
ATOM     19  C   UNL     1       1.235   3.269  18.943  0.00  0.00    +0.000 A 
ATOM     20  C   UNL     1       1.831   4.061  17.969  0.00  0.00    +0.000 A 
ATOM     21  C   UNL     1       2.180   5.380  18.257  0.00  0.00    +0.000 A 
ENDBRANCH  15  16
ENDBRANCH  13  15
ENDBRANCH  10  13
ENDBRANCH   8  10
BRANCH   1  23
ATOM     22  C   UNL     1      -3.249  12.270  23.384  0.00  0.00    +0.000 C 
ATOM     23  C   UNL     1      -2.416  13.260  22.586  0.00  0.00    +0.000 C 
ENDBRANCH   1  23
BRANCH   3  24
ATOM     24  C   UNL     1      -3.479  11.581  18.157  0.00  0.00    +0.000 C 
BRANCH  24  25
ATOM     25  O   UNL     1      -4.657  12.382  18.046  0.00  0.00    +0.000 OA
ATOM     26  H   UNL     1      -4.791  12.743  18.943  0.00  0.00    +0.000 HD
ENDBRANCH  24  25
ENDBRANCH   3  24
TORSDOF 7
ENDMDL
