MODEL 1
REMARK VINA RESULT:      -6.5      0.000      0.000
REMARK  Name = 
REMARK  24 active torsions:
REMARK  status: ('A' for Active; 'I' for Inactive)
REMARK    1  A    between atoms: C_1  and  C_2
REMARK    2  A    between atoms: C_2  and  C_3
REMARK    3  A    between atoms: C_3  and  C_4
REMARK    4  A    between atoms: C_4  and  C_5
REMARK    5  A    between atoms: C_5  and  C_6
REMARK    6  A    between atoms: C_6  and  C_7
REMARK    7  A    between atoms: C_7  and  C_8
REMARK    8  A    between atoms: C_8  and  C_9
REMARK    9  A    between atoms: C_9  and  C_10
REMARK   10  A    between atoms: C_10  and  C_11
REMARK   11  A    between atoms: C_11  and  C_12
REMARK   12  A    between atoms: C_12  and  C_13
REMARK   13  A    between atoms: C_13  and  C_14
REMARK   14  A    between atoms: C_14  and  C_15
REMARK   15  A    between atoms: C_15  and  C_16
REMARK   16  A    between atoms: N_18  and  CA_19
REMARK   17  A    between atoms: CA_19  and  C_20
REMARK   18  A    between atoms: CA_19  and  C_32
REMARK   19  A    between atoms: C_20  and  C_21
REMARK   20  A    between atoms: C_24  and  O_25
REMARK   21  A    between atoms: O_25  and  P_26
REMARK   22  A    between atoms: P_26  and  O_28
REMARK   23  A    between atoms: P_26  and  O_29
REMARK   24  A    between atoms: C_32  and  OXT_34
REMARK                            x       y       z     vdW  Elec       q    Type
REMARK                         _______ _______ _______ _____ _____    ______ ____
ROOT
ATOM      1  C   UNL     1       7.517   7.465  17.717  0.00  0.00    +0.000 C 
ATOM      2  O   UNL     1       7.914   6.695  18.593  0.00  0.00    +0.000 OA
ATOM      3  N   UNL     1       6.698   7.059  16.692  0.00  0.00    +0.000 N 
ATOM      4  H   UNL     1       6.467   7.695  15.927  0.00  0.00    +0.000 HD
ENDROOT
BRANCH   3   5
ATOM      5  CA  UNL     1       6.198   5.675  16.566  0.00  0.00    +0.000 C 
BRANCH   5   6
ATOM      6  C   UNL     1       6.893   4.998  15.384  0.00  0.00    +0.000 C 
ATOM      7  O   UNL     1       7.839   5.497  14.766  0.00  0.00    +0.000 OA
BRANCH   6   8
ATOM      8  OXT UNL     1       6.383   3.775  15.056  0.00  0.00    +0.000 OA
ATOM      9  HXT UNL     1       5.894   3.736  14.219  0.00  0.00    +0.000 HD
ENDBRANCH   6   8
ENDBRANCH   5   6
BRANCH   5  10
ATOM     10  C   UNL     1       4.652   5.607  16.467  0.00  0.00    +0.000 C 
BRANCH  10  11
ATOM     11  C   UNL     1       3.949   6.090  17.713  0.00  0.00    +0.000 A 
ATOM     12  C   UNL     1       3.795   5.290  18.855  0.00  0.00    +0.000 A 
ATOM     13  C   UNL     1       2.924   5.694  19.884  0.00  0.00    +0.000 A 
ATOM     14  C   UNL     1       2.269   6.911  19.802  0.00  0.00    +0.000 A 
ATOM     15  C   UNL     1       2.444   7.743  18.697  0.00  0.00    +0.000 A 
ATOM     16  C   UNL     1       3.308   7.335  17.670  0.00  0.00    +0.000 A 
BRANCH  14  17
ATOM     17  O   UNL     1       1.410   7.237  20.819  0.00  0.00    +0.000 OA
BRANCH  17  18
ATOM     18  P   UNL     1       1.140   8.910  21.169  0.00  0.00    +0.000 P 
ATOM     19  O   UNL     1      -0.336   8.668  21.478  0.00  0.00    +0.000 OA
BRANCH  18  20
ATOM     20  O   UNL     1       0.871  10.582  21.520  0.00  0.00    +0.000 OA
ATOM     21  H   UNL     1       1.719  10.899  21.894  0.00  0.00    +0.000 HD
ENDBRANCH  18  20
BRANCH  18  22
ATOM     22  O   UNL     1       2.001   8.747  22.542  0.00  0.00    +0.000 OA
ATOM     23  H   UNL     1       2.939   8.944  22.363  0.00  0.00    +0.000 HD
ENDBRANCH  18  22
ENDBRANCH  17  18
ENDBRANCH  14  17
ENDBRANCH  10  11
ENDBRANCH   5  10
ENDBRANCH   3   5
BRANCH   1  24
ATOM     24  C   UNL     1       7.975   8.901  17.681  0.00  0.00    +0.000 C 
BRANCH  24  25
ATOM     25  C   UNL     1       8.908   9.304  18.819  0.00  0.00    +0.000 C 
BRANCH  25  26
ATOM     26  C   UNL     1       9.141  10.815  18.855  0.00  0.00    +0.000 C 
BRANCH  26  27
ATOM     27  C   UNL     1      10.552  11.175  19.303  0.00  0.00    +0.000 C 
BRANCH  27  28
ATOM     28  C   UNL     1      11.128  12.276  18.432  0.00  0.00    +0.000 C 
BRANCH  28  29
ATOM     29  C   UNL     1      10.600  13.624  18.889  0.00  0.00    +0.000 C 
BRANCH  29  30
ATOM     30  C   UNL     1      10.133  14.425  17.687  0.00  0.00    +0.000 C 
BRANCH  30  31
ATOM     31  C   UNL     1       9.048  15.399  18.102  0.00  0.00    +0.000 C 
BRANCH  31  32
ATOM     32  C   UNL     1       7.685  14.751  17.933  0.00  0.00    +0.000 C 
BRANCH  32  33
ATOM     33  C   UNL     1       6.769  15.174  19.067  0.00  0.00    +0.000 C 
BRANCH  33  34
ATOM     34  C   UNL     1       5.512  15.817  18.507  0.00  0.00    +0.000 C 
BRANCH  34  35
ATOM     35  C   UNL     1       4.566  14.748  17.986  0.00  0.00    +0.000 C 
BRANCH  35  36
ATOM     36  C   UNL     1       3.151  15.299  17.891  0.00  0.00    +0.000 C 
BRANCH  36  38
ATOM     37  C   UNL     1       2.519  12.896  18.156  0.00  0.00    +0.000 C 
ATOM     38  C   UNL     1       2.154  14.327  18.505  0.00  0.00    +0.000 C 
ENDBRANCH  36  38
ENDBRANCH  35  36
ENDBRANCH  34  35
ENDBRANCH  33  34
ENDBRANCH  32  33
ENDBRANCH  31  32
ENDBRANCH  30  31
ENDBRANCH  29  30
ENDBRANCH  28  29
ENDBRANCH  27  28
ENDBRANCH  26  27
ENDBRANCH  25  26
ENDBRANCH  24  25
ENDBRANCH   1  24
TORSDOF 23
ENDMDL
MODEL 2
REMARK VINA RESULT:      -6.4      2.207      3.594
REMARK  Name = 
REMARK  24 active torsions:
REMARK  status: ('A' for Active; 'I' for Inactive)
REMARK    1  A    between atoms: C_1  and  C_2
REMARK    2  A    between atoms: C_2  and  C_3
REMARK    3  A    between atoms: C_3  and  C_4
REMARK    4  A    between atoms: C_4  and  C_5
REMARK    5  A    between atoms: C_5  and  C_6
REMARK    6  A    between atoms: C_6  and  C_7
REMARK    7  A    between atoms: C_7  and  C_8
REMARK    8  A    between atoms: C_8  and  C_9
REMARK    9  A    between atoms: C_9  and  C_10
REMARK   10  A    between atoms: C_10  and  C_11
REMARK   11  A    between atoms: C_11  and  C_12
REMARK   12  A    between atoms: C_12  and  C_13
REMARK   13  A    between atoms: C_13  and  C_14
REMARK   14  A    between atoms: C_14  and  C_15
REMARK   15  A    between atoms: C_15  and  C_16
REMARK   16  A    between atoms: N_18  and  CA_19
REMARK   17  A    between atoms: CA_19  and  C_20
REMARK   18  A    between atoms: CA_19  and  C_32
REMARK   19  A    between atoms: C_20  and  C_21
REMARK   20  A    between atoms: C_24  and  O_25
REMARK   21  A    between atoms: O_25  and  P_26
REMARK   22  A    between atoms: P_26  and  O_28
REMARK   23  A    between atoms: P_26  and  O_29
REMARK   24  A    between atoms: C_32  and  OXT_34
REMARK                            x       y       z     vdW  Elec       q    Type
REMARK                         _______ _______ _______ _____ _____    ______ ____
ROOT
ATOM      1  C   UNL     1       6.221   5.065  18.935  0.00  0.00    +0.000 C 
ATOM      2  O   UNL     1       5.695   5.828  19.748  0.00  0.00    +0.000 OA
ATOM      3  N   UNL     1       5.631   3.891  18.536  0.00  0.00    +0.000 N 
ATOM      4  H   UNL     1       6.135   3.232  17.940  0.00  0.00    +0.000 HD
ENDROOT
BRANCH   3   5
ATOM      5  CA  UNL     1       4.307   3.453  19.020  0.00  0.00    +0.000 C 
BRANCH   5   6
ATOM      6  C   UNL     1       4.278   1.925  19.086  0.00  0.00    +0.000 C 
ATOM      7  O   UNL     1       3.527   1.223  18.403  0.00  0.00    +0.000 OA
BRANCH   6   8
ATOM      8  OXT UNL     1       5.164   1.383  19.972  0.00  0.00    +0.000 OA
ATOM      9  HXT UNL     1       5.882   1.970  20.258  0.00  0.00    +0.000 HD
ENDBRANCH   6   8
ENDBRANCH   5   6
BRANCH   5  10
ATOM     10  C   UNL     1       3.143   4.035  18.179  0.00  0.00    +0.000 C 
BRANCH  10  11
ATOM     11  C   UNL     1       2.508   5.257  18.797  0.00  0.00    +0.000 A 
ATOM     12  C   UNL     1       2.505   6.511  18.167  0.00  0.00    +0.000 A 
ATOM     13  C   UNL     1       2.127   7.659  18.887  0.00  0.00    +0.000 A 
ATOM     14  C   UNL     1       1.694   7.546  20.197  0.00  0.00    +0.000 A 
ATOM     15  C   UNL     1       1.645   6.304  20.828  0.00  0.00    +0.000 A 
ATOM     16  C   UNL     1       2.028   5.161  20.110  0.00  0.00    +0.000 A 
BRANCH  14  17
ATOM     17  O   UNL     1       1.368   8.702  20.858  0.00  0.00    +0.000 OA
BRANCH  17  18
ATOM     18  P   UNL     1       0.839  10.064  19.930  0.00  0.00    +0.000 P 
ATOM     19  O   UNL     1      -0.631   9.685  20.104  0.00  0.00    +0.000 OA
BRANCH  18  20
ATOM     20  O   UNL     1       0.310  11.424  19.003  0.00  0.00    +0.000 OA
ATOM     21  H   UNL     1      -0.256  11.043  18.300  0.00  0.00    +0.000 HD
ENDBRANCH  18  20
BRANCH  18  22
ATOM     22  O   UNL     1       1.278  11.048  21.150  0.00  0.00    +0.000 OA
ATOM     23  H   UNL     1       1.654  10.517  21.877  0.00  0.00    +0.000 HD
ENDBRANCH  18  22
ENDBRANCH  17  18
ENDBRANCH  14  17
ENDBRANCH  10  11
ENDBRANCH   5  10
ENDBRANCH   3   5
BRANCH   1  24
ATOM     24  C   UNL     1       7.594   5.350  18.381  0.00  0.00    +0.000 C 
BRANCH  24  25
ATOM     25  C   UNL     1       8.089   6.777  18.597  0.00  0.00    +0.000 C 
BRANCH  25  26
ATOM     26  C   UNL     1       7.549   7.733  17.532  0.00  0.00    +0.000 C 
BRANCH  26  27
ATOM     27  C   UNL     1       8.149   9.129  17.649  0.00  0.00    +0.000 C 
BRANCH  27  28
ATOM     28  C   UNL     1       8.904   9.282  18.956  0.00  0.00    +0.000 C 
BRANCH  28  29
ATOM     29  C   UNL     1       9.231  10.745  19.195  0.00  0.00    +0.000 C 
BRANCH  29  30
ATOM     30  C   UNL     1      10.628  11.048  18.685  0.00  0.00    +0.000 C 
BRANCH  30  31
ATOM     31  C   UNL     1      10.572  12.137  17.632  0.00  0.00    +0.000 C 
BRANCH  31  32
ATOM     32  C   UNL     1      11.366  13.344  18.100  0.00  0.00    +0.000 C 
BRANCH  32  33
ATOM     33  C   UNL     1      10.466  14.279  18.887  0.00  0.00    +0.000 C 
BRANCH  33  34
ATOM     34  C   UNL     1       9.617  15.105  17.936  0.00  0.00    +0.000 C 
BRANCH  34  35
ATOM     35  C   UNL     1       8.141  14.840  18.189  0.00  0.00    +0.000 C 
BRANCH  35  36
ATOM     36  C   UNL     1       7.410  16.147  18.453  0.00  0.00    +0.000 C 
BRANCH  36  38
ATOM     37  C   UNL     1       5.315  15.419  19.602  0.00  0.00    +0.000 C 
ATOM     38  C   UNL     1       6.666  16.087  19.779  0.00  0.00    +0.000 C 
ENDBRANCH  36  38
ENDBRANCH  35  36
ENDBRANCH  34  35
ENDBRANCH  33  34
ENDBRANCH  32  33
ENDBRANCH  31  32
ENDBRANCH  30  31
ENDBRANCH  29  30
ENDBRANCH  28  29
ENDBRANCH  27  28
ENDBRANCH  26  27
ENDBRANCH  25  26
ENDBRANCH  24  25
ENDBRANCH   1  24
TORSDOF 23
ENDMDL
MODEL 3
REMARK VINA RESULT:      -6.4      5.643      9.743
REMARK  Name = 
REMARK  24 active torsions:
REMARK  status: ('A' for Active; 'I' for Inactive)
REMARK    1  A    between atoms: C_1  and  C_2
REMARK    2  A    between atoms: C_2  and  C_3
REMARK    3  A    between atoms: C_3  and  C_4
REMARK    4  A    between atoms: C_4  and  C_5
REMARK    5  A    between atoms: C_5  and  C_6
REMARK    6  A    between atoms: C_6  and  C_7
REMARK    7  A    between atoms: C_7  and  C_8
REMARK    8  A    between atoms: C_8  and  C_9
REMARK    9  A    between atoms: C_9  and  C_10
REMARK   10  A    between atoms: C_10  and  C_11
REMARK   11  A    between atoms: C_11  and  C_12
REMARK   12  A    between atoms: C_12  and  C_13
REMARK   13  A    between atoms: C_13  and  C_14
REMARK   14  A    between atoms: C_14  and  C_15
REMARK   15  A    between atoms: C_15  and  C_16
REMARK   16  A    between atoms: N_18  and  CA_19
REMARK   17  A    between atoms: CA_19  and  C_20
REMARK   18  A    between atoms: CA_19  and  C_32
REMARK   19  A    between atoms: C_20  and  C_21
REMARK   20  A    between atoms: C_24  and  O_25
REMARK   21  A    between atoms: O_25  and  P_26
REMARK   22  A    between atoms: P_26  and  O_28
REMARK   23  A    between atoms: P_26  and  O_29
REMARK   24  A    between atoms: C_32  and  OXT_34
REMARK                            x       y       z     vdW  Elec       q    Type
REMARK                         _______ _______ _______ _____ _____    ______ ____
ROOT
ATOM      1  C   UNL     1       1.844   8.554  18.965  0.00  0.00    +0.000 C 
ATOM      2  O   UNL     1       2.628   9.178  18.247  0.00  0.00    +0.000 OA
ATOM      3  N   UNL     1       0.935   9.179  19.783  0.00  0.00    +0.000 N 
ATOM      4  H   UNL     1       0.369   8.639  20.439  0.00  0.00    +0.000 HD
ENDROOT
BRANCH   3   5
ATOM      5  CA  UNL     1       0.795  10.647  19.852  0.00  0.00    +0.000 C 
BRANCH   5   6
ATOM      6  C   UNL     1       0.076  11.020  21.150  0.00  0.00    +0.000 C 
ATOM      7  O   UNL     1      -0.591  10.224  21.819  0.00  0.00    +0.000 OA
BRANCH   6   8
ATOM      8  OXT UNL     1       0.231  12.324  21.525  0.00  0.00    +0.000 OA
ATOM      9  HXT UNL     1       0.615  12.909  20.853  0.00  0.00    +0.000 HD
ENDBRANCH   6   8
ENDBRANCH   5   6
BRANCH   5  10
ATOM     10  C   UNL     1       0.104  11.240  18.598  0.00  0.00    +0.000 C 
BRANCH  10  11
ATOM     11  C   UNL     1      -1.378  10.954  18.538  0.00  0.00    +0.000 A 
ATOM     12  C   UNL     1      -1.907   9.824  17.897  0.00  0.00    +0.000 A 
ATOM     13  C   UNL     1      -3.290   9.735  17.656  0.00  0.00    +0.000 A 
ATOM     14  C   UNL     1      -4.139  10.731  18.108  0.00  0.00    +0.000 A 
ATOM     15  C   UNL     1      -3.640  11.841  18.788  0.00  0.00    +0.000 A 
ATOM     16  C   UNL     1      -2.260  11.929  19.022  0.00  0.00    +0.000 A 
BRANCH  14  17
ATOM     17  O   UNL     1      -5.473  10.606  17.817  0.00  0.00    +0.000 OA
BRANCH  17  18
ATOM     18  P   UNL     1      -6.626  10.930  19.065  0.00  0.00    +0.000 P 
ATOM     19  O   UNL     1      -7.335  11.985  18.219  0.00  0.00    +0.000 OA
BRANCH  18  20
ATOM     20  O   UNL     1      -7.779  11.253  20.313  0.00  0.00    +0.000 OA
ATOM     21  H   UNL     1      -8.618  10.870  19.984  0.00  0.00    +0.000 HD
ENDBRANCH  18  20
BRANCH  18  22
ATOM     22  O   UNL     1      -7.314   9.480  18.787  0.00  0.00    +0.000 OA
ATOM     23  H   UNL     1      -7.221   9.253  17.844  0.00  0.00    +0.000 HD
ENDBRANCH  18  22
ENDBRANCH  17  18
ENDBRANCH  14  17
ENDBRANCH  10  11
ENDBRANCH   5  10
ENDBRANCH   3   5
BRANCH   1  24
ATOM     24  C   UNL     1       1.892   7.049  19.039  0.00  0.00    +0.000 C 
BRANCH  24  25
ATOM     25  C   UNL     1       1.763   6.473  20.446  0.00  0.00    +0.000 C 
BRANCH  25  26
ATOM     26  C   UNL     1       1.368   4.995  20.421  0.00  0.00    +0.000 C 
BRANCH  26  27
ATOM     27  C   UNL     1       2.508   4.083  20.854  0.00  0.00    +0.000 C 
BRANCH  27  28
ATOM     28  C   UNL     1       2.368   2.711  20.223  0.00  0.00    +0.000 C 
BRANCH  28  29
ATOM     29  C   UNL     1       1.765   2.840  18.835  0.00  0.00    +0.000 C 
BRANCH  29  30
ATOM     30  C   UNL     1       2.867   2.788  17.792  0.00  0.00    +0.000 C 
BRANCH  30  31
ATOM     31  C   UNL     1       3.071   4.162  17.184  0.00  0.00    +0.000 C 
BRANCH  31  32
ATOM     32  C   UNL     1       4.405   4.729  17.634  0.00  0.00    +0.000 C 
BRANCH  32  33
ATOM     33  C   UNL     1       4.604   6.111  17.040  0.00  0.00    +0.000 C 
BRANCH  33  34
ATOM     34  C   UNL     1       5.295   6.003  15.692  0.00  0.00    +0.000 C 
BRANCH  34  35
ATOM     35  C   UNL     1       6.609   5.253  15.836  0.00  0.00    +0.000 C 
BRANCH  35  36
ATOM     36  C   UNL     1       6.561   3.953  15.048  0.00  0.00    +0.000 C 
BRANCH  36  38
ATOM     37  C   UNL     1       6.100   3.473  12.640  0.00  0.00    +0.000 C 
ATOM     38  C   UNL     1       5.535   4.041  13.928  0.00  0.00    +0.000 C 
ENDBRANCH  36  38
ENDBRANCH  35  36
ENDBRANCH  34  35
ENDBRANCH  33  34
ENDBRANCH  32  33
ENDBRANCH  31  32
ENDBRANCH  30  31
ENDBRANCH  29  30
ENDBRANCH  28  29
ENDBRANCH  27  28
ENDBRANCH  26  27
ENDBRANCH  25  26
ENDBRANCH  24  25
ENDBRANCH   1  24
TORSDOF 23
ENDMDL
MODEL 4
REMARK VINA RESULT:      -6.3      5.070      9.995
REMARK  Name = 
REMARK  24 active torsions:
REMARK  status: ('A' for Active; 'I' for Inactive)
REMARK    1  A    between atoms: C_1  and  C_2
REMARK    2  A    between atoms: C_2  and  C_3
REMARK    3  A    between atoms: C_3  and  C_4
REMARK    4  A    between atoms: C_4  and  C_5
REMARK    5  A    between atoms: C_5  and  C_6
REMARK    6  A    between atoms: C_6  and  C_7
REMARK    7  A    between atoms: C_7  and  C_8
REMARK    8  A    between atoms: C_8  and  C_9
REMARK    9  A    between atoms: C_9  and  C_10
REMARK   10  A    between atoms: C_10  and  C_11
REMARK   11  A    between atoms: C_11  and  C_12
REMARK   12  A    between atoms: C_12  and  C_13
REMARK   13  A    between atoms: C_13  and  C_14
REMARK   14  A    between atoms: C_14  and  C_15
REMARK   15  A    between atoms: C_15  and  C_16
REMARK   16  A    between atoms: N_18  and  CA_19
REMARK   17  A    between atoms: CA_19  and  C_20
REMARK   18  A    between atoms: CA_19  and  C_32
REMARK   19  A    between atoms: C_20  and  C_21
REMARK   20  A    between atoms: C_24  and  O_25
REMARK   21  A    between atoms: O_25  and  P_26
REMARK   22  A    between atoms: P_26  and  O_28
REMARK   23  A    between atoms: P_26  and  O_29
REMARK   24  A    between atoms: C_32  and  OXT_34
REMARK                            x       y       z     vdW  Elec       q    Type
REMARK                         _______ _______ _______ _____ _____    ______ ____
ROOT
ATOM      1  C   UNL     1       1.876  10.006  18.150  0.00  0.00    +0.000 C 
ATOM      2  O   UNL     1       2.614  10.643  17.396  0.00  0.00    +0.000 OA
ATOM      3  N   UNL     1       1.203  10.592  19.194  0.00  0.00    +0.000 N 
ATOM      4  H   UNL     1       0.680  10.022  19.861  0.00  0.00    +0.000 HD
ENDROOT
BRANCH   3   5
ATOM      5  CA  UNL     1       1.280  12.037  19.486  0.00  0.00    +0.000 C 
BRANCH   5   6
ATOM      6  C   UNL     1       1.113  12.252  20.992  0.00  0.00    +0.000 C 
ATOM      7  O   UNL     1       1.236  13.348  21.547  0.00  0.00    +0.000 OA
BRANCH   6   8
ATOM      8  OXT UNL     1       0.810  11.120  21.692  0.00  0.00    +0.000 OA
ATOM      9  HXT UNL     1       0.063  10.604  21.350  0.00  0.00    +0.000 HD
ENDBRANCH   6   8
ENDBRANCH   5   6
BRANCH   5  10
ATOM     10  C   UNL     1       0.272  12.868  18.652  0.00  0.00    +0.000 C 
BRANCH  10  11
ATOM     11  C   UNL     1      -1.148  12.364  18.750  0.00  0.00    +0.000 A 
ATOM     12  C   UNL     1      -1.773  11.652  17.714  0.00  0.00    +0.000 A 
ATOM     13  C   UNL     1      -3.161  11.425  17.756  0.00  0.00    +0.000 A 
ATOM     14  C   UNL     1      -3.902  11.846  18.847  0.00  0.00    +0.000 A 
ATOM     15  C   UNL     1      -3.293  12.514  19.909  0.00  0.00    +0.000 A 
ATOM     16  C   UNL     1      -1.910  12.743  19.863  0.00  0.00    +0.000 A 
BRANCH  14  17
ATOM     17  O   UNL     1      -5.254  11.625  18.817  0.00  0.00    +0.000 OA
BRANCH  17  18
ATOM     18  P   UNL     1      -6.218  12.546  17.714  0.00  0.00    +0.000 P 
ATOM     19  O   UNL     1      -7.509  11.890  18.202  0.00  0.00    +0.000 OA
BRANCH  18  20
ATOM     20  O   UNL     1      -7.182  13.467  16.613  0.00  0.00    +0.000 OA
ATOM     21  H   UNL     1      -6.901  13.167  15.723  0.00  0.00    +0.000 HD
ENDBRANCH  18  20
BRANCH  18  22
ATOM     22  O   UNL     1      -5.935  13.881  18.603  0.00  0.00    +0.000 OA
ATOM     23  H   UNL     1      -6.410  14.638  18.212  0.00  0.00    +0.000 HD
ENDBRANCH  18  22
ENDBRANCH  17  18
ENDBRANCH  14  17
ENDBRANCH  10  11
ENDBRANCH   5  10
ENDBRANCH   3   5
BRANCH   1  24
ATOM     24  C   UNL     1       1.727   8.513  18.008  0.00  0.00    +0.000 C 
BRANCH  24  25
ATOM     25  C   UNL     1       2.066   7.713  19.263  0.00  0.00    +0.000 C 
BRANCH  25  26
ATOM     26  C   UNL     1       3.090   6.613  18.978  0.00  0.00    +0.000 C 
BRANCH  26  27
ATOM     27  C   UNL     1       2.999   5.464  19.974  0.00  0.00    +0.000 C 
BRANCH  27  28
ATOM     28  C   UNL     1       1.636   5.435  20.638  0.00  0.00    +0.000 C 
BRANCH  28  29
ATOM     29  C   UNL     1       0.959   4.103  20.369  0.00  0.00    +0.000 C 
BRANCH  29  30
ATOM     30  C   UNL     1       1.980   3.105  19.854  0.00  0.00    +0.000 C 
BRANCH  30  31
ATOM     31  C   UNL     1       1.483   2.468  18.571  0.00  0.00    +0.000 C 
BRANCH  31  32
ATOM     32  C   UNL     1       2.651   2.232  17.629  0.00  0.00    +0.000 C 
BRANCH  32  33
ATOM     33  C   UNL     1       3.116   3.553  17.044  0.00  0.00    +0.000 C 
BRANCH  33  34
ATOM     34  C   UNL     1       4.634   3.617  17.049  0.00  0.00    +0.000 C 
BRANCH  34  35
ATOM     35  C   UNL     1       5.118   4.596  15.991  0.00  0.00    +0.000 C 
BRANCH  35  36
ATOM     36  C   UNL     1       6.638   4.593  15.930  0.00  0.00    +0.000 C 
BRANCH  36  38
ATOM     37  C   UNL     1       7.347   6.105  17.787  0.00  0.00    +0.000 C 
ATOM     38  C   UNL     1       7.232   4.664  17.329  0.00  0.00    +0.000 C 
ENDBRANCH  36  38
ENDBRANCH  35  36
ENDBRANCH  34  35
ENDBRANCH  33  34
ENDBRANCH  32  33
ENDBRANCH  31  32
ENDBRANCH  30  31
ENDBRANCH  29  30
ENDBRANCH  28  29
ENDBRANCH  27  28
ENDBRANCH  26  27
ENDBRANCH  25  26
ENDBRANCH  24  25
ENDBRANCH   1  24
TORSDOF 23
ENDMDL
MODEL 5
REMARK VINA RESULT:      -6.3      5.556      9.942
REMARK  Name = 
REMARK  24 active torsions:
REMARK  status: ('A' for Active; 'I' for Inactive)
REMARK    1  A    between atoms: C_1  and  C_2
REMARK    2  A    between atoms: C_2  and  C_3
REMARK    3  A    between atoms: C_3  and  C_4
REMARK    4  A    between atoms: C_4  and  C_5
REMARK    5  A    between atoms: C_5  and  C_6
REMARK    6  A    between atoms: C_6  and  C_7
REMARK    7  A    between atoms: C_7  and  C_8
REMARK    8  A    between atoms: C_8  and  C_9
REMARK    9  A    between atoms: C_9  and  C_10
REMARK   10  A    between atoms: C_10  and  C_11
REMARK   11  A    between atoms: C_11  and  C_12
REMARK   12  A    between atoms: C_12  and  C_13
REMARK   13  A    between atoms: C_13  and  C_14
REMARK   14  A    between atoms: C_14  and  C_15
REMARK   15  A    between atoms: C_15  and  C_16
REMARK   16  A    between atoms: N_18  and  CA_19
REMARK   17  A    between atoms: CA_19  and  C_20
REMARK   18  A    between atoms: CA_19  and  C_32
REMARK   19  A    between atoms: C_20  and  C_21
REMARK   20  A    between atoms: C_24  and  O_25
REMARK   21  A    between atoms: O_25  and  P_26
REMARK   22  A    between atoms: P_26  and  O_28
REMARK   23  A    between atoms: P_26  and  O_29
REMARK   24  A    between atoms: C_32  and  OXT_34
REMARK                            x       y       z     vdW  Elec       q    Type
REMARK                         _______ _______ _______ _____ _____    ______ ____
ROOT
ATOM      1  C   UNL     1       1.372   9.510  18.073  0.00  0.00    +0.000 C 
ATOM      2  O   UNL     1       0.162   9.369  17.889  0.00  0.00    +0.000 OA
ATOM      3  N   UNL     1       1.904  10.629  18.667  0.00  0.00    +0.000 N 
ATOM      4  H   UNL     1       2.916  10.762  18.714  0.00  0.00    +0.000 HD
ENDROOT
BRANCH   3   5
ATOM      5  CA  UNL     1       1.074  11.745  19.162  0.00  0.00    +0.000 C 
BRANCH   5   6
ATOM      6  C   UNL     1       1.644  13.064  18.638  0.00  0.00    +0.000 C 
ATOM      7  O   UNL     1       1.553  14.139  19.239  0.00  0.00    +0.000 OA
BRANCH   6   8
ATOM      8  OXT UNL     1       2.276  12.964  17.432  0.00  0.00    +0.000 OA
ATOM      9  HXT UNL     1       1.987  13.595  16.754  0.00  0.00    +0.000 HD
ENDBRANCH   6   8
ENDBRANCH   5   6
BRANCH   5  10
ATOM     10  C   UNL     1       0.920  11.734  20.705  0.00  0.00    +0.000 C 
BRANCH  10  11
ATOM     11  C   UNL     1      -0.502  11.945  21.167  0.00  0.00    +0.000 A 
ATOM     12  C   UNL     1      -1.568  12.141  20.276  0.00  0.00    +0.000 A 
ATOM     13  C   UNL     1      -2.816  12.577  20.758  0.00  0.00    +0.000 A 
ATOM     14  C   UNL     1      -3.013  12.750  22.117  0.00  0.00    +0.000 A 
ATOM     15  C   UNL     1      -1.981  12.515  23.025  0.00  0.00    +0.000 A 
ATOM     16  C   UNL     1      -0.736  12.086  22.541  0.00  0.00    +0.000 A 
BRANCH  14  17
ATOM     17  O   UNL     1      -4.240  13.205  22.525  0.00  0.00    +0.000 OA
BRANCH  17  18
ATOM     18  P   UNL     1      -4.304  14.423  23.753  0.00  0.00    +0.000 P 
ATOM     19  O   UNL     1      -4.352  15.547  22.720  0.00  0.00    +0.000 OA
BRANCH  18  20
ATOM     20  O   UNL     1      -4.367  15.640  24.981  0.00  0.00    +0.000 OA
ATOM     21  H   UNL     1      -4.359  16.488  24.492  0.00  0.00    +0.000 HD
ENDBRANCH  18  20
BRANCH  18  22
ATOM     22  O   UNL     1      -5.825  13.966  24.109  0.00  0.00    +0.000 OA
ATOM     23  H   UNL     1      -5.882  13.731  25.054  0.00  0.00    +0.000 HD
ENDBRANCH  18  22
ENDBRANCH  17  18
ENDBRANCH  14  17
ENDBRANCH  10  11
ENDBRANCH   5  10
ENDBRANCH   3   5
BRANCH   1  24
ATOM     24  C   UNL     1       2.356   8.478  17.584  0.00  0.00    +0.000 C 
BRANCH  24  25
ATOM     25  C   UNL     1       2.216   7.103  18.229  0.00  0.00    +0.000 C 
BRANCH  25  26
ATOM     26  C   UNL     1       2.179   7.192  19.755  0.00  0.00    +0.000 C 
BRANCH  26  27
ATOM     27  C   UNL     1       2.410   5.841  20.421  0.00  0.00    +0.000 C 
BRANCH  27  28
ATOM     28  C   UNL     1       1.199   4.944  20.252  0.00  0.00    +0.000 C 
BRANCH  28  29
ATOM     29  C   UNL     1       1.641   3.495  20.139  0.00  0.00    +0.000 C 
BRANCH  29  30
ATOM     30  C   UNL     1       1.069   2.883  18.873  0.00  0.00    +0.000 C 
BRANCH  30  31
ATOM     31  C   UNL     1       2.172   2.665  17.857  0.00  0.00    +0.000 C 
BRANCH  31  32
ATOM     32  C   UNL     1       3.491   2.436  18.572  0.00  0.00    +0.000 C 
BRANCH  32  33
ATOM     33  C   UNL     1       4.442   3.582  18.280  0.00  0.00    +0.000 C 
BRANCH  33  34
ATOM     34  C   UNL     1       3.971   4.349  17.056  0.00  0.00    +0.000 C 
BRANCH  34  35
ATOM     35  C   UNL     1       5.162   4.945  16.323  0.00  0.00    +0.000 C 
BRANCH  35  36
ATOM     36  C   UNL     1       5.940   3.851  15.608  0.00  0.00    +0.000 C 
BRANCH  36  38
ATOM     37  C   UNL     1       5.963   3.685  13.116  0.00  0.00    +0.000 C 
ATOM     38  C   UNL     1       6.558   4.384  14.324  0.00  0.00    +0.000 C 
ENDBRANCH  36  38
ENDBRANCH  35  36
ENDBRANCH  34  35
ENDBRANCH  33  34
ENDBRANCH  32  33
ENDBRANCH  31  32
ENDBRANCH  30  31
ENDBRANCH  29  30
ENDBRANCH  28  29
ENDBRANCH  27  28
ENDBRANCH  26  27
ENDBRANCH  25  26
ENDBRANCH  24  25
ENDBRANCH   1  24
TORSDOF 23
ENDMDL
MODEL 6
REMARK VINA RESULT:      -6.3      2.405      3.509
REMARK  Name = 
REMARK  24 active torsions:
REMARK  status: ('A' for Active; 'I' for Inactive)
REMARK    1  A    between atoms: C_1  and  C_2
REMARK    2  A    between atoms: C_2  and  C_3
REMARK    3  A    between atoms: C_3  and  C_4
REMARK    4  A    between atoms: C_4  and  C_5
REMARK    5  A    between atoms: C_5  and  C_6
REMARK    6  A    between atoms: C_6  and  C_7
REMARK    7  A    between atoms: C_7  and  C_8
REMARK    8  A    between atoms: C_8  and  C_9
REMARK    9  A    between atoms: C_9  and  C_10
REMARK   10  A    between atoms: C_10  and  C_11
REMARK   11  A    between atoms: C_11  and  C_12
REMARK   12  A    between atoms: C_12  and  C_13
REMARK   13  A    between atoms: C_13  and  C_14
REMARK   14  A    between atoms: C_14  and  C_15
REMARK   15  A    between atoms: C_15  and  C_16
REMARK   16  A    between atoms: N_18  and  CA_19
REMARK   17  A    between atoms: CA_19  and  C_20
REMARK   18  A    between atoms: CA_19  and  C_32
REMARK   19  A    between atoms: C_20  and  C_21
REMARK   20  A    between atoms: C_24  and  O_25
REMARK   21  A    between atoms: O_25  and  P_26
REMARK   22  A    between atoms: P_26  and  O_28
REMARK   23  A    between atoms: P_26  and  O_29
REMARK   24  A    between atoms: C_32  and  OXT_34
REMARK                            x       y       z     vdW  Elec       q    Type
REMARK                         _______ _______ _______ _____ _____    ______ ____
ROOT
ATOM      1  C   UNL     1       6.040   5.482  18.530  0.00  0.00    +0.000 C 
ATOM      2  O   UNL     1       6.714   4.574  19.021  0.00  0.00    +0.000 OA
ATOM      3  N   UNL     1       4.680   5.567  18.700  0.00  0.00    +0.000 N 
ATOM      4  H   UNL     1       4.136   6.272  18.199  0.00  0.00    +0.000 HD
ENDROOT
BRANCH   3   5
ATOM      5  CA  UNL     1       3.911   4.599  19.507  0.00  0.00    +0.000 C 
BRANCH   5   6
ATOM      6  C   UNL     1       3.791   3.285  18.733  0.00  0.00    +0.000 C 
ATOM      7  O   UNL     1       2.992   3.103  17.809  0.00  0.00    +0.000 OA
BRANCH   6   8
ATOM      8  OXT UNL     1       4.652   2.309  19.144  0.00  0.00    +0.000 OA
ATOM      9  HXT UNL     1       5.415   2.614  19.660  0.00  0.00    +0.000 HD
ENDBRANCH   6   8
ENDBRANCH   5   6
BRANCH   5  10
ATOM     10  C   UNL     1       2.533   5.155  19.952  0.00  0.00    +0.000 C 
BRANCH  10  11
ATOM     11  C   UNL     1       2.327   6.606  19.588  0.00  0.00    +0.000 A 
ATOM     12  C   UNL     1       1.826   7.552  20.496  0.00  0.00    +0.000 A 
ATOM     13  C   UNL     1       1.421   8.819  20.039  0.00  0.00    +0.000 A 
ATOM     14  C   UNL     1       1.576   9.159  18.706  0.00  0.00    +0.000 A 
ATOM     15  C   UNL     1       2.114   8.251  17.795  0.00  0.00    +0.000 A 
ATOM     16  C   UNL     1       2.512   6.986  18.252  0.00  0.00    +0.000 A 
BRANCH  14  17
ATOM     17  O   UNL     1       1.135  10.396  18.313  0.00  0.00    +0.000 OA
BRANCH  17  18
ATOM     18  P   UNL     1      -0.438  10.912  18.818  0.00  0.00    +0.000 P 
ATOM     19  O   UNL     1      -0.032  12.385  18.779  0.00  0.00    +0.000 OA
BRANCH  18  20
ATOM     20  O   UNL     1      -2.009  11.428  19.322  0.00  0.00    +0.000 OA
ATOM     21  H   UNL     1      -1.912  12.386  19.502  0.00  0.00    +0.000 HD
ENDBRANCH  18  20
BRANCH  18  22
ATOM     22  O   UNL     1      -1.029  10.488  17.362  0.00  0.00    +0.000 OA
ATOM     23  H   UNL     1      -0.294  10.227  16.776  0.00  0.00    +0.000 HD
ENDBRANCH  18  22
ENDBRANCH  17  18
ENDBRANCH  14  17
ENDBRANCH  10  11
ENDBRANCH   5  10
ENDBRANCH   3   5
BRANCH   1  24
ATOM     24  C   UNL     1       6.673   6.524  17.644  0.00  0.00    +0.000 C 
BRANCH  24  25
ATOM     25  C   UNL     1       7.920   7.185  18.222  0.00  0.00    +0.000 C 
BRANCH  25  26
ATOM     26  C   UNL     1       8.008   8.664  17.843  0.00  0.00    +0.000 C 
BRANCH  26  27
ATOM     27  C   UNL     1       8.842   9.468  18.831  0.00  0.00    +0.000 C 
BRANCH  27  28
ATOM     28  C   UNL     1       9.244  10.804  18.233  0.00  0.00    +0.000 C 
BRANCH  28  29
ATOM     29  C   UNL     1      10.418  11.382  19.003  0.00  0.00    +0.000 C 
BRANCH  29  30
ATOM     30  C   UNL     1      11.490  11.843  18.031  0.00  0.00    +0.000 C 
BRANCH  30  31
ATOM     31  C   UNL     1      11.709  13.336  18.169  0.00  0.00    +0.000 C 
BRANCH  31  32
ATOM     32  C   UNL     1      10.570  14.086  17.504  0.00  0.00    +0.000 C 
BRANCH  32  33
ATOM     33  C   UNL     1       9.843  14.936  18.531  0.00  0.00    +0.000 C 
BRANCH  33  34
ATOM     34  C   UNL     1       8.504  15.390  17.976  0.00  0.00    +0.000 C 
BRANCH  34  35
ATOM     35  C   UNL     1       7.603  14.189  17.740  0.00  0.00    +0.000 C 
BRANCH  35  36
ATOM     36  C   UNL     1       6.142  14.605  17.821  0.00  0.00    +0.000 C 
BRANCH  36  38
ATOM     37  C   UNL     1       5.364  15.159  20.129  0.00  0.00    +0.000 C 
ATOM     38  C   UNL     1       5.955  15.713  18.846  0.00  0.00    +0.000 C 
ENDBRANCH  36  38
ENDBRANCH  35  36
ENDBRANCH  34  35
ENDBRANCH  33  34
ENDBRANCH  32  33
ENDBRANCH  31  32
ENDBRANCH  30  31
ENDBRANCH  29  30
ENDBRANCH  28  29
ENDBRANCH  27  28
ENDBRANCH  26  27
ENDBRANCH  25  26
ENDBRANCH  24  25
ENDBRANCH   1  24
TORSDOF 23
ENDMDL
MODEL 7
REMARK VINA RESULT:      -6.2      2.718      3.743
REMARK  Name = 
REMARK  24 active torsions:
REMARK  status: ('A' for Active; 'I' for Inactive)
REMARK    1  A    between atoms: C_1  and  C_2
REMARK    2  A    between atoms: C_2  and  C_3
REMARK    3  A    between atoms: C_3  and  C_4
REMARK    4  A    between atoms: C_4  and  C_5
REMARK    5  A    between atoms: C_5  and  C_6
REMARK    6  A    between atoms: C_6  and  C_7
REMARK    7  A    between atoms: C_7  and  C_8
REMARK    8  A    between atoms: C_8  and  C_9
REMARK    9  A    between atoms: C_9  and  C_10
REMARK   10  A    between atoms: C_10  and  C_11
REMARK   11  A    between atoms: C_11  and  C_12
REMARK   12  A    between atoms: C_12  and  C_13
REMARK   13  A    between atoms: C_13  and  C_14
REMARK   14  A    between atoms: C_14  and  C_15
REMARK   15  A    between atoms: C_15  and  C_16
REMARK   16  A    between atoms: N_18  and  CA_19
REMARK   17  A    between atoms: CA_19  and  C_20
REMARK   18  A    between atoms: CA_19  and  C_32
REMARK   19  A    between atoms: C_20  and  C_21
REMARK   20  A    between atoms: C_24  and  O_25
REMARK   21  A    between atoms: O_25  and  P_26
REMARK   22  A    between atoms: P_26  and  O_28
REMARK   23  A    between atoms: P_26  and  O_29
REMARK   24  A    between atoms: C_32  and  OXT_34
REMARK                            x       y       z     vdW  Elec       q    Type
REMARK                         _______ _______ _______ _____ _____    ______ ____
ROOT
ATOM      1  C   UNL     1       7.403   6.522  17.277  0.00  0.00    +0.000 C 
ATOM      2  O   UNL     1       8.136   5.776  17.929  0.00  0.00    +0.000 OA
ATOM      3  N   UNL     1       6.793   6.125  16.112  0.00  0.00    +0.000 N 
ATOM      4  H   UNL     1       6.274   6.795  15.542  0.00  0.00    +0.000 HD
ENDROOT
BRANCH   3   5
ATOM      5  CA  UNL     1       6.935   4.765  15.557  0.00  0.00    +0.000 C 
BRANCH   5   6
ATOM      6  C   UNL     1       7.282   4.866  14.070  0.00  0.00    +0.000 C 
ATOM      7  O   UNL     1       8.156   5.613  13.618  0.00  0.00    +0.000 OA
BRANCH   6   8
ATOM      8  OXT UNL     1       6.543   4.051  13.262  0.00  0.00    +0.000 OA
ATOM      9  HXT UNL     1       5.679   3.785  13.615  0.00  0.00    +0.000 HD
ENDBRANCH   6   8
ENDBRANCH   5   6
BRANCH   5  10
ATOM     10  C   UNL     1       5.689   3.881  15.818  0.00  0.00    +0.000 C 
BRANCH  10  11
ATOM     11  C   UNL     1       4.976   4.214  17.107  0.00  0.00    +0.000 A 
ATOM     12  C   UNL     1       5.398   3.727  18.354  0.00  0.00    +0.000 A 
ATOM     13  C   UNL     1       4.564   3.861  19.479  0.00  0.00    +0.000 A 
ATOM     14  C   UNL     1       3.357   4.530  19.373  0.00  0.00    +0.000 A 
ATOM     15  C   UNL     1       2.939   5.062  18.154  0.00  0.00    +0.000 A 
ATOM     16  C   UNL     1       3.770   4.923  17.032  0.00  0.00    +0.000 A 
BRANCH  14  17
ATOM     17  O   UNL     1       2.573   4.602  20.496  0.00  0.00    +0.000 OA
BRANCH  17  18
ATOM     18  P   UNL     1       2.134   3.130  21.293  0.00  0.00    +0.000 P 
ATOM     19  O   UNL     1       2.402   3.729  22.673  0.00  0.00    +0.000 OA
BRANCH  18  20
ATOM     20  O   UNL     1       1.695   1.660  22.090  0.00  0.00    +0.000 OA
ATOM     21  H   UNL     1       2.525   1.142  22.134  0.00  0.00    +0.000 HD
ENDBRANCH  18  20
BRANCH  18  22
ATOM     22  O   UNL     1       0.578   3.395  20.895  0.00  0.00    +0.000 OA
ATOM     23  H   UNL     1       0.073   3.629  21.697  0.00  0.00    +0.000 HD
ENDBRANCH  18  22
ENDBRANCH  17  18
ENDBRANCH  14  17
ENDBRANCH  10  11
ENDBRANCH   5  10
ENDBRANCH   3   5
BRANCH   1  24
ATOM     24  C   UNL     1       7.192   7.957  17.690  0.00  0.00    +0.000 C 
BRANCH  24  25
ATOM     25  C   UNL     1       8.327   8.560  18.513  0.00  0.00    +0.000 C 
BRANCH  25  26
ATOM     26  C   UNL     1       8.941   9.780  17.825  0.00  0.00    +0.000 C 
BRANCH  26  27
ATOM     27  C   UNL     1       8.926  11.017  18.715  0.00  0.00    +0.000 C 
BRANCH  27  28
ATOM     28  C   UNL     1       9.721  12.144  18.083  0.00  0.00    +0.000 C 
BRANCH  28  29
ATOM     29  C   UNL     1      11.205  11.835  18.161  0.00  0.00    +0.000 C 
BRANCH  29  30
ATOM     30  C   UNL     1      11.692  12.024  19.587  0.00  0.00    +0.000 C 
BRANCH  30  31
ATOM     31  C   UNL     1      11.368  13.425  20.065  0.00  0.00    +0.000 C 
BRANCH  31  32
ATOM     32  C   UNL     1      12.271  14.427  19.369  0.00  0.00    +0.000 C 
BRANCH  32  33
ATOM     33  C   UNL     1      11.505  15.709  19.096  0.00  0.00    +0.000 C 
BRANCH  33  34
ATOM     34  C   UNL     1      10.800  15.617  17.754  0.00  0.00    +0.000 C 
BRANCH  34  35
ATOM     35  C   UNL     1       9.401  16.204  17.857  0.00  0.00    +0.000 C 
BRANCH  35  36
ATOM     36  C   UNL     1       8.864  16.034  19.270  0.00  0.00    +0.000 C 
BRANCH  36  38
ATOM     37  C   UNL     1       7.048  14.863  18.017  0.00  0.00    +0.000 C 
ATOM     38  C   UNL     1       7.823  14.925  19.319  0.00  0.00    +0.000 C 
ENDBRANCH  36  38
ENDBRANCH  35  36
ENDBRANCH  34  35
ENDBRANCH  33  34
ENDBRANCH  32  33
ENDBRANCH  31  32
ENDBRANCH  30  31
ENDBRANCH  29  30
ENDBRANCH  28  29
ENDBRANCH  27  28
ENDBRANCH  26  27
ENDBRANCH  25  26
ENDBRANCH  24  25
ENDBRANCH   1  24
TORSDOF 23
ENDMDL
MODEL 8
REMARK VINA RESULT:      -6.2      5.580      9.903
REMARK  Name = 
REMARK  24 active torsions:
REMARK  status: ('A' for Active; 'I' for Inactive)
REMARK    1  A    between atoms: C_1  and  C_2
REMARK    2  A    between atoms: C_2  and  C_3
REMARK    3  A    between atoms: C_3  and  C_4
REMARK    4  A    between atoms: C_4  and  C_5
REMARK    5  A    between atoms: C_5  and  C_6
REMARK    6  A    between atoms: C_6  and  C_7
REMARK    7  A    between atoms: C_7  and  C_8
REMARK    8  A    between atoms: C_8  and  C_9
REMARK    9  A    between atoms: C_9  and  C_10
REMARK   10  A    between atoms: C_10  and  C_11
REMARK   11  A    between atoms: C_11  and  C_12
REMARK   12  A    between atoms: C_12  and  C_13
REMARK   13  A    between atoms: C_13  and  C_14
REMARK   14  A    between atoms: C_14  and  C_15
REMARK   15  A    between atoms: C_15  and  C_16
REMARK   16  A    between atoms: N_18  and  CA_19
REMARK   17  A    between atoms: CA_19  and  C_20
REMARK   18  A    between atoms: CA_19  and  C_32
REMARK   19  A    between atoms: C_20  and  C_21
REMARK   20  A    between atoms: C_24  and  O_25
REMARK   21  A    between atoms: O_25  and  P_26
REMARK   22  A    between atoms: P_26  and  O_28
REMARK   23  A    between atoms: P_26  and  O_29
REMARK   24  A    between atoms: C_32  and  OXT_34
REMARK                            x       y       z     vdW  Elec       q    Type
REMARK                         _______ _______ _______ _____ _____    ______ ____
ROOT
ATOM      1  C   UNL     1       1.187   9.487  18.308  0.00  0.00    +0.000 C 
ATOM      2  O   UNL     1       0.134   9.483  17.668  0.00  0.00    +0.000 OA
ATOM      3  N   UNL     1       1.406  10.335  19.366  0.00  0.00    +0.000 N 
ATOM      4  H   UNL     1       2.323  10.385  19.811  0.00  0.00    +0.000 HD
ENDROOT
BRANCH   3   5
ATOM      5  CA  UNL     1       0.391  11.294  19.847  0.00  0.00    +0.000 C 
BRANCH   5   6
ATOM      6  C   UNL     1       1.090  12.579  20.294  0.00  0.00    +0.000 C 
ATOM      7  O   UNL     1       1.906  12.631  21.219  0.00  0.00    +0.000 OA
BRANCH   6   8
ATOM      8  OXT UNL     1       0.740  13.688  19.578  0.00  0.00    +0.000 OA
ATOM      9  HXT UNL     1       0.267  13.518  18.748  0.00  0.00    +0.000 HD
ENDBRANCH   6   8
ENDBRANCH   5   6
BRANCH   5  10
ATOM     10  C   UNL     1      -0.518  10.696  20.951  0.00  0.00    +0.000 C 
BRANCH  10  11
ATOM     11  C   UNL     1      -1.471  11.701  21.553  0.00  0.00    +0.000 A 
ATOM     12  C   UNL     1      -1.372  12.137  22.883  0.00  0.00    +0.000 A 
ATOM     13  C   UNL     1      -2.422  12.875  23.460  0.00  0.00    +0.000 A 
ATOM     14  C   UNL     1      -3.523  13.228  22.699  0.00  0.00    +0.000 A 
ATOM     15  C   UNL     1      -3.620  12.844  21.362  0.00  0.00    +0.000 A 
ATOM     16  C   UNL     1      -2.575  12.104  20.790  0.00  0.00    +0.000 A 
BRANCH  14  17
ATOM     17  O   UNL     1      -4.528  13.920  23.324  0.00  0.00    +0.000 OA
BRANCH  17  18
ATOM     18  P   UNL     1      -6.015  13.098  23.657  0.00  0.00    +0.000 P 
ATOM     19  O   UNL     1      -5.349  12.187  24.687  0.00  0.00    +0.000 OA
BRANCH  18  20
ATOM     20  O   UNL     1      -7.500  12.278  23.990  0.00  0.00    +0.000 OA
ATOM     21  H   UNL     1      -8.032  12.921  24.502  0.00  0.00    +0.000 HD
ENDBRANCH  18  20
BRANCH  18  22
ATOM     22  O   UNL     1      -6.567  14.432  24.410  0.00  0.00    +0.000 OA
ATOM     23  H   UNL     1      -6.110  14.535  25.265  0.00  0.00    +0.000 HD
ENDBRANCH  18  22
ENDBRANCH  17  18
ENDBRANCH  14  17
ENDBRANCH  10  11
ENDBRANCH   5  10
ENDBRANCH   3   5
BRANCH   1  24
ATOM     24  C   UNL     1       2.338   8.596  17.913  0.00  0.00    +0.000 C 
BRANCH  24  25
ATOM     25  C   UNL     1       2.480   7.325  18.745  0.00  0.00    +0.000 C 
BRANCH  25  26
ATOM     26  C   UNL     1       2.108   6.076  17.944  0.00  0.00    +0.000 C 
BRANCH  26  27
ATOM     27  C   UNL     1       1.629   4.937  18.835  0.00  0.00    +0.000 C 
BRANCH  27  28
ATOM     28  C   UNL     1       1.633   5.357  20.293  0.00  0.00    +0.000 C 
BRANCH  28  29
ATOM     29  C   UNL     1       2.215   4.246  21.149  0.00  0.00    +0.000 C 
BRANCH  29  30
ATOM     30  C   UNL     1       2.458   3.016  20.293  0.00  0.00    +0.000 C 
BRANCH  30  31
ATOM     31  C   UNL     1       3.915   2.607  20.374  0.00  0.00    +0.000 C 
BRANCH  31  32
ATOM     32  C   UNL     1       4.620   2.960  19.077  0.00  0.00    +0.000 C 
BRANCH  32  33
ATOM     33  C   UNL     1       5.250   4.336  19.190  0.00  0.00    +0.000 C 
BRANCH  33  34
ATOM     34  C   UNL     1       6.085   4.628  17.956  0.00  0.00    +0.000 C 
BRANCH  34  35
ATOM     35  C   UNL     1       5.716   5.988  17.385  0.00  0.00    +0.000 C 
BRANCH  35  36
ATOM     36  C   UNL     1       5.375   5.863  15.908  0.00  0.00    +0.000 C 
BRANCH  36  38
ATOM     37  C   UNL     1       6.121   4.136  14.265  0.00  0.00    +0.000 C 
ATOM     38  C   UNL     1       5.281   4.400  15.501  0.00  0.00    +0.000 C 
ENDBRANCH  36  38
ENDBRANCH  35  36
ENDBRANCH  34  35
ENDBRANCH  33  34
ENDBRANCH  32  33
ENDBRANCH  31  32
ENDBRANCH  30  31
ENDBRANCH  29  30
ENDBRANCH  28  29
ENDBRANCH  27  28
ENDBRANCH  26  27
ENDBRANCH  25  26
ENDBRANCH  24  25
ENDBRANCH   1  24
TORSDOF 23
ENDMDL
MODEL 9
REMARK VINA RESULT:      -6.1      2.385      4.587
REMARK  Name = 
REMARK  24 active torsions:
REMARK  status: ('A' for Active; 'I' for Inactive)
REMARK    1  A    between atoms: C_1  and  C_2
REMARK    2  A    between atoms: C_2  and  C_3
REMARK    3  A    between atoms: C_3  and  C_4
REMARK    4  A    between atoms: C_4  and  C_5
REMARK    5  A    between atoms: C_5  and  C_6
REMARK    6  A    between atoms: C_6  and  C_7
REMARK    7  A    between atoms: C_7  and  C_8
REMARK    8  A    between atoms: C_8  and  C_9
REMARK    9  A    between atoms: C_9  and  C_10
REMARK   10  A    between atoms: C_10  and  C_11
REMARK   11  A    between atoms: C_11  and  C_12
REMARK   12  A    between atoms: C_12  and  C_13
REMARK   13  A    between atoms: C_13  and  C_14
REMARK   14  A    between atoms: C_14  and  C_15
REMARK   15  A    between atoms: C_15  and  C_16
REMARK   16  A    between atoms: N_18  and  CA_19
REMARK   17  A    between atoms: CA_19  and  C_20
REMARK   18  A    between atoms: CA_19  and  C_32
REMARK   19  A    between atoms: C_20  and  C_21
REMARK   20  A    between atoms: C_24  and  O_25
REMARK   21  A    between atoms: O_25  and  P_26
REMARK   22  A    between atoms: P_26  and  O_28
REMARK   23  A    between atoms: P_26  and  O_29
REMARK   24  A    between atoms: C_32  and  OXT_34
REMARK                            x       y       z     vdW  Elec       q    Type
REMARK                         _______ _______ _______ _____ _____    ______ ____
ROOT
ATOM      1  C   UNL     1       5.041   4.266  18.115  0.00  0.00    +0.000 C 
ATOM      2  O   UNL     1       5.968   4.107  18.912  0.00  0.00    +0.000 OA
ATOM      3  N   UNL     1       3.725   4.287  18.507  0.00  0.00    +0.000 N 
ATOM      4  H   UNL     1       2.976   4.319  17.813  0.00  0.00    +0.000 HD
ENDROOT
BRANCH   3   5
ATOM      5  CA  UNL     1       3.306   4.149  19.916  0.00  0.00    +0.000 C 
BRANCH   5   6
ATOM      6  C   UNL     1       3.272   2.665  20.285  0.00  0.00    +0.000 C 
ATOM      7  O   UNL     1       3.301   1.750  19.456  0.00  0.00    +0.000 OA
BRANCH   6   8
ATOM      8  OXT UNL     1       3.208   2.420  21.627  0.00  0.00    +0.000 OA
ATOM      9  HXT UNL     1       2.358   2.624  22.049  0.00  0.00    +0.000 HD
ENDBRANCH   6   8
ENDBRANCH   5   6
BRANCH   5  10
ATOM     10  C   UNL     1       1.964   4.867  20.212  0.00  0.00    +0.000 C 
BRANCH  10  11
ATOM     11  C   UNL     1       1.997   6.347  19.911  0.00  0.00    +0.000 A 
ATOM     12  C   UNL     1       1.452   7.309  20.776  0.00  0.00    +0.000 A 
ATOM     13  C   UNL     1       1.288   8.635  20.338  0.00  0.00    +0.000 A 
ATOM     14  C   UNL     1       1.721   9.009  19.078  0.00  0.00    +0.000 A 
ATOM     15  C   UNL     1       2.308   8.080  18.219  0.00  0.00    +0.000 A 
ATOM     16  C   UNL     1       2.466   6.757  18.657  0.00  0.00    +0.000 A 
BRANCH  14  17
ATOM     17  O   UNL     1       1.506  10.308  18.694  0.00  0.00    +0.000 OA
BRANCH  17  18
ATOM     18  P   UNL     1      -0.060  10.998  18.953  0.00  0.00    +0.000 P 
ATOM     19  O   UNL     1       0.418  12.387  18.535  0.00  0.00    +0.000 OA
BRANCH  18  20
ATOM     20  O   UNL     1      -1.624  11.687  19.212  0.00  0.00    +0.000 OA
ATOM     21  H   UNL     1      -2.165  11.371  18.459  0.00  0.00    +0.000 HD
ENDBRANCH  18  20
BRANCH  18  22
ATOM     22  O   UNL     1      -0.609  10.210  17.638  0.00  0.00    +0.000 OA
ATOM     23  H   UNL     1      -0.772   9.275  17.864  0.00  0.00    +0.000 HD
ENDBRANCH  18  22
ENDBRANCH  17  18
ENDBRANCH  14  17
ENDBRANCH  10  11
ENDBRANCH   5  10
ENDBRANCH   3   5
BRANCH   1  24
ATOM     24  C   UNL     1       5.302   4.378  16.634  0.00  0.00    +0.000 C 
BRANCH  24  25
ATOM     25  C   UNL     1       5.255   5.798  16.080  0.00  0.00    +0.000 C 
BRANCH  25  26
ATOM     26  C   UNL     1       5.858   6.810  17.056  0.00  0.00    +0.000 C 
BRANCH  26  27
ATOM     27  C   UNL     1       7.378   6.867  16.966  0.00  0.00    +0.000 C 
BRANCH  27  28
ATOM     28  C   UNL     1       7.961   7.575  18.175  0.00  0.00    +0.000 C 
BRANCH  28  29
ATOM     29  C   UNL     1       8.019   9.070  17.920  0.00  0.00    +0.000 C 
BRANCH  29  30
ATOM     30  C   UNL     1       9.217   9.666  18.637  0.00  0.00    +0.000 C 
BRANCH  30  31
ATOM     31  C   UNL     1       9.004  11.150  18.861  0.00  0.00    +0.000 C 
BRANCH  31  32
ATOM     32  C   UNL     1      10.128  11.934  18.207  0.00  0.00    +0.000 C 
BRANCH  32  33
ATOM     33  C   UNL     1       9.590  13.240  17.652  0.00  0.00    +0.000 C 
BRANCH  33  34
ATOM     34  C   UNL     1       9.588  14.303  18.737  0.00  0.00    +0.000 C 
BRANCH  34  35
ATOM     35  C   UNL     1       8.161  14.723  19.053  0.00  0.00    +0.000 C 
BRANCH  35  36
ATOM     36  C   UNL     1       7.397  14.998  17.767  0.00  0.00    +0.000 C 
BRANCH  36  38
ATOM     37  C   UNL     1       4.930  15.357  17.923  0.00  0.00    +0.000 C 
ATOM     38  C   UNL     1       6.033  14.324  17.798  0.00  0.00    +0.000 C 
ENDBRANCH  36  38
ENDBRANCH  35  36
ENDBRANCH  34  35
ENDBRANCH  33  34
ENDBRANCH  32  33
ENDBRANCH  31  32
ENDBRANCH  30  31
ENDBRANCH  29  30
ENDBRANCH  28  29
ENDBRANCH  27  28
ENDBRANCH  26  27
ENDBRANCH  25  26
ENDBRANCH  24  25
ENDBRANCH   1  24
TORSDOF 23
ENDMDL
