MODEL 1
REMARK VINA RESULT:      -7.0      0.000      0.000
REMARK  Name = 
REMARK  7 active torsions:
REMARK  status: ('A' for Active; 'I' for Inactive)
REMARK    1  A    between atoms: C_1  and  C_2
REMARK    2  A    between atoms: C_4  and  N_5
REMARK    3  A    between atoms: C_6  and  C_8
REMARK    4  A    between atoms: C_13  and  C_14
REMARK    5  A    between atoms: C_14  and  O_16
REMARK    6  A    between atoms: C_17  and  C_18
REMARK    7  A    between atoms: C_21  and  C_22
REMARK                            x       y       z     vdW  Elec       q    Type
REMARK                         _______ _______ _______ _____ _____    ______ ____
ROOT
ATOM      1  N   UNL     1       5.147   3.733  17.349  0.00  0.00    +0.000 N 
ATOM      2  C   UNL     1       4.185   4.558  17.899  0.00  0.00    +0.000 C 
ATOM      3  O   UNL     1       3.788   5.612  17.395  0.00  0.00    +0.000 OA
ATOM      4  H   UNL     1       5.804   3.328  18.011  0.00  0.00    +0.000 HD
ENDROOT
BRANCH   1   8
ATOM      5  C   UNL     1       6.090   3.567  12.194  0.00  0.00    +0.000 C 
ATOM      6  C   UNL     1       6.148   3.887  13.657  0.00  0.00    +0.000 A 
ATOM      7  S   UNL     1       5.055   3.146  14.740  0.00  0.00    +0.000 S 
ATOM      8  C   UNL     1       5.679   3.990  16.078  0.00  0.00    +0.000 A 
ATOM      9  C   UNL     1       6.766   4.790  15.744  0.00  0.00    +0.000 A 
ATOM     10  C   UNL     1       6.999   4.781  14.297  0.00  0.00    +0.000 A 
ATOM     11  C   UNL     1       7.979   5.616  13.524  0.00  0.00    +0.000 C 
BRANCH   9  12
ATOM     12  C   UNL     1       7.446   5.569  16.782  0.00  0.00    +0.000 C 
ATOM     13  N   UNL     1       7.549   6.913  16.587  0.00  0.00    +0.000 N 
ATOM     14  O   UNL     1       7.977   5.055  17.764  0.00  0.00    +0.000 OA
ATOM     15  H   UNL     1       7.411   7.329  15.677  0.00  0.00    +0.000 HD
ATOM     16  H   UNL     1       8.099   7.425  17.265  0.00  0.00    +0.000 HD
ENDBRANCH   9  12
ENDBRANCH   1   8
BRANCH   2  17
ATOM     17  C   UNL     1       3.653   4.211  19.301  0.00  0.00    +0.000 C 
ATOM     18  C   UNL     1       2.639   5.151  19.962  0.00  0.00    +0.000 C 
ATOM     19  C   UNL     1       1.179   4.714  19.908  0.00  0.00    +0.000 C 
ATOM     20  C   UNL     1       0.991   3.248  20.262  0.00  0.00    +0.000 C 
ATOM     21  C   UNL     1       1.836   2.366  19.355  0.00  0.00    +0.000 C 
ATOM     22  C   UNL     1       3.329   2.706  19.399  0.00  0.00    +0.000 C 
BRANCH  22  23
ATOM     23  C   UNL     1       3.992   2.131  20.645  0.00  0.00    +0.000 C 
ATOM     24  O   UNL     1       3.495   2.109  21.762  0.00  0.00    +0.000 OA
BRANCH  23  25
ATOM     25  O   UNL     1       5.233   1.652  20.406  0.00  0.00    +0.000 OA
ATOM     26  H   UNL     1       5.665   2.032  19.614  0.00  0.00    +0.000 HD
ENDBRANCH  23  25
ENDBRANCH  22  23
ENDBRANCH   2  17
TORSDOF 5
ENDMDL
MODEL 2
REMARK VINA RESULT:      -6.8      5.270      7.663
REMARK  Name = 
REMARK  7 active torsions:
REMARK  status: ('A' for Active; 'I' for Inactive)
REMARK    1  A    between atoms: C_1  and  C_2
REMARK    2  A    between atoms: C_4  and  N_5
REMARK    3  A    between atoms: C_6  and  C_8
REMARK    4  A    between atoms: C_13  and  C_14
REMARK    5  A    between atoms: C_14  and  O_16
REMARK    6  A    between atoms: C_17  and  C_18
REMARK    7  A    between atoms: C_21  and  C_22
REMARK                            x       y       z     vdW  Elec       q    Type
REMARK                         _______ _______ _______ _____ _____    ______ ____
ROOT
ATOM      1  N   UNL     1       1.295   7.891  20.256  0.00  0.00    +0.000 N 
ATOM      2  C   UNL     1       2.252   7.454  19.361  0.00  0.00    +0.000 C 
ATOM      3  O   UNL     1       2.700   8.121  18.424  0.00  0.00    +0.000 OA
ATOM      4  H   UNL     1       0.598   7.200  20.520  0.00  0.00    +0.000 HD
ENDROOT
BRANCH   1   8
ATOM      5  C   UNL     1      -0.257  12.614  18.590  0.00  0.00    +0.000 C 
ATOM      6  C   UNL     1       0.132  11.447  19.447  0.00  0.00    +0.000 A 
ATOM      7  S   UNL     1       0.619   9.979  18.724  0.00  0.00    +0.000 S 
ATOM      8  C   UNL     1       0.829   9.213  20.228  0.00  0.00    +0.000 A 
ATOM      9  C   UNL     1       0.605  10.070  21.300  0.00  0.00    +0.000 A 
ATOM     10  C   UNL     1       0.125  11.374  20.835  0.00  0.00    +0.000 A 
ATOM     11  C   UNL     1      -0.361  12.522  21.675  0.00  0.00    +0.000 C 
BRANCH   9  12
ATOM     12  C   UNL     1       0.767   9.583  22.672  0.00  0.00    +0.000 C 
ATOM     13  N   UNL     1      -0.363   9.409  23.411  0.00  0.00    +0.000 N 
ATOM     14  O   UNL     1       1.867   9.399  23.190  0.00  0.00    +0.000 OA
ATOM     15  H   UNL     1      -1.240   9.832  23.145  0.00  0.00    +0.000 HD
ATOM     16  H   UNL     1      -0.231   9.161  24.383  0.00  0.00    +0.000 HD
ENDBRANCH   9  12
ENDBRANCH   1   8
BRANCH   2  17
ATOM     17  C   UNL     1       2.710   5.987  19.453  0.00  0.00    +0.000 C 
ATOM     18  C   UNL     1       2.167   5.112  20.589  0.00  0.00    +0.000 C 
ATOM     19  C   UNL     1       1.038   4.155  20.222  0.00  0.00    +0.000 C 
ATOM     20  C   UNL     1       1.301   3.403  18.928  0.00  0.00    +0.000 C 
ATOM     21  C   UNL     1       1.556   4.375  17.786  0.00  0.00    +0.000 C 
ATOM     22  C   UNL     1       2.719   5.336  18.055  0.00  0.00    +0.000 C 
BRANCH  22  23
ATOM     23  C   UNL     1       4.064   4.654  17.830  0.00  0.00    +0.000 C 
ATOM     24  O   UNL     1       4.257   3.704  17.085  0.00  0.00    +0.000 OA
BRANCH  23  25
ATOM     25  O   UNL     1       5.058   5.194  18.570  0.00  0.00    +0.000 OA
ATOM     26  H   UNL     1       4.803   5.404  19.491  0.00  0.00    +0.000 HD
ENDBRANCH  23  25
ENDBRANCH  22  23
ENDBRANCH   2  17
TORSDOF 5
ENDMDL
MODEL 3
REMARK VINA RESULT:      -6.7      4.582      7.397
REMARK  Name = 
REMARK  7 active torsions:
REMARK  status: ('A' for Active; 'I' for Inactive)
REMARK    1  A    between atoms: C_1  and  C_2
REMARK    2  A    between atoms: C_4  and  N_5
REMARK    3  A    between atoms: C_6  and  C_8
REMARK    4  A    between atoms: C_13  and  C_14
REMARK    5  A    between atoms: C_14  and  O_16
REMARK    6  A    between atoms: C_17  and  C_18
REMARK    7  A    between atoms: C_21  and  C_22
REMARK                            x       y       z     vdW  Elec       q    Type
REMARK                         _______ _______ _______ _____ _____    ______ ____
ROOT
ATOM      1  N   UNL     1       2.416   7.696  19.168  0.00  0.00    +0.000 N 
ATOM      2  C   UNL     1       2.443   6.327  19.344  0.00  0.00    +0.000 C 
ATOM      3  O   UNL     1       1.833   5.716  20.226  0.00  0.00    +0.000 OA
ATOM      4  H   UNL     1       3.306   8.121  18.919  0.00  0.00    +0.000 HD
ENDROOT
BRANCH   1   8
ATOM      5  C   UNL     1      -0.282   9.711  23.187  0.00  0.00    +0.000 C 
ATOM      6  C   UNL     1       0.277   9.436  21.823  0.00  0.00    +0.000 A 
ATOM      7  S   UNL     1       1.405   8.174  21.599  0.00  0.00    +0.000 S 
ATOM      8  C   UNL     1       1.575   8.508  19.940  0.00  0.00    +0.000 A 
ATOM      9  C   UNL     1       0.733   9.530  19.513  0.00  0.00    +0.000 A 
ATOM     10  C   UNL     1       0.015  10.124  20.644  0.00  0.00    +0.000 A 
ATOM     11  C   UNL     1      -0.876  11.334  20.627  0.00  0.00    +0.000 C 
BRANCH   9  12
ATOM     12  C   UNL     1       0.729   9.932  18.104  0.00  0.00    +0.000 C 
ATOM     13  N   UNL     1      -0.484  10.090  17.504  0.00  0.00    +0.000 N 
ATOM     14  O   UNL     1       1.756  10.058  17.442  0.00  0.00    +0.000 OA
ATOM     15  H   UNL     1      -1.327   9.705  17.903  0.00  0.00    +0.000 HD
ATOM     16  H   UNL     1      -0.471  10.278  16.510  0.00  0.00    +0.000 HD
ENDBRANCH   9  12
ENDBRANCH   1   8
BRANCH   2  17
ATOM     17  C   UNL     1       3.396   5.504  18.459  0.00  0.00    +0.000 C 
ATOM     18  C   UNL     1       4.002   6.160  17.213  0.00  0.00    +0.000 C 
ATOM     19  C   UNL     1       5.440   6.652  17.343  0.00  0.00    +0.000 C 
ATOM     20  C   UNL     1       6.350   5.639  18.017  0.00  0.00    +0.000 C 
ATOM     21  C   UNL     1       5.803   5.254  19.384  0.00  0.00    +0.000 C 
ATOM     22  C   UNL     1       4.378   4.694  19.331  0.00  0.00    +0.000 C 
BRANCH  22  23
ATOM     23  C   UNL     1       4.371   3.240  18.874  0.00  0.00    +0.000 C 
ATOM     24  O   UNL     1       3.717   2.797  17.941  0.00  0.00    +0.000 OA
BRANCH  23  25
ATOM     25  O   UNL     1       5.162   2.448  19.632  0.00  0.00    +0.000 OA
ATOM     26  H   UNL     1       5.674   1.787  19.123  0.00  0.00    +0.000 HD
ENDBRANCH  23  25
ENDBRANCH  22  23
ENDBRANCH   2  17
TORSDOF 5
ENDMDL
MODEL 4
REMARK VINA RESULT:      -6.6      4.467      7.170
REMARK  Name = 
REMARK  7 active torsions:
REMARK  status: ('A' for Active; 'I' for Inactive)
REMARK    1  A    between atoms: C_1  and  C_2
REMARK    2  A    between atoms: C_4  and  N_5
REMARK    3  A    between atoms: C_6  and  C_8
REMARK    4  A    between atoms: C_13  and  C_14
REMARK    5  A    between atoms: C_14  and  O_16
REMARK    6  A    between atoms: C_17  and  C_18
REMARK    7  A    between atoms: C_21  and  C_22
REMARK                            x       y       z     vdW  Elec       q    Type
REMARK                         _______ _______ _______ _____ _____    ______ ____
ROOT
ATOM      1  N   UNL     1       2.477   7.223  19.820  0.00  0.00    +0.000 N 
ATOM      2  C   UNL     1       2.134   5.902  20.029  0.00  0.00    +0.000 C 
ATOM      3  O   UNL     1       1.167   5.520  20.693  0.00  0.00    +0.000 OA
ATOM      4  H   UNL     1       3.473   7.425  19.850  0.00  0.00    +0.000 HD
ENDROOT
BRANCH   1   8
ATOM      5  C   UNL     1      -0.416  10.342  22.885  0.00  0.00    +0.000 C 
ATOM      6  C   UNL     1       0.263   9.712  21.707  0.00  0.00    +0.000 A 
ATOM      7  S   UNL     1       1.249   8.335  21.922  0.00  0.00    +0.000 S 
ATOM      8  C   UNL     1       1.654   8.264  20.272  0.00  0.00    +0.000 A 
ATOM      9  C   UNL     1       0.999   9.233  19.519  0.00  0.00    +0.000 A 
ATOM     10  C   UNL     1       0.229  10.133  20.382  0.00  0.00    +0.000 A 
ATOM     11  C   UNL     1      -0.501  11.383  19.979  0.00  0.00    +0.000 C 
BRANCH   9  12
ATOM     12  C   UNL     1       1.211   9.301  18.071  0.00  0.00    +0.000 C 
ATOM     13  N   UNL     1       0.130   9.591  17.295  0.00  0.00    +0.000 N 
ATOM     14  O   UNL     1       2.288   9.040  17.541  0.00  0.00    +0.000 OA
ATOM     15  H   UNL     1      -0.812   9.506  17.646  0.00  0.00    +0.000 HD
ATOM     16  H   UNL     1       0.271   9.545  16.294  0.00  0.00    +0.000 HD
ENDBRANCH   9  12
ENDBRANCH   1   8
BRANCH   2  17
ATOM     17  C   UNL     1       3.092   4.816  19.506  0.00  0.00    +0.000 C 
ATOM     18  C   UNL     1       2.504   3.581  18.816  0.00  0.00    +0.000 C 
ATOM     19  C   UNL     1       2.553   3.573  17.291  0.00  0.00    +0.000 C 
ATOM     20  C   UNL     1       3.901   4.009  16.743  0.00  0.00    +0.000 C 
ATOM     21  C   UNL     1       4.274   5.386  17.272  0.00  0.00    +0.000 C 
ATOM     22  C   UNL     1       4.305   5.460  18.803  0.00  0.00    +0.000 C 
BRANCH  22  23
ATOM     23  C   UNL     1       5.587   4.853  19.361  0.00  0.00    +0.000 C 
ATOM     24  O   UNL     1       6.567   5.487  19.726  0.00  0.00    +0.000 OA
BRANCH  23  25
ATOM     25  O   UNL     1       5.557   3.502  19.395  0.00  0.00    +0.000 OA
ATOM     26  H   UNL     1       5.812   3.073  18.553  0.00  0.00    +0.000 HD
ENDBRANCH  23  25
ENDBRANCH  22  23
ENDBRANCH   2  17
TORSDOF 5
ENDMDL
MODEL 5
REMARK VINA RESULT:      -6.6      4.659      7.220
REMARK  Name = 
REMARK  7 active torsions:
REMARK  status: ('A' for Active; 'I' for Inactive)
REMARK    1  A    between atoms: C_1  and  C_2
REMARK    2  A    between atoms: C_4  and  N_5
REMARK    3  A    between atoms: C_6  and  C_8
REMARK    4  A    between atoms: C_13  and  C_14
REMARK    5  A    between atoms: C_14  and  O_16
REMARK    6  A    between atoms: C_17  and  C_18
REMARK    7  A    between atoms: C_21  and  C_22
REMARK                            x       y       z     vdW  Elec       q    Type
REMARK                         _______ _______ _______ _____ _____    ______ ____
ROOT
ATOM      1  N   UNL     1       2.210   7.473  20.526  0.00  0.00    +0.000 N 
ATOM      2  C   UNL     1       1.628   6.221  20.486  0.00  0.00    +0.000 C 
ATOM      3  O   UNL     1       0.432   5.992  20.684  0.00  0.00    +0.000 OA
ATOM      4  H   UNL     1       3.128   7.513  20.962  0.00  0.00    +0.000 HD
ENDROOT
BRANCH   1   8
ATOM      5  C   UNL     1      -0.858  11.181  22.606  0.00  0.00    +0.000 C 
ATOM      6  C   UNL     1      -0.041  10.355  21.660  0.00  0.00    +0.000 A 
ATOM      7  S   UNL     1       0.735   8.938  22.212  0.00  0.00    +0.000 S 
ATOM      8  C   UNL     1       1.432   8.627  20.692  0.00  0.00    +0.000 A 
ATOM      9  C   UNL     1       1.036   9.545  19.725  0.00  0.00    +0.000 A 
ATOM     10  C   UNL     1       0.218  10.608  20.317  0.00  0.00    +0.000 A 
ATOM     11  C   UNL     1      -0.287  11.854  19.646  0.00  0.00    +0.000 C 
BRANCH   9  12
ATOM     12  C   UNL     1       1.521   9.413  18.350  0.00  0.00    +0.000 C 
ATOM     13  N   UNL     1       2.016  10.533  17.752  0.00  0.00    +0.000 N 
ATOM     14  O   UNL     1       1.432   8.370  17.707  0.00  0.00    +0.000 OA
ATOM     15  H   UNL     1       1.827  11.455  18.116  0.00  0.00    +0.000 HD
ATOM     16  H   UNL     1       2.262  10.448  16.774  0.00  0.00    +0.000 HD
ENDBRANCH   9  12
ENDBRANCH   1   8
BRANCH   2  17
ATOM     17  C   UNL     1       2.550   5.002  20.304  0.00  0.00    +0.000 C 
ATOM     18  C   UNL     1       2.335   3.772  21.194  0.00  0.00    +0.000 C 
ATOM     19  C   UNL     1       1.589   2.603  20.558  0.00  0.00    +0.000 C 
ATOM     20  C   UNL     1       2.085   2.280  19.159  0.00  0.00    +0.000 C 
ATOM     21  C   UNL     1       1.997   3.507  18.263  0.00  0.00    +0.000 C 
ATOM     22  C   UNL     1       2.773   4.711  18.806  0.00  0.00    +0.000 C 
BRANCH  22  23
ATOM     23  C   UNL     1       4.267   4.573  18.539  0.00  0.00    +0.000 C 
ATOM     24  O   UNL     1       5.155   4.889  19.318  0.00  0.00    +0.000 OA
BRANCH  23  25
ATOM     25  O   UNL     1       4.537   4.076  17.312  0.00  0.00    +0.000 OA
ATOM     26  H   UNL     1       4.440   4.725  16.585  0.00  0.00    +0.000 HD
ENDBRANCH  23  25
ENDBRANCH  22  23
ENDBRANCH   2  17
TORSDOF 5
ENDMDL
MODEL 6
REMARK VINA RESULT:      -6.6      4.632      7.393
REMARK  Name = 
REMARK  7 active torsions:
REMARK  status: ('A' for Active; 'I' for Inactive)
REMARK    1  A    between atoms: C_1  and  C_2
REMARK    2  A    between atoms: C_4  and  N_5
REMARK    3  A    between atoms: C_6  and  C_8
REMARK    4  A    between atoms: C_13  and  C_14
REMARK    5  A    between atoms: C_14  and  O_16
REMARK    6  A    between atoms: C_17  and  C_18
REMARK    7  A    between atoms: C_21  and  C_22
REMARK                            x       y       z     vdW  Elec       q    Type
REMARK                         _______ _______ _______ _____ _____    ______ ____
ROOT
ATOM      1  N   UNL     1       2.286   7.508  19.885  0.00  0.00    +0.000 N 
ATOM      2  C   UNL     1       1.978   6.181  20.110  0.00  0.00    +0.000 C 
ATOM      3  O   UNL     1       1.032   5.783  20.796  0.00  0.00    +0.000 OA
ATOM      4  H   UNL     1       3.278   7.733  19.893  0.00  0.00    +0.000 HD
ENDROOT
BRANCH   1   8
ATOM      5  C   UNL     1      -0.625  10.578  22.983  0.00  0.00    +0.000 C 
ATOM      6  C   UNL     1       0.050   9.958  21.796  0.00  0.00    +0.000 A 
ATOM      7  S   UNL     1       1.066   8.602  22.001  0.00  0.00    +0.000 S 
ATOM      8  C   UNL     1       1.449   8.534  20.345  0.00  0.00    +0.000 A 
ATOM      9  C   UNL     1       0.763   9.487  19.600  0.00  0.00    +0.000 A 
ATOM     10  C   UNL     1      -0.013  10.374  20.471  0.00  0.00    +0.000 A 
ATOM     11  C   UNL     1      -0.773  11.608  20.075  0.00  0.00    +0.000 C 
BRANCH   9  12
ATOM     12  C   UNL     1       0.952   9.554  18.149  0.00  0.00    +0.000 C 
ATOM     13  N   UNL     1      -0.157   9.747  17.383  0.00  0.00    +0.000 N 
ATOM     14  O   UNL     1       2.041   9.375  17.608  0.00  0.00    +0.000 OA
ATOM     15  H   UNL     1      -1.086   9.591  17.746  0.00  0.00    +0.000 HD
ATOM     16  H   UNL     1      -0.025   9.700  16.381  0.00  0.00    +0.000 HD
ENDBRANCH   9  12
ENDBRANCH   1   8
BRANCH   2  17
ATOM     17  C   UNL     1       2.950   5.114  19.576  0.00  0.00    +0.000 C 
ATOM     18  C   UNL     1       3.025   3.759  20.288  0.00  0.00    +0.000 C 
ATOM     19  C   UNL     1       2.274   2.607  19.627  0.00  0.00    +0.000 C 
ATOM     20  C   UNL     1       2.508   2.536  18.127  0.00  0.00    +0.000 C 
ATOM     21  C   UNL     1       2.135   3.854  17.464  0.00  0.00    +0.000 C 
ATOM     22  C   UNL     1       2.894   5.056  18.035  0.00  0.00    +0.000 C 
BRANCH  22  23
ATOM     23  C   UNL     1       4.311   5.131  17.480  0.00  0.00    +0.000 C 
ATOM     24  O   UNL     1       4.668   4.695  16.394  0.00  0.00    +0.000 OA
BRANCH  23  25
ATOM     25  O   UNL     1       5.179   5.720  18.332  0.00  0.00    +0.000 OA
ATOM     26  H   UNL     1       5.900   6.215  17.893  0.00  0.00    +0.000 HD
ENDBRANCH  23  25
ENDBRANCH  22  23
ENDBRANCH   2  17
TORSDOF 5
ENDMDL
MODEL 7
REMARK VINA RESULT:      -6.5      4.324      6.307
REMARK  Name = 
REMARK  7 active torsions:
REMARK  status: ('A' for Active; 'I' for Inactive)
REMARK    1  A    between atoms: C_1  and  C_2
REMARK    2  A    between atoms: C_4  and  N_5
REMARK    3  A    between atoms: C_6  and  C_8
REMARK    4  A    between atoms: C_13  and  C_14
REMARK    5  A    between atoms: C_14  and  O_16
REMARK    6  A    between atoms: C_17  and  C_18
REMARK    7  A    between atoms: C_21  and  C_22
REMARK                            x       y       z     vdW  Elec       q    Type
REMARK                         _______ _______ _______ _____ _____    ______ ____
ROOT
ATOM      1  N   UNL     1       2.729   6.982  19.863  0.00  0.00    +0.000 N 
ATOM      2  C   UNL     1       1.986   7.993  19.286  0.00  0.00    +0.000 C 
ATOM      3  O   UNL     1       1.690   8.058  18.090  0.00  0.00    +0.000 OA
ATOM      4  H   UNL     1       3.399   7.279  20.566  0.00  0.00    +0.000 HD
ENDROOT
BRANCH   1   8
ATOM      5  C   UNL     1       4.884   3.900  16.209  0.00  0.00    +0.000 C 
ATOM      6  C   UNL     1       4.103   4.409  17.382  0.00  0.00    +0.000 A 
ATOM      7  S   UNL     1       4.109   6.075  17.757  0.00  0.00    +0.000 S 
ATOM      8  C   UNL     1       3.118   5.857  19.121  0.00  0.00    +0.000 A 
ATOM      9  C   UNL     1       2.707   4.538  19.278  0.00  0.00    +0.000 A 
ATOM     10  C   UNL     1       3.348   3.669  18.286  0.00  0.00    +0.000 A 
ATOM     11  C   UNL     1       3.280   2.171  18.203  0.00  0.00    +0.000 C 
BRANCH   9  12
ATOM     12  C   UNL     1       1.825   4.174  20.389  0.00  0.00    +0.000 C 
ATOM     13  N   UNL     1       0.591   3.692  20.074  0.00  0.00    +0.000 N 
ATOM     14  O   UNL     1       2.126   4.352  21.567  0.00  0.00    +0.000 OA
ATOM     15  H   UNL     1       0.191   3.818  19.156  0.00  0.00    +0.000 HD
ATOM     16  H   UNL     1      -0.040   3.531  20.849  0.00  0.00    +0.000 HD
ENDBRANCH   9  12
ENDBRANCH   1   8
BRANCH   2  17
ATOM     17  C   UNL     1       1.601   9.196  20.165  0.00  0.00    +0.000 C 
ATOM     18  C   UNL     1       1.292  10.538  19.491  0.00  0.00    +0.000 C 
ATOM     19  C   UNL     1      -0.184  10.888  19.333  0.00  0.00    +0.000 C 
ATOM     20  C   UNL     1      -0.989  10.626  20.595  0.00  0.00    +0.000 C 
ATOM     21  C   UNL     1      -0.839   9.178  21.035  0.00  0.00    +0.000 C 
ATOM     22  C   UNL     1       0.617   8.764  21.272  0.00  0.00    +0.000 C 
BRANCH  22  23
ATOM     23  C   UNL     1       1.124   9.268  22.618  0.00  0.00    +0.000 C 
ATOM     24  O   UNL     1       0.418   9.654  23.538  0.00  0.00    +0.000 OA
BRANCH  23  25
ATOM     25  O   UNL     1       2.473   9.274  22.702  0.00  0.00    +0.000 OA
ATOM     26  H   UNL     1       2.826   9.787  23.457  0.00  0.00    +0.000 HD
ENDBRANCH  23  25
ENDBRANCH  22  23
ENDBRANCH   2  17
TORSDOF 5
ENDMDL
MODEL 8
REMARK VINA RESULT:      -6.4      1.531      1.886
REMARK  Name = 
REMARK  7 active torsions:
REMARK  status: ('A' for Active; 'I' for Inactive)
REMARK    1  A    between atoms: C_1  and  C_2
REMARK    2  A    between atoms: C_4  and  N_5
REMARK    3  A    between atoms: C_6  and  C_8
REMARK    4  A    between atoms: C_13  and  C_14
REMARK    5  A    between atoms: C_14  and  O_16
REMARK    6  A    between atoms: C_17  and  C_18
REMARK    7  A    between atoms: C_21  and  C_22
REMARK                            x       y       z     vdW  Elec       q    Type
REMARK                         _______ _______ _______ _____ _____    ______ ____
ROOT
ATOM      1  N   UNL     1       5.132   3.415  16.253  0.00  0.00    +0.000 N 
ATOM      2  C   UNL     1       4.347   4.287  16.981  0.00  0.00    +0.000 C 
ATOM      3  O   UNL     1       4.277   5.503  16.788  0.00  0.00    +0.000 OA
ATOM      4  H   UNL     1       5.594   2.688  16.793  0.00  0.00    +0.000 HD
ENDROOT
BRANCH   1   8
ATOM      5  C   UNL     1       6.791   4.061  11.321  0.00  0.00    +0.000 C 
ATOM      6  C   UNL     1       6.650   4.129  12.811  0.00  0.00    +0.000 A 
ATOM      7  S   UNL     1       5.394   3.277  13.593  0.00  0.00    +0.000 S 
ATOM      8  C   UNL     1       5.846   3.852  15.128  0.00  0.00    +0.000 A 
ATOM      9  C   UNL     1       6.993   4.638  15.087  0.00  0.00    +0.000 A 
ATOM     10  C   UNL     1       7.428   4.857  13.705  0.00  0.00    +0.000 A 
ATOM     11  C   UNL     1       8.532   5.757  13.226  0.00  0.00    +0.000 C 
BRANCH   9  12
ATOM     12  C   UNL     1       7.541   5.196  16.326  0.00  0.00    +0.000 C 
ATOM     13  N   UNL     1       7.474   6.547  16.485  0.00  0.00    +0.000 N 
ATOM     14  O   UNL     1       8.110   4.511  17.173  0.00  0.00    +0.000 OA
ATOM     15  H   UNL     1       7.306   7.164  15.705  0.00  0.00    +0.000 HD
ATOM     16  H   UNL     1       7.937   6.926  17.301  0.00  0.00    +0.000 HD
ENDBRANCH   9  12
ENDBRANCH   1   8
BRANCH   2  17
ATOM     17  C   UNL     1       3.597   3.731  18.205  0.00  0.00    +0.000 C 
ATOM     18  C   UNL     1       4.027   4.184  19.605  0.00  0.00    +0.000 C 
ATOM     19  C   UNL     1       3.165   5.258  20.260  0.00  0.00    +0.000 C 
ATOM     20  C   UNL     1       1.677   4.982  20.125  0.00  0.00    +0.000 C 
ATOM     21  C   UNL     1       1.292   4.822  18.662  0.00  0.00    +0.000 C 
ATOM     22  C   UNL     1       2.077   3.717  17.946  0.00  0.00    +0.000 C 
BRANCH  22  23
ATOM     23  C   UNL     1       1.524   2.338  18.284  0.00  0.00    +0.000 C 
ATOM     24  O   UNL     1       0.349   2.084  18.508  0.00  0.00    +0.000 OA
BRANCH  23  25
ATOM     25  O   UNL     1       2.483   1.387  18.342  0.00  0.00    +0.000 OA
ATOM     26  H   UNL     1       2.478   0.765  17.586  0.00  0.00    +0.000 HD
ENDBRANCH  23  25
ENDBRANCH  22  23
ENDBRANCH   2  17
TORSDOF 5
ENDMDL
MODEL 9
REMARK VINA RESULT:      -6.3      4.537      7.319
REMARK  Name = 
REMARK  7 active torsions:
REMARK  status: ('A' for Active; 'I' for Inactive)
REMARK    1  A    between atoms: C_1  and  C_2
REMARK    2  A    between atoms: C_4  and  N_5
REMARK    3  A    between atoms: C_6  and  C_8
REMARK    4  A    between atoms: C_13  and  C_14
REMARK    5  A    between atoms: C_14  and  O_16
REMARK    6  A    between atoms: C_17  and  C_18
REMARK    7  A    between atoms: C_21  and  C_22
REMARK                            x       y       z     vdW  Elec       q    Type
REMARK                         _______ _______ _______ _____ _____    ______ ____
ROOT
ATOM      1  N   UNL     1       2.349   7.547  18.995  0.00  0.00    +0.000 N 
ATOM      2  C   UNL     1       2.275   6.172  19.100  0.00  0.00    +0.000 C 
ATOM      3  O   UNL     1       1.664   5.564  19.984  0.00  0.00    +0.000 OA
ATOM      4  H   UNL     1       3.256   7.915  18.718  0.00  0.00    +0.000 HD
ENDROOT
BRANCH   1   8
ATOM      5  C   UNL     1      -0.003   9.525  23.243  0.00  0.00    +0.000 C 
ATOM      6  C   UNL     1       0.479   9.293  21.843  0.00  0.00    +0.000 A 
ATOM      7  S   UNL     1       1.474   7.950  21.491  0.00  0.00    +0.000 S 
ATOM      8  C   UNL     1       1.616   8.379  19.852  0.00  0.00    +0.000 A 
ATOM      9  C   UNL     1       0.860   9.500  19.526  0.00  0.00    +0.000 A 
ATOM     10  C   UNL     1       0.242  10.080  20.722  0.00  0.00    +0.000 A 
ATOM     11  C   UNL     1      -0.531  11.365  20.820  0.00  0.00    +0.000 C 
BRANCH   9  12
ATOM     12  C   UNL     1       0.844   9.996  18.148  0.00  0.00    +0.000 C 
ATOM     13  N   UNL     1      -0.373  10.195  17.570  0.00  0.00    +0.000 N 
ATOM     14  O   UNL     1       1.866  10.164  17.486  0.00  0.00    +0.000 OA
ATOM     15  H   UNL     1      -1.214   9.786  17.950  0.00  0.00    +0.000 HD
ATOM     16  H   UNL     1      -0.369  10.449  16.590  0.00  0.00    +0.000 HD
ENDBRANCH   9  12
ENDBRANCH   1   8
BRANCH   2  17
ATOM     17  C   UNL     1       3.113   5.327  18.125  0.00  0.00    +0.000 C 
ATOM     18  C   UNL     1       4.202   6.016  17.295  0.00  0.00    +0.000 C 
ATOM     19  C   UNL     1       5.634   5.852  17.794  0.00  0.00    +0.000 C 
ATOM     20  C   UNL     1       5.961   4.420  18.183  0.00  0.00    +0.000 C 
ATOM     21  C   UNL     1       4.980   3.912  19.230  0.00  0.00    +0.000 C 
ATOM     22  C   UNL     1       3.518   3.990  18.779  0.00  0.00    +0.000 C 
BRANCH  22  23
ATOM     23  C   UNL     1       3.168   2.845  17.836  0.00  0.00    +0.000 C 
ATOM     24  O   UNL     1       3.683   1.736  17.851  0.00  0.00    +0.000 OA
BRANCH  23  25
ATOM     25  O   UNL     1       2.220   3.180  16.932  0.00  0.00    +0.000 OA
ATOM     26  H   UNL     1       1.708   3.980  17.166  0.00  0.00    +0.000 HD
ENDBRANCH  23  25
ENDBRANCH  22  23
ENDBRANCH   2  17
TORSDOF 5
ENDMDL
