MODEL 1
REMARK VINA RESULT:      -7.1      0.000      0.000
REMARK  Name = 
REMARK  11 active torsions:
REMARK  status: ('A' for Active; 'I' for Inactive)
REMARK    1  A    between atoms: C_1  and  C_2
REMARK    2  A    between atoms: C_2  and  C_3
REMARK    3  A    between atoms: C_7  and  C_8
REMARK    4  A    between atoms: C_9  and  N_10
REMARK    5  A    between atoms: C_11  and  C_13
REMARK    6  A    between atoms: C_13  and  N_14
REMARK    7  A    between atoms: N_14  and  C_15
REMARK    8  A    between atoms: N_14  and  C_16
REMARK    9  A    between atoms: C_16  and  C_17
REMARK   10  A    between atoms: N_22  and  C_23
REMARK   11  A    between atoms: C_23  and  C_24
REMARK                            x       y       z     vdW  Elec       q    Type
REMARK                         _______ _______ _______ _____ _____    ______ ____
ROOT
ATOM      1  N   UNL     1       2.150   5.114  19.946  0.00  0.00    +0.000 NA
ATOM      2  C   UNL     1       0.995   4.245  20.213  0.00  0.00    +0.000 C 
ENDROOT
BRANCH   1   3
ATOM      3  C   UNL     1       3.390   4.564  20.576  0.00  0.00    +0.000 C 
BRANCH   3   5
ATOM      4  N   UNL     1       4.592   5.104  18.526  0.00  0.00    +0.000 N 
ATOM      5  C   UNL     1       4.454   4.160  19.539  0.00  0.00    +0.000 C 
ATOM      6  O   UNL     1       5.078   3.108  19.634  0.00  0.00    +0.000 OA
ATOM      7  H   UNL     1       3.714   5.592  18.395  0.00  0.00    +0.000 HD
BRANCH   4  14
ATOM      8  C   UNL     1       6.676   5.441  17.210  0.00  0.00    +0.000 A 
ATOM      9  C   UNL     1       7.363   5.233  15.993  0.00  0.00    +0.000 A 
ATOM     10  C   UNL     1       6.778   4.529  14.946  0.00  0.00    +0.000 A 
ATOM     11  C   UNL     1       5.493   4.017  15.094  0.00  0.00    +0.000 A 
ATOM     12  C   UNL     1       4.785   4.200  16.290  0.00  0.00    +0.000 A 
ATOM     13  C   UNL     1       3.411   3.582  16.400  0.00  0.00    +0.000 C 
ATOM     14  C   UNL     1       5.379   4.894  17.365  0.00  0.00    +0.000 A 
BRANCH   8  16
ATOM     15  C   UNL     1       7.691   7.738  17.650  0.00  0.00    +0.000 C 
ATOM     16  C   UNL     1       7.343   6.365  18.210  0.00  0.00    +0.000 C 
ENDBRANCH   8  16
ENDBRANCH   4  14
ENDBRANCH   3   5
ENDBRANCH   1   3
BRANCH   1  17
ATOM     17  C   UNL     1       1.857   6.455  20.536  0.00  0.00    +0.000 C 
BRANCH  17  18
ATOM     18  C   UNL     1       2.044   7.564  19.492  0.00  0.00    +0.000 C 
ATOM     19  O   UNL     1       2.762   7.376  18.508  0.00  0.00    +0.000 OA
ATOM     20  N   UNL     1       1.326   8.749  19.680  0.00  0.00    +0.000 N 
ATOM     21  C   UNL     1       1.475   9.770  18.643  0.00  0.00    +0.000 C 
ATOM     22  C   UNL     1       0.471  10.932  18.757  0.00  0.00    +0.000 C 
ATOM     23  N   UNL     1       0.282  11.496  20.108  0.00  0.00    +0.000 NA
ATOM     24  C   UNL     1      -0.025  10.387  21.033  0.00  0.00    +0.000 C 
ATOM     25  C   UNL     1       0.973   9.216  21.021  0.00  0.00    +0.000 C 
BRANCH  23  26
ATOM     26  C   UNL     1       1.432  12.285  20.581  0.00  0.00    +0.000 C 
BRANCH  26  27
ATOM     27  C   UNL     1       1.723  13.565  19.817  0.00  0.00    +0.000 A 
ATOM     28  C   UNL     1       2.880  13.745  19.044  0.00  0.00    +0.000 A 
ATOM     29  C   UNL     1       3.068  14.910  18.293  0.00  0.00    +0.000 A 
ATOM     30  C   UNL     1       2.088  15.902  18.284  0.00  0.00    +0.000 A 
ATOM     31  C   UNL     1       0.925  15.731  19.026  0.00  0.00    +0.000 A 
ATOM     32  C   UNL     1       0.742  14.571  19.785  0.00  0.00    +0.000 A 
ENDBRANCH  26  27
ENDBRANCH  23  26
ENDBRANCH  17  18
ENDBRANCH   1  17
TORSDOF 8
ENDMDL
MODEL 2
REMARK VINA RESULT:      -6.9      0.819      1.224
REMARK  Name = 
REMARK  11 active torsions:
REMARK  status: ('A' for Active; 'I' for Inactive)
REMARK    1  A    between atoms: C_1  and  C_2
REMARK    2  A    between atoms: C_2  and  C_3
REMARK    3  A    between atoms: C_7  and  C_8
REMARK    4  A    between atoms: C_9  and  N_10
REMARK    5  A    between atoms: C_11  and  C_13
REMARK    6  A    between atoms: C_13  and  N_14
REMARK    7  A    between atoms: N_14  and  C_15
REMARK    8  A    between atoms: N_14  and  C_16
REMARK    9  A    between atoms: C_16  and  C_17
REMARK   10  A    between atoms: N_22  and  C_23
REMARK   11  A    between atoms: C_23  and  C_24
REMARK                            x       y       z     vdW  Elec       q    Type
REMARK                         _______ _______ _______ _____ _____    ______ ____
ROOT
ATOM      1  N   UNL     1       2.042   4.575  20.152  0.00  0.00    +0.000 NA
ATOM      2  C   UNL     1       0.729   3.959  20.397  0.00  0.00    +0.000 C 
ENDROOT
BRANCH   1   3
ATOM      3  C   UNL     1       3.137   3.758  20.762  0.00  0.00    +0.000 C 
BRANCH   3   5
ATOM      4  N   UNL     1       4.476   4.492  18.863  0.00  0.00    +0.000 N 
ATOM      5  C   UNL     1       4.274   3.457  19.770  0.00  0.00    +0.000 C 
ATOM      6  O   UNL     1       4.900   2.402  19.810  0.00  0.00    +0.000 OA
ATOM      7  H   UNL     1       3.605   4.989  18.717  0.00  0.00    +0.000 HD
BRANCH   4  14
ATOM      8  C   UNL     1       6.693   4.828  17.785  0.00  0.00    +0.000 A 
ATOM      9  C   UNL     1       7.467   4.751  16.606  0.00  0.00    +0.000 A 
ATOM     10  C   UNL     1       6.922   4.287  15.414  0.00  0.00    +0.000 A 
ATOM     11  C   UNL     1       5.590   3.887  15.376  0.00  0.00    +0.000 A 
ATOM     12  C   UNL     1       4.795   3.945  16.528  0.00  0.00    +0.000 A 
ATOM     13  C   UNL     1       3.368   3.457  16.427  0.00  0.00    +0.000 C 
ATOM     14  C   UNL     1       5.345   4.395  17.746  0.00  0.00    +0.000 A 
BRANCH   8  16
ATOM     15  C   UNL     1       8.063   6.805  18.629  0.00  0.00    +0.000 C 
ATOM     16  C   UNL     1       7.342   5.509  18.973  0.00  0.00    +0.000 C 
ENDBRANCH   8  16
ENDBRANCH   4  14
ENDBRANCH   3   5
ENDBRANCH   1   3
BRANCH   1  17
ATOM     17  C   UNL     1       2.033   5.929  20.784  0.00  0.00    +0.000 C 
BRANCH  17  18
ATOM     18  C   UNL     1       2.214   7.026  19.726  0.00  0.00    +0.000 C 
ATOM     19  O   UNL     1       3.013   6.871  18.801  0.00  0.00    +0.000 OA
ATOM     20  N   UNL     1       1.398   8.157  19.830  0.00  0.00    +0.000 N 
ATOM     21  C   UNL     1       1.546   9.163  18.779  0.00  0.00    +0.000 C 
ATOM     22  C   UNL     1       0.453  10.248  18.789  0.00  0.00    +0.000 C 
ATOM     23  N   UNL     1       0.126  10.826  20.108  0.00  0.00    +0.000 NA
ATOM     24  C   UNL     1      -0.164   9.718  21.039  0.00  0.00    +0.000 C 
ATOM     25  C   UNL     1       0.915   8.626  21.129  0.00  0.00    +0.000 C 
BRANCH  23  26
ATOM     26  C   UNL     1       1.177  11.709  20.639  0.00  0.00    +0.000 C 
BRANCH  26  27
ATOM     27  C   UNL     1       1.004  13.194  20.365  0.00  0.00    +0.000 A 
ATOM     28  C   UNL     1       0.381  14.068  21.268  0.00  0.00    +0.000 A 
ATOM     29  C   UNL     1       0.316  15.441  21.009  0.00  0.00    +0.000 A 
ATOM     30  C   UNL     1       0.896  15.963  19.854  0.00  0.00    +0.000 A 
ATOM     31  C   UNL     1       1.537  15.115  18.958  0.00  0.00    +0.000 A 
ATOM     32  C   UNL     1       1.593  13.741  19.212  0.00  0.00    +0.000 A 
ENDBRANCH  26  27
ENDBRANCH  23  26
ENDBRANCH  17  18
ENDBRANCH   1  17
TORSDOF 8
ENDMDL
MODEL 3
REMARK VINA RESULT:      -6.6      0.892      1.207
REMARK  Name = 
REMARK  11 active torsions:
REMARK  status: ('A' for Active; 'I' for Inactive)
REMARK    1  A    between atoms: C_1  and  C_2
REMARK    2  A    between atoms: C_2  and  C_3
REMARK    3  A    between atoms: C_7  and  C_8
REMARK    4  A    between atoms: C_9  and  N_10
REMARK    5  A    between atoms: C_11  and  C_13
REMARK    6  A    between atoms: C_13  and  N_14
REMARK    7  A    between atoms: N_14  and  C_15
REMARK    8  A    between atoms: N_14  and  C_16
REMARK    9  A    between atoms: C_16  and  C_17
REMARK   10  A    between atoms: N_22  and  C_23
REMARK   11  A    between atoms: C_23  and  C_24
REMARK                            x       y       z     vdW  Elec       q    Type
REMARK                         _______ _______ _______ _____ _____    ______ ____
ROOT
ATOM      1  N   UNL     1       2.157   5.120  19.962  0.00  0.00    +0.000 NA
ATOM      2  C   UNL     1       0.987   4.272  20.238  0.00  0.00    +0.000 C 
ENDROOT
BRANCH   1   3
ATOM      3  C   UNL     1       3.391   4.543  20.579  0.00  0.00    +0.000 C 
BRANCH   3   5
ATOM      4  N   UNL     1       4.570   5.086  18.517  0.00  0.00    +0.000 N 
ATOM      5  C   UNL     1       4.446   4.143  19.532  0.00  0.00    +0.000 C 
ATOM      6  O   UNL     1       5.076   3.094  19.622  0.00  0.00    +0.000 OA
ATOM      7  H   UNL     1       3.689   5.570  18.394  0.00  0.00    +0.000 HD
BRANCH   4  14
ATOM      8  C   UNL     1       6.625   5.459  17.164  0.00  0.00    +0.000 A 
ATOM      9  C   UNL     1       7.300   5.249  15.941  0.00  0.00    +0.000 A 
ATOM     10  C   UNL     1       6.721   4.511  14.916  0.00  0.00    +0.000 A 
ATOM     11  C   UNL     1       5.453   3.964  15.092  0.00  0.00    +0.000 A 
ATOM     12  C   UNL     1       4.758   4.149  16.294  0.00  0.00    +0.000 A 
ATOM     13  C   UNL     1       3.403   3.493  16.435  0.00  0.00    +0.000 C 
ATOM     14  C   UNL     1       5.346   4.878  17.348  0.00  0.00    +0.000 A 
BRANCH   8  16
ATOM     15  C   UNL     1       7.916   5.743  19.344  0.00  0.00    +0.000 C 
ATOM     16  C   UNL     1       7.279   6.420  18.138  0.00  0.00    +0.000 C 
ENDBRANCH   8  16
ENDBRANCH   4  14
ENDBRANCH   3   5
ENDBRANCH   1   3
BRANCH   1  17
ATOM     17  C   UNL     1       1.895   6.464  20.560  0.00  0.00    +0.000 C 
BRANCH  17  18
ATOM     18  C   UNL     1       2.056   7.570  19.508  0.00  0.00    +0.000 C 
ATOM     19  O   UNL     1       2.803   7.405  18.543  0.00  0.00    +0.000 OA
ATOM     20  N   UNL     1       1.280   8.723  19.667  0.00  0.00    +0.000 N 
ATOM     21  C   UNL     1       1.406   9.739  18.622  0.00  0.00    +0.000 C 
ATOM     22  C   UNL     1       0.347  10.854  18.700  0.00  0.00    +0.000 C 
ATOM     23  N   UNL     1       0.102  11.423  20.040  0.00  0.00    +0.000 NA
ATOM     24  C   UNL     1      -0.175  10.311  20.970  0.00  0.00    +0.000 C 
ATOM     25  C   UNL     1       0.876   9.187  20.994  0.00  0.00    +0.000 C 
BRANCH  23  26
ATOM     26  C   UNL     1       1.203  12.268  20.529  0.00  0.00    +0.000 C 
BRANCH  26  27
ATOM     27  C   UNL     1       0.967  13.769  20.480  0.00  0.00    +0.000 A 
ATOM     28  C   UNL     1       0.344  14.406  19.398  0.00  0.00    +0.000 A 
ATOM     29  C   UNL     1       0.075  15.779  19.432  0.00  0.00    +0.000 A 
ATOM     30  C   UNL     1       0.403  16.529  20.561  0.00  0.00    +0.000 A 
ATOM     31  C   UNL     1       1.001  15.908  21.653  0.00  0.00    +0.000 A 
ATOM     32  C   UNL     1       1.279  14.539  21.614  0.00  0.00    +0.000 A 
ENDBRANCH  26  27
ENDBRANCH  23  26
ENDBRANCH  17  18
ENDBRANCH   1  17
TORSDOF 8
ENDMDL
MODEL 4
REMARK VINA RESULT:      -6.5      3.567      9.984
REMARK  Name = 
REMARK  11 active torsions:
REMARK  status: ('A' for Active; 'I' for Inactive)
REMARK    1  A    between atoms: C_1  and  C_2
REMARK    2  A    between atoms: C_2  and  C_3
REMARK    3  A    between atoms: C_7  and  C_8
REMARK    4  A    between atoms: C_9  and  N_10
REMARK    5  A    between atoms: C_11  and  C_13
REMARK    6  A    between atoms: C_13  and  N_14
REMARK    7  A    between atoms: N_14  and  C_15
REMARK    8  A    between atoms: N_14  and  C_16
REMARK    9  A    between atoms: C_16  and  C_17
REMARK   10  A    between atoms: N_22  and  C_23
REMARK   11  A    between atoms: C_23  and  C_24
REMARK                            x       y       z     vdW  Elec       q    Type
REMARK                         _______ _______ _______ _____ _____    ______ ____
ROOT
ATOM      1  N   UNL     1      -0.107  10.032  19.561  0.00  0.00    +0.000 NA
ATOM      2  C   UNL     1      -0.196  10.084  18.095  0.00  0.00    +0.000 C 
ENDROOT
BRANCH   1   3
ATOM      3  C   UNL     1      -0.548  11.326  20.169  0.00  0.00    +0.000 C 
BRANCH   3   5
ATOM      4  N   UNL     1      -2.925  11.542  19.679  0.00  0.00    +0.000 N 
ATOM      5  C   UNL     1      -1.658  12.016  19.355  0.00  0.00    +0.000 C 
ATOM      6  O   UNL     1      -1.402  12.877  18.520  0.00  0.00    +0.000 OA
ATOM      7  H   UNL     1      -2.857  10.582  19.996  0.00  0.00    +0.000 HD
BRANCH   4  14
ATOM      8  C   UNL     1      -4.413  11.332  17.696  0.00  0.00    +0.000 A 
ATOM      9  C   UNL     1      -5.569  11.783  17.021  0.00  0.00    +0.000 A 
ATOM     10  C   UNL     1      -6.377  12.777  17.562  0.00  0.00    +0.000 A 
ATOM     11  C   UNL     1      -6.048  13.340  18.791  0.00  0.00    +0.000 A 
ATOM     12  C   UNL     1      -4.910  12.912  19.489  0.00  0.00    +0.000 A 
ATOM     13  C   UNL     1      -4.633  13.536  20.837  0.00  0.00    +0.000 C 
ATOM     14  C   UNL     1      -4.097  11.890  18.959  0.00  0.00    +0.000 A 
BRANCH   8  16
ATOM     15  C   UNL     1      -2.924  10.958  15.661  0.00  0.00    +0.000 C 
ATOM     16  C   UNL     1      -3.520  10.372  16.934  0.00  0.00    +0.000 C 
ENDBRANCH   8  16
ENDBRANCH   4  14
ENDBRANCH   3   5
ENDBRANCH   1   3
BRANCH   1  17
ATOM     17  C   UNL     1       1.321   9.785  19.922  0.00  0.00    +0.000 C 
BRANCH  17  18
ATOM     18  C   UNL     1       1.467   8.475  20.709  0.00  0.00    +0.000 C 
ATOM     19  O   UNL     1       1.299   8.461  21.930  0.00  0.00    +0.000 OA
ATOM     20  N   UNL     1       1.733   7.314  19.976  0.00  0.00    +0.000 N 
ATOM     21  C   UNL     1       1.810   6.068  20.740  0.00  0.00    +0.000 C 
ATOM     22  C   UNL     1       1.838   4.799  19.869  0.00  0.00    +0.000 C 
ATOM     23  N   UNL     1       2.749   4.829  18.707  0.00  0.00    +0.000 NA
ATOM     24  C   UNL     1       2.462   6.048  17.926  0.00  0.00    +0.000 C 
ATOM     25  C   UNL     1       2.481   7.366  18.720  0.00  0.00    +0.000 C 
BRANCH  23  26
ATOM     26  C   UNL     1       4.173   4.753  19.076  0.00  0.00    +0.000 C 
BRANCH  26  27
ATOM     27  C   UNL     1       5.160   4.697  17.922  0.00  0.00    +0.000 A 
ATOM     28  C   UNL     1       4.995   3.848  16.818  0.00  0.00    +0.000 A 
ATOM     29  C   UNL     1       5.887   3.890  15.742  0.00  0.00    +0.000 A 
ATOM     30  C   UNL     1       6.943   4.799  15.743  0.00  0.00    +0.000 A 
ATOM     31  C   UNL     1       7.109   5.664  16.819  0.00  0.00    +0.000 A 
ATOM     32  C   UNL     1       6.223   5.616  17.899  0.00  0.00    +0.000 A 
ENDBRANCH  26  27
ENDBRANCH  23  26
ENDBRANCH  17  18
ENDBRANCH   1  17
TORSDOF 8
ENDMDL
MODEL 5
REMARK VINA RESULT:      -6.3      3.134     10.474
REMARK  Name = 
REMARK  11 active torsions:
REMARK  status: ('A' for Active; 'I' for Inactive)
REMARK    1  A    between atoms: C_1  and  C_2
REMARK    2  A    between atoms: C_2  and  C_3
REMARK    3  A    between atoms: C_7  and  C_8
REMARK    4  A    between atoms: C_9  and  N_10
REMARK    5  A    between atoms: C_11  and  C_13
REMARK    6  A    between atoms: C_13  and  N_14
REMARK    7  A    between atoms: N_14  and  C_15
REMARK    8  A    between atoms: N_14  and  C_16
REMARK    9  A    between atoms: C_16  and  C_17
REMARK   10  A    between atoms: N_22  and  C_23
REMARK   11  A    between atoms: C_23  and  C_24
REMARK                            x       y       z     vdW  Elec       q    Type
REMARK                         _______ _______ _______ _____ _____    ______ ____
ROOT
ATOM      1  N   UNL     1      -0.036  10.274  19.729  0.00  0.00    +0.000 NA
ATOM      2  C   UNL     1      -0.609  10.006  18.402  0.00  0.00    +0.000 C 
ENDROOT
BRANCH   1   3
ATOM      3  C   UNL     1      -0.000  11.743  20.009  0.00  0.00    +0.000 C 
BRANCH   3   5
ATOM      4  N   UNL     1      -1.200  13.222  21.529  0.00  0.00    +0.000 N 
ATOM      5  C   UNL     1      -0.409  12.081  21.455  0.00  0.00    +0.000 C 
ATOM      6  O   UNL     1      -0.044  11.394  22.403  0.00  0.00    +0.000 OA
ATOM      7  H   UNL     1      -0.976  13.841  20.758  0.00  0.00    +0.000 HD
BRANCH   4  14
ATOM      8  C   UNL     1      -2.717  13.461  23.487  0.00  0.00    +0.000 A 
ATOM      9  C   UNL     1      -3.041  14.174  24.662  0.00  0.00    +0.000 A 
ATOM     10  C   UNL     1      -2.270  15.250  25.088  0.00  0.00    +0.000 A 
ATOM     11  C   UNL     1      -1.157  15.635  24.347  0.00  0.00    +0.000 A 
ATOM     12  C   UNL     1      -0.804  14.946  23.179  0.00  0.00    +0.000 A 
ATOM     13  C   UNL     1       0.440  15.390  22.445  0.00  0.00    +0.000 C 
ATOM     14  C   UNL     1      -1.568  13.840  22.751  0.00  0.00    +0.000 A 
BRANCH   8  16
ATOM     15  C   UNL     1      -5.025  13.008  22.503  0.00  0.00    +0.000 C 
ATOM     16  C   UNL     1      -3.723  12.422  23.031  0.00  0.00    +0.000 C 
ENDBRANCH   8  16
ENDBRANCH   4  14
ENDBRANCH   3   5
ENDBRANCH   1   3
BRANCH   1  17
ATOM     17  C   UNL     1       1.361   9.742  19.737  0.00  0.00    +0.000 C 
BRANCH  17  18
ATOM     18  C   UNL     1       1.459   8.481  20.607  0.00  0.00    +0.000 C 
ATOM     19  O   UNL     1       1.239   8.543  21.818  0.00  0.00    +0.000 OA
ATOM     20  N   UNL     1       1.745   7.276  19.958  0.00  0.00    +0.000 N 
ATOM     21  C   UNL     1       1.778   6.078  20.799  0.00  0.00    +0.000 C 
ATOM     22  C   UNL     1       1.830   4.758  20.008  0.00  0.00    +0.000 C 
ATOM     23  N   UNL     1       2.791   4.711  18.887  0.00  0.00    +0.000 NA
ATOM     24  C   UNL     1       2.549   5.883  18.022  0.00  0.00    +0.000 C 
ATOM     25  C   UNL     1       2.547   7.246  18.735  0.00  0.00    +0.000 C 
BRANCH  23  26
ATOM     26  C   UNL     1       4.196   4.647  19.321  0.00  0.00    +0.000 C 
BRANCH  26  27
ATOM     27  C   UNL     1       5.240   4.725  18.220  0.00  0.00    +0.000 A 
ATOM     28  C   UNL     1       6.482   5.354  18.390  0.00  0.00    +0.000 A 
ATOM     29  C   UNL     1       7.443   5.330  17.375  0.00  0.00    +0.000 A 
ATOM     30  C   UNL     1       7.186   4.656  16.182  0.00  0.00    +0.000 A 
ATOM     31  C   UNL     1       5.968   4.008  16.004  0.00  0.00    +0.000 A 
ATOM     32  C   UNL     1       5.004   4.040  17.016  0.00  0.00    +0.000 A 
ENDBRANCH  26  27
ENDBRANCH  23  26
ENDBRANCH  17  18
ENDBRANCH   1  17
TORSDOF 8
ENDMDL
MODEL 6
REMARK VINA RESULT:      -6.2      3.290      9.852
REMARK  Name = 
REMARK  11 active torsions:
REMARK  status: ('A' for Active; 'I' for Inactive)
REMARK    1  A    between atoms: C_1  and  C_2
REMARK    2  A    between atoms: C_2  and  C_3
REMARK    3  A    between atoms: C_7  and  C_8
REMARK    4  A    between atoms: C_9  and  N_10
REMARK    5  A    between atoms: C_11  and  C_13
REMARK    6  A    between atoms: C_13  and  N_14
REMARK    7  A    between atoms: N_14  and  C_15
REMARK    8  A    between atoms: N_14  and  C_16
REMARK    9  A    between atoms: C_16  and  C_17
REMARK   10  A    between atoms: N_22  and  C_23
REMARK   11  A    between atoms: C_23  and  C_24
REMARK                            x       y       z     vdW  Elec       q    Type
REMARK                         _______ _______ _______ _____ _____    ______ ____
ROOT
ATOM      1  N   UNL     1       0.421  10.050  19.304  0.00  0.00    +0.000 NA
ATOM      2  C   UNL     1       0.297   9.769  17.867  0.00  0.00    +0.000 C 
ENDROOT
BRANCH   1   3
ATOM      3  C   UNL     1       0.325  11.519  19.571  0.00  0.00    +0.000 C 
BRANCH   3   5
ATOM      4  N   UNL     1      -2.110  11.478  19.509  0.00  0.00    +0.000 N 
ATOM      5  C   UNL     1      -0.980  12.136  19.037  0.00  0.00    +0.000 C 
ATOM      6  O   UNL     1      -0.971  13.097  18.274  0.00  0.00    +0.000 OA
ATOM      7  H   UNL     1      -1.883  10.508  19.699  0.00  0.00    +0.000 HD
BRANCH   4  14
ATOM      8  C   UNL     1      -4.319  12.605  19.709  0.00  0.00    +0.000 A 
ATOM      9  C   UNL     1      -5.628  12.759  19.201  0.00  0.00    +0.000 A 
ATOM     10  C   UNL     1      -6.051  12.059  18.077  0.00  0.00    +0.000 A 
ATOM     11  C   UNL     1      -5.174  11.191  17.435  0.00  0.00    +0.000 A 
ATOM     12  C   UNL     1      -3.867  11.019  17.909  0.00  0.00    +0.000 A 
ATOM     13  C   UNL     1      -2.952  10.093  17.141  0.00  0.00    +0.000 C 
ATOM     14  C   UNL     1      -3.422  11.740  19.036  0.00  0.00    +0.000 A 
BRANCH   8  16
ATOM     15  C   UNL     1      -3.331  14.630  20.901  0.00  0.00    +0.000 C 
ATOM     16  C   UNL     1      -4.027  13.283  21.034  0.00  0.00    +0.000 C 
ENDBRANCH   8  16
ENDBRANCH   4  14
ENDBRANCH   3   5
ENDBRANCH   1   3
BRANCH   1  17
ATOM     17  C   UNL     1       1.760   9.559  19.749  0.00  0.00    +0.000 C 
BRANCH  17  18
ATOM     18  C   UNL     1       1.624   8.260  20.556  0.00  0.00    +0.000 C 
ATOM     19  O   UNL     1       1.326   8.299  21.751  0.00  0.00    +0.000 OA
ATOM     20  N   UNL     1       1.793   7.056  19.864  0.00  0.00    +0.000 N 
ATOM     21  C   UNL     1       1.602   5.830  20.640  0.00  0.00    +0.000 C 
ATOM     22  C   UNL     1       1.535   4.551  19.785  0.00  0.00    +0.000 C 
ATOM     23  N   UNL     1       2.560   4.422  18.730  0.00  0.00    +0.000 NA
ATOM     24  C   UNL     1       2.542   5.652  17.914  0.00  0.00    +0.000 C 
ATOM     25  C   UNL     1       2.670   6.970  18.697  0.00  0.00    +0.000 C 
BRANCH  23  26
ATOM     26  C   UNL     1       3.908   4.146  19.253  0.00  0.00    +0.000 C 
BRANCH  26  27
ATOM     27  C   UNL     1       5.046   4.238  18.250  0.00  0.00    +0.000 A 
ATOM     28  C   UNL     1       4.933   3.788  16.926  0.00  0.00    +0.000 A 
ATOM     29  C   UNL     1       5.980   3.967  16.016  0.00  0.00    +0.000 A 
ATOM     30  C   UNL     1       7.146   4.621  16.410  0.00  0.00    +0.000 A 
ATOM     31  C   UNL     1       7.267   5.094  17.713  0.00  0.00    +0.000 A 
ATOM     32  C   UNL     1       6.224   4.906  18.625  0.00  0.00    +0.000 A 
ENDBRANCH  26  27
ENDBRANCH  23  26
ENDBRANCH  17  18
ENDBRANCH   1  17
TORSDOF 8
ENDMDL
MODEL 7
REMARK VINA RESULT:      -6.2      3.959      5.888
REMARK  Name = 
REMARK  11 active torsions:
REMARK  status: ('A' for Active; 'I' for Inactive)
REMARK    1  A    between atoms: C_1  and  C_2
REMARK    2  A    between atoms: C_2  and  C_3
REMARK    3  A    between atoms: C_7  and  C_8
REMARK    4  A    between atoms: C_9  and  N_10
REMARK    5  A    between atoms: C_11  and  C_13
REMARK    6  A    between atoms: C_13  and  N_14
REMARK    7  A    between atoms: N_14  and  C_15
REMARK    8  A    between atoms: N_14  and  C_16
REMARK    9  A    between atoms: C_16  and  C_17
REMARK   10  A    between atoms: N_22  and  C_23
REMARK   11  A    between atoms: C_23  and  C_24
REMARK                            x       y       z     vdW  Elec       q    Type
REMARK                         _______ _______ _______ _____ _____    ______ ____
ROOT
ATOM      1  N   UNL     1       1.394   9.978  18.785  0.00  0.00    +0.000 NA
ATOM      2  C   UNL     1       1.801  11.259  18.189  0.00  0.00    +0.000 C 
ENDROOT
BRANCH   1   3
ATOM      3  C   UNL     1       1.647   8.846  17.841  0.00  0.00    +0.000 C 
BRANCH   3   5
ATOM      4  N   UNL     1       3.001   6.841  17.553  0.00  0.00    +0.000 N 
ATOM      5  C   UNL     1       2.432   7.693  18.493  0.00  0.00    +0.000 C 
ATOM      6  O   UNL     1       2.511   7.578  19.712  0.00  0.00    +0.000 OA
ATOM      7  H   UNL     1       2.442   6.845  16.709  0.00  0.00    +0.000 HD
BRANCH   4  14
ATOM      8  C   UNL     1       2.908   4.484  18.347  0.00  0.00    +0.000 A 
ATOM      9  C   UNL     1       3.622   3.324  18.720  0.00  0.00    +0.000 A 
ATOM     10  C   UNL     1       5.011   3.286  18.671  0.00  0.00    +0.000 A 
ATOM     11  C   UNL     1       5.716   4.407  18.247  0.00  0.00    +0.000 A 
ATOM     12  C   UNL     1       5.039   5.573  17.865  0.00  0.00    +0.000 A 
ATOM     13  C   UNL     1       5.864   6.741  17.374  0.00  0.00    +0.000 C 
ATOM     14  C   UNL     1       3.630   5.614  17.890  0.00  0.00    +0.000 A 
BRANCH   8  16
ATOM     15  C   UNL     1       1.000   3.623  19.802  0.00  0.00    +0.000 C 
ATOM     16  C   UNL     1       1.414   4.467  18.604  0.00  0.00    +0.000 C 
ENDBRANCH   8  16
ENDBRANCH   4  14
ENDBRANCH   3   5
ENDBRANCH   1   3
BRANCH   1  17
ATOM     17  C   UNL     1      -0.070  10.055  19.074  0.00  0.00    +0.000 C 
BRANCH  17  18
ATOM     18  C   UNL     1      -0.326  10.100  20.587  0.00  0.00    +0.000 C 
ATOM     19  O   UNL     1       0.062   9.180  21.310  0.00  0.00    +0.000 OA
ATOM     20  N   UNL     1      -0.952  11.241  21.097  0.00  0.00    +0.000 N 
ATOM     21  C   UNL     1      -1.134  11.288  22.548  0.00  0.00    +0.000 C 
ATOM     22  C   UNL     1      -1.579  12.663  23.080  0.00  0.00    +0.000 C 
ATOM     23  N   UNL     1      -2.666  13.327  22.333  0.00  0.00    +0.000 NA
ATOM     24  C   UNL     1      -2.292  13.364  20.906  0.00  0.00    +0.000 C 
ATOM     25  C   UNL     1      -1.896  12.013  20.287  0.00  0.00    +0.000 C 
BRANCH  23  26
ATOM     26  C   UNL     1      -3.982  12.692  22.525  0.00  0.00    +0.000 C 
BRANCH  26  27
ATOM     27  C   UNL     1      -5.102  13.605  22.994  0.00  0.00    +0.000 A 
ATOM     28  C   UNL     1      -4.869  14.864  23.568  0.00  0.00    +0.000 A 
ATOM     29  C   UNL     1      -5.934  15.703  23.912  0.00  0.00    +0.000 A 
ATOM     30  C   UNL     1      -7.247  15.306  23.663  0.00  0.00    +0.000 A 
ATOM     31  C   UNL     1      -7.496  14.072  23.073  0.00  0.00    +0.000 A 
ATOM     32  C   UNL     1      -6.432  13.228  22.739  0.00  0.00    +0.000 A 
ENDBRANCH  26  27
ENDBRANCH  23  26
ENDBRANCH  17  18
ENDBRANCH   1  17
TORSDOF 8
ENDMDL
MODEL 8
REMARK VINA RESULT:      -6.2      2.099      4.130
REMARK  Name = 
REMARK  11 active torsions:
REMARK  status: ('A' for Active; 'I' for Inactive)
REMARK    1  A    between atoms: C_1  and  C_2
REMARK    2  A    between atoms: C_2  and  C_3
REMARK    3  A    between atoms: C_7  and  C_8
REMARK    4  A    between atoms: C_9  and  N_10
REMARK    5  A    between atoms: C_11  and  C_13
REMARK    6  A    between atoms: C_13  and  N_14
REMARK    7  A    between atoms: N_14  and  C_15
REMARK    8  A    between atoms: N_14  and  C_16
REMARK    9  A    between atoms: C_16  and  C_17
REMARK   10  A    between atoms: N_22  and  C_23
REMARK   11  A    between atoms: C_23  and  C_24
REMARK                            x       y       z     vdW  Elec       q    Type
REMARK                         _______ _______ _______ _____ _____    ______ ____
ROOT
ATOM      1  N   UNL     1       0.597   8.849  20.842  0.00  0.00    +0.000 NA
ATOM      2  C   UNL     1      -0.518   8.578  21.761  0.00  0.00    +0.000 C 
ENDROOT
BRANCH   1   3
ATOM      3  C   UNL     1       1.767   7.968  21.149  0.00  0.00    +0.000 C 
BRANCH   3   5
ATOM      4  N   UNL     1       2.431   5.711  20.516  0.00  0.00    +0.000 N 
ATOM      5  C   UNL     1       2.059   6.957  20.025  0.00  0.00    +0.000 C 
ATOM      6  O   UNL     1       1.966   7.267  18.841  0.00  0.00    +0.000 OA
ATOM      7  H   UNL     1       2.880   5.822  21.418  0.00  0.00    +0.000 HD
BRANCH   4  14
ATOM      8  C   UNL     1       4.212   4.665  19.128  0.00  0.00    +0.000 A 
ATOM      9  C   UNL     1       4.586   3.606  18.272  0.00  0.00    +0.000 A 
ATOM     10  C   UNL     1       3.697   2.583  17.959  0.00  0.00    +0.000 A 
ATOM     11  C   UNL     1       2.415   2.597  18.499  0.00  0.00    +0.000 A 
ATOM     12  C   UNL     1       2.012   3.630  19.356  0.00  0.00    +0.000 A 
ATOM     13  C   UNL     1       0.620   3.561  19.940  0.00  0.00    +0.000 C 
ATOM     14  C   UNL     1       2.914   4.659  19.696  0.00  0.00    +0.000 A 
BRANCH   8  16
ATOM     15  C   UNL     1       6.602   5.474  18.767  0.00  0.00    +0.000 C 
ATOM     16  C   UNL     1       5.200   5.807  19.258  0.00  0.00    +0.000 C 
ENDBRANCH   8  16
ENDBRANCH   4  14
ENDBRANCH   3   5
ENDBRANCH   1   3
BRANCH   1  17
ATOM     17  C   UNL     1       1.000  10.276  21.025  0.00  0.00    +0.000 C 
BRANCH  17  18
ATOM     18  C   UNL     1       0.428  11.152  19.901  0.00  0.00    +0.000 C 
ATOM     19  O   UNL     1      -0.426  10.702  19.136  0.00  0.00    +0.000 OA
ATOM     20  N   UNL     1       0.873  12.476  19.832  0.00  0.00    +0.000 N 
ATOM     21  C   UNL     1       0.272  13.309  18.790  0.00  0.00    +0.000 C 
ATOM     22  C   UNL     1       0.590  14.809  18.924  0.00  0.00    +0.000 C 
ATOM     23  N   UNL     1       2.000  15.150  19.204  0.00  0.00    +0.000 NA
ATOM     24  C   UNL     1       2.441  14.369  20.375  0.00  0.00    +0.000 C 
ATOM     25  C   UNL     1       2.212  12.850  20.286  0.00  0.00    +0.000 C 
BRANCH  23  26
ATOM     26  C   UNL     1       2.894  14.940  18.053  0.00  0.00    +0.000 C 
BRANCH  26  27
ATOM     27  C   UNL     1       4.312  15.463  18.204  0.00  0.00    +0.000 A 
ATOM     28  C   UNL     1       4.608  16.707  18.781  0.00  0.00    +0.000 A 
ATOM     29  C   UNL     1       5.933  17.112  18.972  0.00  0.00    +0.000 A 
ATOM     30  C   UNL     1       6.982  16.268  18.612  0.00  0.00    +0.000 A 
ATOM     31  C   UNL     1       6.708  15.022  18.059  0.00  0.00    +0.000 A 
ATOM     32  C   UNL     1       5.383  14.621  17.858  0.00  0.00    +0.000 A 
ENDBRANCH  26  27
ENDBRANCH  23  26
ENDBRANCH  17  18
ENDBRANCH   1  17
TORSDOF 8
ENDMDL
MODEL 9
REMARK VINA RESULT:      -6.2      3.434     10.448
REMARK  Name = 
REMARK  11 active torsions:
REMARK  status: ('A' for Active; 'I' for Inactive)
REMARK    1  A    between atoms: C_1  and  C_2
REMARK    2  A    between atoms: C_2  and  C_3
REMARK    3  A    between atoms: C_7  and  C_8
REMARK    4  A    between atoms: C_9  and  N_10
REMARK    5  A    between atoms: C_11  and  C_13
REMARK    6  A    between atoms: C_13  and  N_14
REMARK    7  A    between atoms: N_14  and  C_15
REMARK    8  A    between atoms: N_14  and  C_16
REMARK    9  A    between atoms: C_16  and  C_17
REMARK   10  A    between atoms: N_22  and  C_23
REMARK   11  A    between atoms: C_23  and  C_24
REMARK                            x       y       z     vdW  Elec       q    Type
REMARK                         _______ _______ _______ _____ _____    ______ ____
ROOT
ATOM      1  N   UNL     1      -0.205  10.125  20.318  0.00  0.00    +0.000 NA
ATOM      2  C   UNL     1      -0.937  10.403  19.073  0.00  0.00    +0.000 C 
ENDROOT
BRANCH   1   3
ATOM      3  C   UNL     1       0.009  11.380  21.103  0.00  0.00    +0.000 C 
BRANCH   3   5
ATOM      4  N   UNL     1      -1.813  12.945  21.515  0.00  0.00    +0.000 N 
ATOM      5  C   UNL     1      -1.217  11.766  21.950  0.00  0.00    +0.000 C 
ATOM      6  O   UNL     1      -1.584  11.081  22.899  0.00  0.00    +0.000 OA
ATOM      7  H   UNL     1      -1.115  13.537  21.080  0.00  0.00    +0.000 HD
BRANCH   4  14
ATOM      8  C   UNL     1      -2.609  14.397  23.372  0.00  0.00    +0.000 A 
ATOM      9  C   UNL     1      -3.709  14.965  24.051  0.00  0.00    +0.000 A 
ATOM     10  C   UNL     1      -5.014  14.737  23.628  0.00  0.00    +0.000 A 
ATOM     11  C   UNL     1      -5.247  13.937  22.515  0.00  0.00    +0.000 A 
ATOM     12  C   UNL     1      -4.178  13.361  21.814  0.00  0.00    +0.000 A 
ATOM     13  C   UNL     1      -4.498  12.536  20.589  0.00  0.00    +0.000 C 
ATOM     14  C   UNL     1      -2.850  13.604  22.223  0.00  0.00    +0.000 A 
BRANCH   8  16
ATOM     15  C   UNL     1      -0.427  15.714  23.442  0.00  0.00    +0.000 C 
ATOM     16  C   UNL     1      -1.251  14.573  24.023  0.00  0.00    +0.000 C 
ENDBRANCH   8  16
ENDBRANCH   4  14
ENDBRANCH   3   5
ENDBRANCH   1   3
BRANCH   1  17
ATOM     17  C   UNL     1       1.123   9.550  19.946  0.00  0.00    +0.000 C 
BRANCH  17  18
ATOM     18  C   UNL     1       1.406   8.270  20.746  0.00  0.00    +0.000 C 
ATOM     19  O   UNL     1       1.288   8.266  21.973  0.00  0.00    +0.000 OA
ATOM     20  N   UNL     1       1.738   7.122  20.021  0.00  0.00    +0.000 N 
ATOM     21  C   UNL     1       1.947   5.901  20.799  0.00  0.00    +0.000 C 
ATOM     22  C   UNL     1       2.045   4.622  19.947  0.00  0.00    +0.000 C 
ATOM     23  N   UNL     1       2.904   4.705  18.749  0.00  0.00    +0.000 NA
ATOM     24  C   UNL     1       2.487   5.883  17.962  0.00  0.00    +0.000 C 
ATOM     25  C   UNL     1       2.429   7.211  18.734  0.00  0.00    +0.000 C 
BRANCH  23  26
ATOM     26  C   UNL     1       4.342   4.752  19.060  0.00  0.00    +0.000 C 
BRANCH  26  27
ATOM     27  C   UNL     1       5.283   4.810  17.868  0.00  0.00    +0.000 A 
ATOM     28  C   UNL     1       5.158   3.964  16.757  0.00  0.00    +0.000 A 
ATOM     29  C   UNL     1       5.997   4.108  15.648  0.00  0.00    +0.000 A 
ATOM     30  C   UNL     1       6.958   5.118  15.623  0.00  0.00    +0.000 A 
ATOM     31  C   UNL     1       7.081   5.981  16.707  0.00  0.00    +0.000 A 
ATOM     32  C   UNL     1       6.249   5.830  17.820  0.00  0.00    +0.000 A 
ENDBRANCH  26  27
ENDBRANCH  23  26
ENDBRANCH  17  18
ENDBRANCH   1  17
TORSDOF 8
ENDMDL
