MODEL 1
REMARK VINA RESULT:      -7.8      0.000      0.000
REMARK  Name = 
REMARK  11 active torsions:
REMARK  status: ('A' for Active; 'I' for Inactive)
REMARK    1  A    between atoms: C_1  and  C_2
REMARK    2  A    between atoms: C_2  and  O_3
REMARK    3  A    between atoms: O_3  and  C_4
REMARK    4  A    between atoms: C_6  and  C_7
REMARK    5  A    between atoms: N_9  and  C_10
REMARK    6  A    between atoms: C_10  and  C_11
REMARK    7  A    between atoms: C_21  and  C_22
REMARK    8  A    between atoms: C_28  and  C_29
REMARK    9  A    between atoms: C_29  and  C_30
REMARK   10  A    between atoms: C_30  and  C_31
REMARK   11  A    between atoms: C_31  and  O_32
REMARK                            x       y       z     vdW  Elec       q    Type
REMARK                         _______ _______ _______ _____ _____    ______ ____
ROOT
ATOM      1  C   UNL     1       3.756   5.718  19.781  0.00  0.00    +0.000 C 
ATOM      2  O   UNL     1       2.843   6.822  19.803  0.00  0.00    +0.000 OA
ATOM      3  C   UNL     1       2.521   7.312  18.549  0.00  0.00    +0.000 C 
ATOM      4  C   UNL     1       2.662   6.602  17.415  0.00  0.00    +0.000 C 
ATOM      5  C   UNL     1       3.119   5.165  17.396  0.00  0.00    +0.000 C 
ATOM      6  C   UNL     1       3.246   4.599  18.835  0.00  0.00    +0.000 C 
ENDROOT
BRANCH   5   7
ATOM      7  C   UNL     1       4.337   4.862  16.526  0.00  0.00    +0.000 A 
ATOM      8  C   UNL     1       4.827   3.564  16.332  0.00  0.00    +0.000 A 
ATOM      9  C   UNL     1       5.981   3.338  15.581  0.00  0.00    +0.000 A 
ATOM     10  C   UNL     1       6.656   4.406  14.993  0.00  0.00    +0.000 A 
ATOM     11  C   UNL     1       6.170   5.702  15.146  0.00  0.00    +0.000 A 
ATOM     12  C   UNL     1       5.018   5.927  15.906  0.00  0.00    +0.000 A 
ENDBRANCH   5   7
BRANCH   3  13
ATOM     13  C   UNL     1       1.970   8.707  18.481  0.00  0.00    +0.000 C 
ATOM     14  O   UNL     1       2.250   9.498  17.590  0.00  0.00    +0.000 OA
ATOM     15  N   UNL     1       1.125   9.003  19.523  0.00  0.00    +0.000 N 
ATOM     16  H   UNL     1       1.015   8.335  20.279  0.00  0.00    +0.000 HD
BRANCH  15  17
ATOM     17  C   UNL     1       0.622  10.337  19.711  0.00  0.00    +0.000 C 
BRANCH  17  18
ATOM     18  C   UNL     1      -0.636  10.529  18.934  0.00  0.00    +0.000 A 
ATOM     19  N   UNL     1      -1.751  11.122  19.328  0.00  0.00    +0.000 NA
ATOM     20  C   UNL     1      -2.591  11.092  18.237  0.00  0.00    +0.000 A 
ATOM     21  C   UNL     1      -3.892  11.594  18.081  0.00  0.00    +0.000 A 
ATOM     22  C   UNL     1      -4.539  11.427  16.847  0.00  0.00    +0.000 A 
ATOM     23  C   UNL     1      -3.903  10.774  15.789  0.00  0.00    +0.000 A 
ATOM     24  C   UNL     1      -2.604  10.271  15.922  0.00  0.00    +0.000 A 
ATOM     25  C   UNL     1      -1.984  10.453  17.160  0.00  0.00    +0.000 A 
ATOM     26  N   UNL     1      -0.741  10.111  17.632  0.00  0.00    +0.000 N 
ATOM     27  H   UNL     1      -0.025   9.636  17.102  0.00  0.00    +0.000 HD
ENDBRANCH  17  18
ENDBRANCH  15  17
ENDBRANCH   3  13
BRANCH   1  28
ATOM     28  O   UNL     1       5.089   6.146  19.465  0.00  0.00    +0.000 OA
BRANCH  28  30
ATOM     29  C   UNL     1       7.321   5.454  18.834  0.00  0.00    +0.000 C 
ATOM     30  C   UNL     1       6.009   5.048  19.479  0.00  0.00    +0.000 C 
ENDBRANCH  28  30
ENDBRANCH   1  28
BRANCH   6  31
ATOM     31  C   UNL     1       1.872   4.075  19.360  0.00  0.00    +0.000 C 
BRANCH  31  32
ATOM     32  C   UNL     1       1.908   2.663  19.954  0.00  0.00    +0.000 C 
BRANCH  32  33
ATOM     33  C   UNL     1       1.419   2.643  21.399  0.00  0.00    +0.000 C 
BRANCH  33  34
ATOM     34  O   UNL     1       2.396   3.249  22.237  0.00  0.00    +0.000 OA
ATOM     35  H   UNL     1       2.784   3.993  21.746  0.00  0.00    +0.000 HD
ENDBRANCH  33  34
ENDBRANCH  32  33
ENDBRANCH  31  32
ENDBRANCH   6  31
TORSDOF 10
ENDMDL
MODEL 2
REMARK VINA RESULT:      -7.6      0.979      1.008
REMARK  Name = 
REMARK  11 active torsions:
REMARK  status: ('A' for Active; 'I' for Inactive)
REMARK    1  A    between atoms: C_1  and  C_2
REMARK    2  A    between atoms: C_2  and  O_3
REMARK    3  A    between atoms: O_3  and  C_4
REMARK    4  A    between atoms: C_6  and  C_7
REMARK    5  A    between atoms: N_9  and  C_10
REMARK    6  A    between atoms: C_10  and  C_11
REMARK    7  A    between atoms: C_21  and  C_22
REMARK    8  A    between atoms: C_28  and  C_29
REMARK    9  A    between atoms: C_29  and  C_30
REMARK   10  A    between atoms: C_30  and  C_31
REMARK   11  A    between atoms: C_31  and  O_32
REMARK                            x       y       z     vdW  Elec       q    Type
REMARK                         _______ _______ _______ _____ _____    ______ ____
ROOT
ATOM      1  C   UNL     1       3.448   4.981  20.067  0.00  0.00    +0.000 C 
ATOM      2  O   UNL     1       2.576   6.022  20.522  0.00  0.00    +0.000 OA
ATOM      3  C   UNL     1       2.242   6.945  19.545  0.00  0.00    +0.000 C 
ATOM      4  C   UNL     1       2.332   6.694  18.226  0.00  0.00    +0.000 C 
ATOM      5  C   UNL     1       2.736   5.354  17.669  0.00  0.00    +0.000 C 
ATOM      6  C   UNL     1       2.877   4.298  18.796  0.00  0.00    +0.000 C 
ENDROOT
BRANCH   5   7
ATOM      7  C   UNL     1       3.922   5.359  16.706  0.00  0.00    +0.000 A 
ATOM      8  C   UNL     1       4.391   4.202  16.073  0.00  0.00    +0.000 A 
ATOM      9  C   UNL     1       5.518   4.241  15.250  0.00  0.00    +0.000 A 
ATOM     10  C   UNL     1       6.186   5.445  15.031  0.00  0.00    +0.000 A 
ATOM     11  C   UNL     1       5.719   6.614  15.625  0.00  0.00    +0.000 A 
ATOM     12  C   UNL     1       4.595   6.571  16.455  0.00  0.00    +0.000 A 
ENDBRANCH   5   7
BRANCH   3  13
ATOM     13  C   UNL     1       1.739   8.280  20.009  0.00  0.00    +0.000 C 
ATOM     14  O   UNL     1       1.377   8.499  21.158  0.00  0.00    +0.000 OA
ATOM     15  N   UNL     1       1.722   9.227  19.013  0.00  0.00    +0.000 N 
ATOM     16  H   UNL     1       1.943   8.951  18.062  0.00  0.00    +0.000 HD
BRANCH  15  17
ATOM     17  C   UNL     1       1.130  10.518  19.231  0.00  0.00    +0.000 C 
BRANCH  17  18
ATOM     18  C   UNL     1      -0.231  10.572  18.625  0.00  0.00    +0.000 A 
ATOM     19  N   UNL     1      -1.309  11.172  19.101  0.00  0.00    +0.000 NA
ATOM     20  C   UNL     1      -2.290  10.979  18.153  0.00  0.00    +0.000 A 
ATOM     21  C   UNL     1      -3.623  11.416  18.127  0.00  0.00    +0.000 A 
ATOM     22  C   UNL     1      -4.426  11.075  17.028  0.00  0.00    +0.000 A 
ATOM     23  C   UNL     1      -3.910  10.316  15.975  0.00  0.00    +0.000 A 
ATOM     24  C   UNL     1      -2.582   9.876  15.979  0.00  0.00    +0.000 A 
ATOM     25  C   UNL     1      -1.807  10.231  17.084  0.00  0.00    +0.000 A 
ATOM     26  N   UNL     1      -0.495   9.991  17.411  0.00  0.00    +0.000 N 
ATOM     27  H   UNL     1       0.164   9.477  16.844  0.00  0.00    +0.000 HD
ENDBRANCH  17  18
ENDBRANCH  15  17
ENDBRANCH   3  13
BRANCH   1  28
ATOM     28  O   UNL     1       4.788   5.463  19.883  0.00  0.00    +0.000 OA
BRANCH  28  30
ATOM     29  C   UNL     1       6.922   5.029  18.825  0.00  0.00    +0.000 C 
ATOM     30  C   UNL     1       5.656   4.427  19.405  0.00  0.00    +0.000 C 
ENDBRANCH  28  30
ENDBRANCH   1  28
BRANCH   6  31
ATOM     31  C   UNL     1       1.498   3.652  19.142  0.00  0.00    +0.000 C 
BRANCH  31  32
ATOM     32  C   UNL     1       1.580   2.378  19.989  0.00  0.00    +0.000 C 
BRANCH  32  33
ATOM     33  C   UNL     1       1.348   2.666  21.469  0.00  0.00    +0.000 C 
BRANCH  33  34
ATOM     34  O   UNL     1       2.585   2.587  22.166  0.00  0.00    +0.000 OA
ATOM     35  H   UNL     1       2.467   1.968  22.907  0.00  0.00    +0.000 HD
ENDBRANCH  33  34
ENDBRANCH  32  33
ENDBRANCH  31  32
ENDBRANCH   6  31
TORSDOF 10
ENDMDL
MODEL 3
REMARK VINA RESULT:      -7.5      1.281      1.683
REMARK  Name = 
REMARK  11 active torsions:
REMARK  status: ('A' for Active; 'I' for Inactive)
REMARK    1  A    between atoms: C_1  and  C_2
REMARK    2  A    between atoms: C_2  and  O_3
REMARK    3  A    between atoms: O_3  and  C_4
REMARK    4  A    between atoms: C_6  and  C_7
REMARK    5  A    between atoms: N_9  and  C_10
REMARK    6  A    between atoms: C_10  and  C_11
REMARK    7  A    between atoms: C_21  and  C_22
REMARK    8  A    between atoms: C_28  and  C_29
REMARK    9  A    between atoms: C_29  and  C_30
REMARK   10  A    between atoms: C_30  and  C_31
REMARK   11  A    between atoms: C_31  and  O_32
REMARK                            x       y       z     vdW  Elec       q    Type
REMARK                         _______ _______ _______ _____ _____    ______ ____
ROOT
ATOM      1  C   UNL     1       3.162   4.985  20.160  0.00  0.00    +0.000 C 
ATOM      2  O   UNL     1       2.304   6.044  20.599  0.00  0.00    +0.000 OA
ATOM      3  C   UNL     1       2.084   7.024  19.646  0.00  0.00    +0.000 C 
ATOM      4  C   UNL     1       2.261   6.829  18.327  0.00  0.00    +0.000 C 
ATOM      5  C   UNL     1       2.648   5.497  17.737  0.00  0.00    +0.000 C 
ATOM      6  C   UNL     1       2.659   4.386  18.820  0.00  0.00    +0.000 C 
ENDROOT
BRANCH   5   7
ATOM      7  C   UNL     1       3.902   5.490  16.865  0.00  0.00    +0.000 A 
ATOM      8  C   UNL     1       4.633   6.650  16.577  0.00  0.00    +0.000 A 
ATOM      9  C   UNL     1       5.736   6.609  15.723  0.00  0.00    +0.000 A 
ATOM     10  C   UNL     1       6.140   5.402  15.155  0.00  0.00    +0.000 A 
ATOM     11  C   UNL     1       5.447   4.231  15.451  0.00  0.00    +0.000 A 
ATOM     12  C   UNL     1       4.338   4.275  16.300  0.00  0.00    +0.000 A 
ENDBRANCH   5   7
BRANCH   3  13
ATOM     13  C   UNL     1       1.605   8.359  20.136  0.00  0.00    +0.000 C 
ATOM     14  O   UNL     1       1.402   8.608  21.318  0.00  0.00    +0.000 OA
ATOM     15  N   UNL     1       1.415   9.269  19.124  0.00  0.00    +0.000 N 
ATOM     16  H   UNL     1       1.508   8.966  18.160  0.00  0.00    +0.000 HD
BRANCH  15  17
ATOM     17  C   UNL     1       0.815  10.549  19.384  0.00  0.00    +0.000 C 
BRANCH  17  18
ATOM     18  C   UNL     1      -0.499  10.655  18.686  0.00  0.00    +0.000 A 
ATOM     19  N   UNL     1      -1.594  11.266  19.106  0.00  0.00    +0.000 NA
ATOM     20  C   UNL     1      -2.509  11.128  18.086  0.00  0.00    +0.000 A 
ATOM     21  C   UNL     1      -3.827  11.599  17.981  0.00  0.00    +0.000 A 
ATOM     22  C   UNL     1      -4.557  11.314  16.817  0.00  0.00    +0.000 A 
ATOM     23  C   UNL     1      -3.986  10.577  15.777  0.00  0.00    +0.000 A 
ATOM     24  C   UNL     1      -2.671  10.104  15.859  0.00  0.00    +0.000 A 
ATOM     25  C   UNL     1      -1.968  10.404  17.028  0.00  0.00    +0.000 A 
ATOM     26  N   UNL     1      -0.688  10.121  17.437  0.00  0.00    +0.000 N 
ATOM     27  H   UNL     1      -0.003   9.610  16.901  0.00  0.00    +0.000 HD
ENDBRANCH  17  18
ENDBRANCH  15  17
ENDBRANCH   3  13
BRANCH   1  28
ATOM     28  O   UNL     1       4.531   5.411  20.097  0.00  0.00    +0.000 OA
BRANCH  28  30
ATOM     29  C   UNL     1       6.684   4.958  19.086  0.00  0.00    +0.000 C 
ATOM     30  C   UNL     1       5.381   4.372  19.597  0.00  0.00    +0.000 C 
ENDBRANCH  28  30
ENDBRANCH   1  28
BRANCH   6  31
ATOM     31  C   UNL     1       1.231   3.790  19.032  0.00  0.00    +0.000 C 
BRANCH  31  32
ATOM     32  C   UNL     1       1.148   2.265  18.911  0.00  0.00    +0.000 C 
BRANCH  32  33
ATOM     33  C   UNL     1       2.516   1.608  19.062  0.00  0.00    +0.000 C 
BRANCH  33  34
ATOM     34  O   UNL     1       3.062   1.351  17.775  0.00  0.00    +0.000 OA
ATOM     35  H   UNL     1       3.938   1.772  17.737  0.00  0.00    +0.000 HD
ENDBRANCH  33  34
ENDBRANCH  32  33
ENDBRANCH  31  32
ENDBRANCH   6  31
TORSDOF 10
ENDMDL
MODEL 4
REMARK VINA RESULT:      -7.5      0.970      1.392
REMARK  Name = 
REMARK  11 active torsions:
REMARK  status: ('A' for Active; 'I' for Inactive)
REMARK    1  A    between atoms: C_1  and  C_2
REMARK    2  A    between atoms: C_2  and  O_3
REMARK    3  A    between atoms: O_3  and  C_4
REMARK    4  A    between atoms: C_6  and  C_7
REMARK    5  A    between atoms: N_9  and  C_10
REMARK    6  A    between atoms: C_10  and  C_11
REMARK    7  A    between atoms: C_21  and  C_22
REMARK    8  A    between atoms: C_28  and  C_29
REMARK    9  A    between atoms: C_29  and  C_30
REMARK   10  A    between atoms: C_30  and  C_31
REMARK   11  A    between atoms: C_31  and  O_32
REMARK                            x       y       z     vdW  Elec       q    Type
REMARK                         _______ _______ _______ _____ _____    ______ ____
ROOT
ATOM      1  C   UNL     1       3.639   5.615  19.695  0.00  0.00    +0.000 C 
ATOM      2  O   UNL     1       2.721   6.715  19.712  0.00  0.00    +0.000 OA
ATOM      3  C   UNL     1       2.565   7.338  18.486  0.00  0.00    +0.000 C 
ATOM      4  C   UNL     1       2.864   6.752  17.312  0.00  0.00    +0.000 C 
ATOM      5  C   UNL     1       3.332   5.324  17.201  0.00  0.00    +0.000 C 
ATOM      6  C   UNL     1       3.271   4.606  18.575  0.00  0.00    +0.000 C 
ENDROOT
BRANCH   5   7
ATOM      7  C   UNL     1       4.658   5.109  16.475  0.00  0.00    +0.000 A 
ATOM      8  C   UNL     1       5.514   6.163  16.129  0.00  0.00    +0.000 A 
ATOM      9  C   UNL     1       6.686   5.928  15.409  0.00  0.00    +0.000 A 
ATOM     10  C   UNL     1       7.034   4.631  15.038  0.00  0.00    +0.000 A 
ATOM     11  C   UNL     1       6.215   3.564  15.398  0.00  0.00    +0.000 A 
ATOM     12  C   UNL     1       5.037   3.802  16.112  0.00  0.00    +0.000 A 
ENDBRANCH   5   7
BRANCH   3  13
ATOM     13  C   UNL     1       2.014   8.734  18.494  0.00  0.00    +0.000 C 
ATOM     14  O   UNL     1       2.303   9.576  17.653  0.00  0.00    +0.000 OA
ATOM     15  N   UNL     1       1.160   8.971  19.544  0.00  0.00    +0.000 N 
ATOM     16  H   UNL     1       1.042   8.259  20.258  0.00  0.00    +0.000 HD
BRANCH  15  17
ATOM     17  C   UNL     1       0.655  10.291  19.804  0.00  0.00    +0.000 C 
BRANCH  17  18
ATOM     18  C   UNL     1      -0.604  10.523  19.040  0.00  0.00    +0.000 A 
ATOM     19  N   UNL     1      -1.691  11.164  19.440  0.00  0.00    +0.000 NA
ATOM     20  C   UNL     1      -2.545  11.153  18.360  0.00  0.00    +0.000 A 
ATOM     21  C   UNL     1      -3.827  11.704  18.214  0.00  0.00    +0.000 A 
ATOM     22  C   UNL     1      -4.497  11.547  16.991  0.00  0.00    +0.000 A 
ATOM     23  C   UNL     1      -3.900  10.857  15.934  0.00  0.00    +0.000 A 
ATOM     24  C   UNL     1      -2.621  10.305  16.056  0.00  0.00    +0.000 A 
ATOM     25  C   UNL     1      -1.978  10.478  17.284  0.00  0.00    +0.000 A 
ATOM     26  N   UNL     1      -0.743  10.093  17.745  0.00  0.00    +0.000 N 
ATOM     27  H   UNL     1      -0.053   9.584  17.212  0.00  0.00    +0.000 HD
ENDBRANCH  17  18
ENDBRANCH  15  17
ENDBRANCH   3  13
BRANCH   1  28
ATOM     28  O   UNL     1       4.999   6.068  19.608  0.00  0.00    +0.000 OA
BRANCH  28  30
ATOM     29  C   UNL     1       7.314   5.469  19.235  0.00  0.00    +0.000 C 
ATOM     30  C   UNL     1       5.913   4.968  19.535  0.00  0.00    +0.000 C 
ENDBRANCH  28  30
ENDBRANCH   1  28
BRANCH   6  31
ATOM     31  C   UNL     1       1.844   4.036  18.852  0.00  0.00    +0.000 C 
BRANCH  31  32
ATOM     32  C   UNL     1       1.759   2.506  18.880  0.00  0.00    +0.000 C 
BRANCH  32  33
ATOM     33  C   UNL     1       2.642   1.869  17.812  0.00  0.00    +0.000 C 
BRANCH  33  34
ATOM     34  O   UNL     1       3.632   1.061  18.437  0.00  0.00    +0.000 OA
ATOM     35  H   UNL     1       4.453   1.149  17.924  0.00  0.00    +0.000 HD
ENDBRANCH  33  34
ENDBRANCH  32  33
ENDBRANCH  31  32
ENDBRANCH   6  31
TORSDOF 10
ENDMDL
MODEL 5
REMARK VINA RESULT:      -7.5      1.503      1.798
REMARK  Name = 
REMARK  11 active torsions:
REMARK  status: ('A' for Active; 'I' for Inactive)
REMARK    1  A    between atoms: C_1  and  C_2
REMARK    2  A    between atoms: C_2  and  O_3
REMARK    3  A    between atoms: O_3  and  C_4
REMARK    4  A    between atoms: C_6  and  C_7
REMARK    5  A    between atoms: N_9  and  C_10
REMARK    6  A    between atoms: C_10  and  C_11
REMARK    7  A    between atoms: C_21  and  C_22
REMARK    8  A    between atoms: C_28  and  C_29
REMARK    9  A    between atoms: C_29  and  C_30
REMARK   10  A    between atoms: C_30  and  C_31
REMARK   11  A    between atoms: C_31  and  O_32
REMARK                            x       y       z     vdW  Elec       q    Type
REMARK                         _______ _______ _______ _____ _____    ______ ____
ROOT
ATOM      1  C   UNL     1       2.879   4.677  19.733  0.00  0.00    +0.000 C 
ATOM      2  O   UNL     1       2.030   5.748  20.164  0.00  0.00    +0.000 OA
ATOM      3  C   UNL     1       2.194   6.920  19.446  0.00  0.00    +0.000 C 
ATOM      4  C   UNL     1       2.737   6.968  18.216  0.00  0.00    +0.000 C 
ATOM      5  C   UNL     1       3.158   5.738  17.455  0.00  0.00    +0.000 C 
ATOM      6  C   UNL     1       2.744   4.445  18.205  0.00  0.00    +0.000 C 
ENDROOT
BRANCH   5   7
ATOM      7  C   UNL     1       4.608   5.710  16.976  0.00  0.00    +0.000 A 
ATOM      8  C   UNL     1       5.106   4.724  16.116  0.00  0.00    +0.000 A 
ATOM      9  C   UNL     1       6.453   4.700  15.754  0.00  0.00    +0.000 A 
ATOM     10  C   UNL     1       7.326   5.676  16.233  0.00  0.00    +0.000 A 
ATOM     11  C   UNL     1       6.848   6.685  17.064  0.00  0.00    +0.000 A 
ATOM     12  C   UNL     1       5.499   6.702  17.432  0.00  0.00    +0.000 A 
ENDBRANCH   5   7
BRANCH   3  13
ATOM     13  C   UNL     1       1.716   8.188  20.091  0.00  0.00    +0.000 C 
ATOM     14  O   UNL     1       1.591   8.321  21.302  0.00  0.00    +0.000 OA
ATOM     15  N   UNL     1       1.430   9.180  19.185  0.00  0.00    +0.000 N 
ATOM     16  H   UNL     1       1.462   8.970  18.192  0.00  0.00    +0.000 HD
BRANCH  15  17
ATOM     17  C   UNL     1       0.816  10.410  19.604  0.00  0.00    +0.000 C 
BRANCH  17  18
ATOM     18  C   UNL     1      -0.486  10.603  18.903  0.00  0.00    +0.000 A 
ATOM     19  N   UNL     1      -1.577  11.192  19.363  0.00  0.00    +0.000 NA
ATOM     20  C   UNL     1      -2.480  11.165  18.323  0.00  0.00    +0.000 A 
ATOM     21  C   UNL     1      -3.788  11.666  18.245  0.00  0.00    +0.000 A 
ATOM     22  C   UNL     1      -4.506  11.502  17.051  0.00  0.00    +0.000 A 
ATOM     23  C   UNL     1      -3.932  10.854  15.955  0.00  0.00    +0.000 A 
ATOM     24  C   UNL     1      -2.627  10.353  16.010  0.00  0.00    +0.000 A 
ATOM     25  C   UNL     1      -1.936  10.531  17.210  0.00  0.00    +0.000 A 
ATOM     26  N   UNL     1      -0.667  10.190  17.607  0.00  0.00    +0.000 N 
ATOM     27  H   UNL     1       0.018   9.718  17.034  0.00  0.00    +0.000 HD
ENDBRANCH  17  18
ENDBRANCH  15  17
ENDBRANCH   3  13
BRANCH   1  28
ATOM     28  O   UNL     1       4.238   4.888  20.145  0.00  0.00    +0.000 OA
BRANCH  28  30
ATOM     29  C   UNL     1       4.547   2.495  20.339  0.00  0.00    +0.000 C 
ATOM     30  C   UNL     1       5.078   3.793  19.759  0.00  0.00    +0.000 C 
ENDBRANCH  28  30
ENDBRANCH   1  28
BRANCH   6  31
ATOM     31  C   UNL     1       1.270   4.048  17.878  0.00  0.00    +0.000 C 
BRANCH  31  32
ATOM     32  C   UNL     1       0.687   2.948  18.772  0.00  0.00    +0.000 C 
BRANCH  32  33
ATOM     33  C   UNL     1       1.600   1.728  18.837  0.00  0.00    +0.000 C 
BRANCH  33  34
ATOM     34  O   UNL     1       2.285   1.583  17.600  0.00  0.00    +0.000 OA
ATOM     35  H   UNL     1       2.907   2.325  17.518  0.00  0.00    +0.000 HD
ENDBRANCH  33  34
ENDBRANCH  32  33
ENDBRANCH  31  32
ENDBRANCH   6  31
TORSDOF 10
ENDMDL
MODEL 6
REMARK VINA RESULT:      -7.4      1.291      1.684
REMARK  Name = 
REMARK  11 active torsions:
REMARK  status: ('A' for Active; 'I' for Inactive)
REMARK    1  A    between atoms: C_1  and  C_2
REMARK    2  A    between atoms: C_2  and  O_3
REMARK    3  A    between atoms: O_3  and  C_4
REMARK    4  A    between atoms: C_6  and  C_7
REMARK    5  A    between atoms: N_9  and  C_10
REMARK    6  A    between atoms: C_10  and  C_11
REMARK    7  A    between atoms: C_21  and  C_22
REMARK    8  A    between atoms: C_28  and  C_29
REMARK    9  A    between atoms: C_29  and  C_30
REMARK   10  A    between atoms: C_30  and  C_31
REMARK   11  A    between atoms: C_31  and  O_32
REMARK                            x       y       z     vdW  Elec       q    Type
REMARK                         _______ _______ _______ _____ _____    ______ ____
ROOT
ATOM      1  C   UNL     1       2.973   4.542  19.829  0.00  0.00    +0.000 C 
ATOM      2  O   UNL     1       2.142   5.628  20.257  0.00  0.00    +0.000 OA
ATOM      3  C   UNL     1       2.257   6.766  19.477  0.00  0.00    +0.000 C 
ATOM      4  C   UNL     1       2.728   6.758  18.217  0.00  0.00    +0.000 C 
ATOM      5  C   UNL     1       3.114   5.495  17.491  0.00  0.00    +0.000 C 
ATOM      6  C   UNL     1       2.753   4.238  18.324  0.00  0.00    +0.000 C 
ENDROOT
BRANCH   5   7
ATOM      7  C   UNL     1       4.534   5.452  16.932  0.00  0.00    +0.000 A 
ATOM      8  C   UNL     1       5.487   6.442  17.202  0.00  0.00    +0.000 A 
ATOM      9  C   UNL     1       6.754   6.397  16.619  0.00  0.00    +0.000 A 
ATOM     10  C   UNL     1       7.098   5.348  15.768  0.00  0.00    +0.000 A 
ATOM     11  C   UNL     1       6.179   4.336  15.510  0.00  0.00    +0.000 A 
ATOM     12  C   UNL     1       4.907   4.387  16.089  0.00  0.00    +0.000 A 
ENDBRANCH   5   7
BRANCH   3  13
ATOM     13  C   UNL     1       1.807   8.061  20.089  0.00  0.00    +0.000 C 
ATOM     14  O   UNL     1       1.709   8.236  21.296  0.00  0.00    +0.000 OA
ATOM     15  N   UNL     1       1.513   9.025  19.155  0.00  0.00    +0.000 N 
ATOM     16  H   UNL     1       1.522   8.781  18.169  0.00  0.00    +0.000 HD
BRANCH  15  17
ATOM     17  C   UNL     1       0.922  10.276  19.544  0.00  0.00    +0.000 C 
BRANCH  17  18
ATOM     18  C   UNL     1      -0.386  10.467  18.855  0.00  0.00    +0.000 A 
ATOM     19  N   UNL     1      -1.464  11.083  19.312  0.00  0.00    +0.000 NA
ATOM     20  C   UNL     1      -2.380  11.038  18.285  0.00  0.00    +0.000 A 
ATOM     21  C   UNL     1      -3.683  11.554  18.210  0.00  0.00    +0.000 A 
ATOM     22  C   UNL     1      -4.419  11.367  17.031  0.00  0.00    +0.000 A 
ATOM     23  C   UNL     1      -3.868  10.681  15.946  0.00  0.00    +0.000 A 
ATOM     24  C   UNL     1      -2.569  10.164  15.998  0.00  0.00    +0.000 A 
ATOM     25  C   UNL     1      -1.859  10.367  17.184  0.00  0.00    +0.000 A 
ATOM     26  N   UNL     1      -0.590  10.020  17.574  0.00  0.00    +0.000 N 
ATOM     27  H   UNL     1       0.081   9.523  17.006  0.00  0.00    +0.000 HD
ENDBRANCH  17  18
ENDBRANCH  15  17
ENDBRANCH   3  13
BRANCH   1  28
ATOM     28  O   UNL     1       4.352   4.779  20.151  0.00  0.00    +0.000 OA
BRANCH  28  30
ATOM     29  C   UNL     1       4.659   2.380  20.269  0.00  0.00    +0.000 C 
ATOM     30  C   UNL     1       5.183   3.695  19.721  0.00  0.00    +0.000 C 
ENDBRANCH  28  30
ENDBRANCH   1  28
BRANCH   6  31
ATOM     31  C   UNL     1       1.265   3.819  18.101  0.00  0.00    +0.000 C 
BRANCH  31  32
ATOM     32  C   UNL     1       0.931   2.385  18.525  0.00  0.00    +0.000 C 
BRANCH  32  33
ATOM     33  C   UNL     1       1.213   2.151  20.005  0.00  0.00    +0.000 C 
BRANCH  33  34
ATOM     34  O   UNL     1       0.446   3.061  20.783  0.00  0.00    +0.000 OA
ATOM     35  H   UNL     1      -0.482   2.976  20.506  0.00  0.00    +0.000 HD
ENDBRANCH  33  34
ENDBRANCH  32  33
ENDBRANCH  31  32
ENDBRANCH   6  31
TORSDOF 10
ENDMDL
MODEL 7
REMARK VINA RESULT:      -7.4      0.273      1.062
REMARK  Name = 
REMARK  11 active torsions:
REMARK  status: ('A' for Active; 'I' for Inactive)
REMARK    1  A    between atoms: C_1  and  C_2
REMARK    2  A    between atoms: C_2  and  O_3
REMARK    3  A    between atoms: O_3  and  C_4
REMARK    4  A    between atoms: C_6  and  C_7
REMARK    5  A    between atoms: N_9  and  C_10
REMARK    6  A    between atoms: C_10  and  C_11
REMARK    7  A    between atoms: C_21  and  C_22
REMARK    8  A    between atoms: C_28  and  C_29
REMARK    9  A    between atoms: C_29  and  C_30
REMARK   10  A    between atoms: C_30  and  C_31
REMARK   11  A    between atoms: C_31  and  O_32
REMARK                            x       y       z     vdW  Elec       q    Type
REMARK                         _______ _______ _______ _____ _____    ______ ____
ROOT
ATOM      1  C   UNL     1       3.803   5.521  19.667  0.00  0.00    +0.000 C 
ATOM      2  O   UNL     1       2.886   6.619  19.758  0.00  0.00    +0.000 OA
ATOM      3  C   UNL     1       2.622   7.234  18.547  0.00  0.00    +0.000 C 
ATOM      4  C   UNL     1       2.819   6.642  17.355  0.00  0.00    +0.000 C 
ATOM      5  C   UNL     1       3.280   5.215  17.212  0.00  0.00    +0.000 C 
ATOM      6  C   UNL     1       3.342   4.505  18.589  0.00  0.00    +0.000 C 
ENDROOT
BRANCH   5   7
ATOM      7  C   UNL     1       4.539   4.999  16.374  0.00  0.00    +0.000 A 
ATOM      8  C   UNL     1       5.079   3.731  16.127  0.00  0.00    +0.000 A 
ATOM      9  C   UNL     1       6.267   3.585  15.409  0.00  0.00    +0.000 A 
ATOM     10  C   UNL     1       6.927   4.705  14.908  0.00  0.00    +0.000 A 
ATOM     11  C   UNL     1       6.392   5.973  15.113  0.00  0.00    +0.000 A 
ATOM     12  C   UNL     1       5.207   6.119  15.840  0.00  0.00    +0.000 A 
ENDBRANCH   5   7
BRANCH   3  13
ATOM     13  C   UNL     1       2.070   8.629  18.595  0.00  0.00    +0.000 C 
ATOM     14  O   UNL     1       2.488   9.542  17.895  0.00  0.00    +0.000 OA
ATOM     15  N   UNL     1       1.053   8.775  19.508  0.00  0.00    +0.000 N 
ATOM     16  H   UNL     1       0.824   8.002  20.125  0.00  0.00    +0.000 HD
BRANCH  15  17
ATOM     17  C   UNL     1       0.506  10.071  19.805  0.00  0.00    +0.000 C 
BRANCH  17  18
ATOM     18  C   UNL     1      -0.652  10.360  18.911  0.00  0.00    +0.000 A 
ATOM     19  N   UNL     1      -0.822   9.984  17.654  0.00  0.00    +0.000 NA
ATOM     20  C   UNL     1      -2.067  10.450  17.293  0.00  0.00    +0.000 A 
ATOM     21  C   UNL     1      -2.766  10.322  16.083  0.00  0.00    +0.000 A 
ATOM     22  C   UNL     1      -4.039  10.902  15.973  0.00  0.00    +0.000 A 
ATOM     23  C   UNL     1      -4.605  11.594  17.046  0.00  0.00    +0.000 A 
ATOM     24  C   UNL     1      -3.927  11.728  18.262  0.00  0.00    +0.000 A 
ATOM     25  C   UNL     1      -2.663  11.139  18.345  0.00  0.00    +0.000 A 
ATOM     26  N   UNL     1      -1.742  11.061  19.360  0.00  0.00    +0.000 N 
ATOM     27  H   UNL     1      -1.857  11.451  20.284  0.00  0.00    +0.000 HD
ENDBRANCH  17  18
ENDBRANCH  15  17
ENDBRANCH   3  13
BRANCH   1  28
ATOM     28  O   UNL     1       5.148   5.978  19.460  0.00  0.00    +0.000 OA
BRANCH  28  30
ATOM     29  C   UNL     1       7.403   5.330  18.862  0.00  0.00    +0.000 C 
ATOM     30  C   UNL     1       6.075   4.885  19.447  0.00  0.00    +0.000 C 
ENDBRANCH  28  30
ENDBRANCH   1  28
BRANCH   6  31
ATOM     31  C   UNL     1       1.946   3.932  18.993  0.00  0.00    +0.000 C 
BRANCH  31  32
ATOM     32  C   UNL     1       1.997   2.694  19.895  0.00  0.00    +0.000 C 
BRANCH  32  33
ATOM     33  C   UNL     1       1.501   3.000  21.305  0.00  0.00    +0.000 C 
BRANCH  33  34
ATOM     34  O   UNL     1       2.547   2.758  22.237  0.00  0.00    +0.000 OA
ATOM     35  H   UNL     1       3.045   1.983  21.927  0.00  0.00    +0.000 HD
ENDBRANCH  33  34
ENDBRANCH  32  33
ENDBRANCH  31  32
ENDBRANCH   6  31
TORSDOF 10
ENDMDL
MODEL 8
REMARK VINA RESULT:      -7.2      1.783      4.022
REMARK  Name = 
REMARK  11 active torsions:
REMARK  status: ('A' for Active; 'I' for Inactive)
REMARK    1  A    between atoms: C_1  and  C_2
REMARK    2  A    between atoms: C_2  and  O_3
REMARK    3  A    between atoms: O_3  and  C_4
REMARK    4  A    between atoms: C_6  and  C_7
REMARK    5  A    between atoms: N_9  and  C_10
REMARK    6  A    between atoms: C_10  and  C_11
REMARK    7  A    between atoms: C_21  and  C_22
REMARK    8  A    between atoms: C_28  and  C_29
REMARK    9  A    between atoms: C_29  and  C_30
REMARK   10  A    between atoms: C_30  and  C_31
REMARK   11  A    between atoms: C_31  and  O_32
REMARK                            x       y       z     vdW  Elec       q    Type
REMARK                         _______ _______ _______ _____ _____    ______ ____
ROOT
ATOM      1  C   UNL     1       3.447   5.493  17.178  0.00  0.00    +0.000 C 
ATOM      2  O   UNL     1       3.216   6.907  17.143  0.00  0.00    +0.000 OA
ATOM      3  C   UNL     1       2.864   7.450  18.367  0.00  0.00    +0.000 C 
ATOM      4  C   UNL     1       3.128   6.858  19.546  0.00  0.00    +0.000 C 
ATOM      5  C   UNL     1       3.903   5.571  19.664  0.00  0.00    +0.000 C 
ATOM      6  C   UNL     1       4.466   5.127  18.289  0.00  0.00    +0.000 C 
ENDROOT
BRANCH   5   7
ATOM      7  C   UNL     1       3.208   4.438  20.417  0.00  0.00    +0.000 A 
ATOM      8  C   UNL     1       3.822   3.206  20.670  0.00  0.00    +0.000 A 
ATOM      9  C   UNL     1       3.128   2.175  21.305  0.00  0.00    +0.000 A 
ATOM     10  C   UNL     1       1.810   2.366  21.717  0.00  0.00    +0.000 A 
ATOM     11  C   UNL     1       1.189   3.594  21.504  0.00  0.00    +0.000 A 
ATOM     12  C   UNL     1       1.884   4.622  20.860  0.00  0.00    +0.000 A 
ENDBRANCH   5   7
BRANCH   3  13
ATOM     13  C   UNL     1       2.169   8.780  18.349  0.00  0.00    +0.000 C 
ATOM     14  O   UNL     1       2.316   9.604  17.455  0.00  0.00    +0.000 OA
ATOM     15  N   UNL     1       1.357   8.979  19.439  0.00  0.00    +0.000 N 
ATOM     16  H   UNL     1       1.358   8.296  20.191  0.00  0.00    +0.000 HD
BRANCH  15  17
ATOM     17  C   UNL     1       0.730  10.251  19.672  0.00  0.00    +0.000 C 
BRANCH  17  18
ATOM     18  C   UNL     1      -0.524  10.364  18.873  0.00  0.00    +0.000 A 
ATOM     19  N   UNL     1      -1.669  10.921  19.232  0.00  0.00    +0.000 NA
ATOM     20  C   UNL     1      -2.491  10.819  18.132  0.00  0.00    +0.000 A 
ATOM     21  C   UNL     1      -3.810  11.260  17.943  0.00  0.00    +0.000 A 
ATOM     22  C   UNL     1      -4.431  11.026  16.707  0.00  0.00    +0.000 A 
ATOM     23  C   UNL     1      -3.753  10.366  15.679  0.00  0.00    +0.000 A 
ATOM     24  C   UNL     1      -2.436   9.924  15.846  0.00  0.00    +0.000 A 
ATOM     25  C   UNL     1      -1.842  10.173  17.085  0.00  0.00    +0.000 A 
ATOM     26  N   UNL     1      -0.592   9.900  17.584  0.00  0.00    +0.000 N 
ATOM     27  H   UNL     1       0.151   9.439  17.080  0.00  0.00    +0.000 HD
ENDBRANCH  17  18
ENDBRANCH  15  17
ENDBRANCH   3  13
BRANCH   1  28
ATOM     28  O   UNL     1       2.216   4.763  17.292  0.00  0.00    +0.000 OA
BRANCH  28  30
ATOM     29  C   UNL     1       1.424   2.577  17.965  0.00  0.00    +0.000 C 
ATOM     30  C   UNL     1       2.426   3.355  17.132  0.00  0.00    +0.000 C 
ENDBRANCH  28  30
ENDBRANCH   1  28
BRANCH   6  31
ATOM     31  C   UNL     1       5.828   5.828  17.982  0.00  0.00    +0.000 C 
BRANCH  31  32
ATOM     32  C   UNL     1       7.068   5.041  18.418  0.00  0.00    +0.000 C 
BRANCH  32  33
ATOM     33  C   UNL     1       8.002   5.885  19.278  0.00  0.00    +0.000 C 
BRANCH  33  34
ATOM     34  O   UNL     1       7.977   5.404  20.616  0.00  0.00    +0.000 OA
ATOM     35  H   UNL     1       7.988   4.433  20.581  0.00  0.00    +0.000 HD
ENDBRANCH  33  34
ENDBRANCH  32  33
ENDBRANCH  31  32
ENDBRANCH   6  31
TORSDOF 10
ENDMDL
MODEL 9
REMARK VINA RESULT:      -7.2      1.570      4.207
REMARK  Name = 
REMARK  11 active torsions:
REMARK  status: ('A' for Active; 'I' for Inactive)
REMARK    1  A    between atoms: C_1  and  C_2
REMARK    2  A    between atoms: C_2  and  O_3
REMARK    3  A    between atoms: O_3  and  C_4
REMARK    4  A    between atoms: C_6  and  C_7
REMARK    5  A    between atoms: N_9  and  C_10
REMARK    6  A    between atoms: C_10  and  C_11
REMARK    7  A    between atoms: C_21  and  C_22
REMARK    8  A    between atoms: C_28  and  C_29
REMARK    9  A    between atoms: C_29  and  C_30
REMARK   10  A    between atoms: C_30  and  C_31
REMARK   11  A    between atoms: C_31  and  O_32
REMARK                            x       y       z     vdW  Elec       q    Type
REMARK                         _______ _______ _______ _____ _____    ______ ____
ROOT
ATOM      1  C   UNL     1       3.723   5.516  17.250  0.00  0.00    +0.000 C 
ATOM      2  O   UNL     1       3.480   6.928  17.200  0.00  0.00    +0.000 OA
ATOM      3  C   UNL     1       2.945   7.449  18.365  0.00  0.00    +0.000 C 
ATOM      4  C   UNL     1       3.040   6.843  19.562  0.00  0.00    +0.000 C 
ATOM      5  C   UNL     1       3.806   5.563  19.777  0.00  0.00    +0.000 C 
ATOM      6  C   UNL     1       4.572   5.146  18.495  0.00  0.00    +0.000 C 
ENDROOT
BRANCH   5   7
ATOM      7  C   UNL     1       3.023   4.412  20.405  0.00  0.00    +0.000 A 
ATOM      8  C   UNL     1       1.655   4.492  20.693  0.00  0.00    +0.000 A 
ATOM      9  C   UNL     1       0.992   3.439  21.325  0.00  0.00    +0.000 A 
ATOM     10  C   UNL     1       1.683   2.277  21.664  0.00  0.00    +0.000 A 
ATOM     11  C   UNL     1       3.036   2.162  21.359  0.00  0.00    +0.000 A 
ATOM     12  C   UNL     1       3.700   3.221  20.733  0.00  0.00    +0.000 A 
ENDBRANCH   5   7
BRANCH   3  13
ATOM     13  C   UNL     1       2.242   8.771  18.262  0.00  0.00    +0.000 C 
ATOM     14  O   UNL     1       2.339   9.510  17.291  0.00  0.00    +0.000 OA
ATOM     15  N   UNL     1       1.484   9.067  19.369  0.00  0.00    +0.000 N 
ATOM     16  H   UNL     1       1.527   8.456  20.178  0.00  0.00    +0.000 HD
BRANCH  15  17
ATOM     17  C   UNL     1       0.863  10.355  19.517  0.00  0.00    +0.000 C 
BRANCH  17  18
ATOM     18  C   UNL     1      -0.426  10.396  18.769  0.00  0.00    +0.000 A 
ATOM     19  N   UNL     1      -1.588  10.879  19.178  0.00  0.00    +0.000 NA
ATOM     20  C   UNL     1      -2.446  10.734  18.110  0.00  0.00    +0.000 A 
ATOM     21  C   UNL     1      -3.795  11.095  17.977  0.00  0.00    +0.000 A 
ATOM     22  C   UNL     1      -4.450  10.830  16.765  0.00  0.00    +0.000 A 
ATOM     23  C   UNL     1      -3.775  10.220  15.706  0.00  0.00    +0.000 A 
ATOM     24  C   UNL     1      -2.428   9.858  15.816  0.00  0.00    +0.000 A 
ATOM     25  C   UNL     1      -1.801  10.135  17.033  0.00  0.00    +0.000 A 
ATOM     26  N   UNL     1      -0.518   9.936  17.480  0.00  0.00    +0.000 N 
ATOM     27  H   UNL     1       0.231   9.524  16.943  0.00  0.00    +0.000 HD
ENDBRANCH  17  18
ENDBRANCH  15  17
ENDBRANCH   3  13
BRANCH   1  28
ATOM     28  O   UNL     1       2.498   4.771  17.172  0.00  0.00    +0.000 OA
BRANCH  28  30
ATOM     29  C   UNL     1       1.794   2.534  17.772  0.00  0.00    +0.000 C 
ATOM     30  C   UNL     1       2.747   3.378  16.946  0.00  0.00    +0.000 C 
ENDBRANCH  28  30
ENDBRANCH   1  28
BRANCH   6  31
ATOM     31  C   UNL     1       5.954   5.867  18.401  0.00  0.00    +0.000 C 
BRANCH  31  32
ATOM     32  C   UNL     1       7.129   4.957  18.029  0.00  0.00    +0.000 C 
BRANCH  32  33
ATOM     33  C   UNL     1       7.133   4.614  16.543  0.00  0.00    +0.000 C 
BRANCH  33  34
ATOM     34  O   UNL     1       7.514   5.761  15.794  0.00  0.00    +0.000 OA
ATOM     35  H   UNL     1       8.003   5.454  15.011  0.00  0.00    +0.000 HD
ENDBRANCH  33  34
ENDBRANCH  32  33
ENDBRANCH  31  32
ENDBRANCH   6  31
TORSDOF 10
ENDMDL
