MODEL 1
REMARK VINA RESULT:      -8.8      0.000      0.000
REMARK  Name = 
REMARK  4 active torsions:
REMARK  status: ('A' for Active; 'I' for Inactive)
REMARK    1  A    between atoms: C_2  and  C_15
REMARK    2  A    between atoms: N_3  and  N_4
REMARK    3  A    between atoms: N_4  and  C_5
REMARK    4  A    between atoms: C_18  and  C_19
REMARK                            x       y       z     vdW  Elec       q    Type
REMARK                         _______ _______ _______ _____ _____    ______ ____
ROOT
ATOM      1  O   UNL     1       6.902   4.397  16.996  0.00  0.00    +0.000 OA
ATOM      2  C   UNL     1       6.747   5.083  18.011  0.00  0.00    +0.000 C 
ATOM      3  N   UNL     1       6.074   4.646  19.142  0.00  0.00    +0.000 N 
ATOM      4  H   UNL     1       5.952   5.256  19.941  0.00  0.00    +0.000 HD
ENDROOT
BRANCH   2   5
ATOM      5  C   UNL     1       7.319   6.460  18.090  0.00  0.00    +0.000 A 
ATOM      6  C   UNL     1       8.304   6.796  19.028  0.00  0.00    +0.000 A 
ATOM      7  C   UNL     1       8.789   8.100  19.102  0.00  0.00    +0.000 A 
ATOM      8  C   UNL     1       8.349   9.080  18.201  0.00  0.00    +0.000 A 
ATOM      9  C   UNL     1       7.356   8.744  17.263  0.00  0.00    +0.000 A 
ATOM     10  C   UNL     1       6.842   7.442  17.216  0.00  0.00    +0.000 A 
BRANCH   8  11
ATOM     11  C   UNL     1       8.971  10.455  18.207  0.00  0.00    +0.000 C 
ATOM     12  F   UNL     1       8.156  11.417  17.689  0.00  0.00    +0.000 F 
ATOM     13  F   UNL     1       9.277  10.870  19.467  0.00  0.00    +0.000 F 
ATOM     14  F   UNL     1      10.128  10.523  17.494  0.00  0.00    +0.000 F 
ENDBRANCH   8  11
ENDBRANCH   2   5
BRANCH   3  15
ATOM     15  N   UNL     1       5.479   3.370  19.189  0.00  0.00    +0.000 NA
ATOM     16  H   UNL     1       5.811   2.910  20.050  0.00  0.00    +0.000 HD
BRANCH  15  17
ATOM     17  C   UNL     1       4.002   3.426  19.197  0.00  0.00    +0.000 C 
ATOM     18  C   UNL     1       3.498   4.878  19.425  0.00  0.00    +0.000 C 
ATOM     19  C   UNL     1       1.963   4.935  19.379  0.00  0.00    +0.000 C 
ATOM     20  C   UNL     1       1.489   4.457  17.999  0.00  0.00    +0.000 C 
ATOM     21  C   UNL     1       1.946   3.010  17.758  0.00  0.00    +0.000 C 
ATOM     22  C   UNL     1       1.358   2.106  18.854  0.00  0.00    +0.000 C 
ATOM     23  C   UNL     1       1.851   2.567  20.235  0.00  0.00    +0.000 C 
ATOM     24  C   UNL     1       1.393   4.016  20.473  0.00  0.00    +0.000 C 
ATOM     25  C   UNL     1       3.389   2.502  20.277  0.00  0.00    +0.000 C 
ATOM     26  C   UNL     1       3.485   2.946  17.813  0.00  0.00    +0.000 C 
ENDBRANCH  15  17
ENDBRANCH   3  15
TORSDOF 4
ENDMDL
MODEL 2
REMARK VINA RESULT:      -8.8      0.166      1.794
REMARK  Name = 
REMARK  4 active torsions:
REMARK  status: ('A' for Active; 'I' for Inactive)
REMARK    1  A    between atoms: C_2  and  C_15
REMARK    2  A    between atoms: N_3  and  N_4
REMARK    3  A    between atoms: N_4  and  C_5
REMARK    4  A    between atoms: C_18  and  C_19
REMARK                            x       y       z     vdW  Elec       q    Type
REMARK                         _______ _______ _______ _____ _____    ______ ____
ROOT
ATOM      1  O   UNL     1       7.027   4.263  17.217  0.00  0.00    +0.000 OA
ATOM      2  C   UNL     1       6.774   5.035  18.146  0.00  0.00    +0.000 C 
ATOM      3  N   UNL     1       6.018   4.685  19.254  0.00  0.00    +0.000 N 
ATOM      4  H   UNL     1       5.816   5.362  19.980  0.00  0.00    +0.000 HD
ENDROOT
BRANCH   2   5
ATOM      5  C   UNL     1       7.307   6.429  18.141  0.00  0.00    +0.000 A 
ATOM      6  C   UNL     1       6.852   7.389  17.228  0.00  0.00    +0.000 A 
ATOM      7  C   UNL     1       7.398   8.671  17.223  0.00  0.00    +0.000 A 
ATOM      8  C   UNL     1       8.363   9.042  18.171  0.00  0.00    +0.000 A 
ATOM      9  C   UNL     1       8.823   8.077  19.084  0.00  0.00    +0.000 A 
ATOM     10  C   UNL     1       8.301   6.777  19.062  0.00  0.00    +0.000 A 
BRANCH   8  11
ATOM     11  C   UNL     1       8.855  10.466  18.240  0.00  0.00    +0.000 C 
ATOM     12  F   UNL     1       8.031  11.350  17.608  0.00  0.00    +0.000 F 
ATOM     13  F   UNL     1       8.956  10.909  19.524  0.00  0.00    +0.000 F 
ATOM     14  F   UNL     1      10.084  10.637  17.682  0.00  0.00    +0.000 F 
ENDBRANCH   8  11
ENDBRANCH   2   5
BRANCH   3  15
ATOM     15  N   UNL     1       5.448   3.402  19.373  0.00  0.00    +0.000 NA
ATOM     16  H   UNL     1       5.696   3.042  20.307  0.00  0.00    +0.000 HD
BRANCH  15  17
ATOM     17  C   UNL     1       3.977   3.411  19.223  0.00  0.00    +0.000 C 
ATOM     18  C   UNL     1       3.292   2.627  20.376  0.00  0.00    +0.000 C 
ATOM     19  C   UNL     1       1.762   2.687  20.240  0.00  0.00    +0.000 C 
ATOM     20  C   UNL     1       1.314   4.154  20.305  0.00  0.00    +0.000 C 
ATOM     21  C   UNL     1       1.952   4.949  19.155  0.00  0.00    +0.000 C 
ATOM     22  C   UNL     1       1.524   4.331  17.815  0.00  0.00    +0.000 C 
ATOM     23  C   UNL     1       1.991   2.869  17.737  0.00  0.00    +0.000 C 
ATOM     24  C   UNL     1       1.353   2.076  18.890  0.00  0.00    +0.000 C 
ATOM     25  C   UNL     1       3.525   2.816  17.867  0.00  0.00    +0.000 C 
ATOM     26  C   UNL     1       3.488   4.884  19.281  0.00  0.00    +0.000 C 
ENDBRANCH  15  17
ENDBRANCH   3  15
TORSDOF 4
ENDMDL
MODEL 3
REMARK VINA RESULT:      -8.7      0.185      1.245
REMARK  Name = 
REMARK  4 active torsions:
REMARK  status: ('A' for Active; 'I' for Inactive)
REMARK    1  A    between atoms: C_2  and  C_15
REMARK    2  A    between atoms: N_3  and  N_4
REMARK    3  A    between atoms: N_4  and  C_5
REMARK    4  A    between atoms: C_18  and  C_19
REMARK                            x       y       z     vdW  Elec       q    Type
REMARK                         _______ _______ _______ _____ _____    ______ ____
ROOT
ATOM      1  O   UNL     1       7.236   4.244  17.304  0.00  0.00    +0.000 OA
ATOM      2  C   UNL     1       6.872   5.048  18.166  0.00  0.00    +0.000 C 
ATOM      3  N   UNL     1       6.008   4.729  19.203  0.00  0.00    +0.000 N 
ATOM      4  H   UNL     1       5.719   5.432  19.872  0.00  0.00    +0.000 HD
ENDROOT
BRANCH   2   5
ATOM      5  C   UNL     1       7.379   6.452  18.156  0.00  0.00    +0.000 A 
ATOM      6  C   UNL     1       6.912   7.398  17.233  0.00  0.00    +0.000 A 
ATOM      7  C   UNL     1       7.435   8.690  17.224  0.00  0.00    +0.000 A 
ATOM      8  C   UNL     1       8.386   9.084  18.176  0.00  0.00    +0.000 A 
ATOM      9  C   UNL     1       8.858   8.133  19.098  0.00  0.00    +0.000 A 
ATOM     10  C   UNL     1       8.360   6.824  19.081  0.00  0.00    +0.000 A 
BRANCH   8  11
ATOM     11  C   UNL     1       8.851  10.518  18.239  0.00  0.00    +0.000 C 
ATOM     12  F   UNL     1       8.963  10.991  19.513  0.00  0.00    +0.000 F 
ATOM     13  F   UNL     1      10.081  10.680  17.676  0.00  0.00    +0.000 F 
ATOM     14  F   UNL     1       8.021  11.380  17.592  0.00  0.00    +0.000 F 
ENDBRANCH   8  11
ENDBRANCH   2   5
BRANCH   3  15
ATOM     15  N   UNL     1       5.450   3.440  19.317  0.00  0.00    +0.000 NA
ATOM     16  H   UNL     1       5.748   3.058  20.227  0.00  0.00    +0.000 HD
BRANCH  15  17
ATOM     17  C   UNL     1       3.974   3.446  19.243  0.00  0.00    +0.000 C 
ATOM     18  C   UNL     1       3.415   4.893  19.320  0.00  0.00    +0.000 C 
ATOM     19  C   UNL     1       1.884   4.893  19.190  0.00  0.00    +0.000 C 
ATOM     20  C   UNL     1       1.501   4.286  17.832  0.00  0.00    +0.000 C 
ATOM     21  C   UNL     1       2.014   2.840  17.739  0.00  0.00    +0.000 C 
ATOM     22  C   UNL     1       1.394   2.011  18.875  0.00  0.00    +0.000 C 
ATOM     23  C   UNL     1       1.795   2.601  20.235  0.00  0.00    +0.000 C 
ATOM     24  C   UNL     1       1.282   4.049  20.325  0.00  0.00    +0.000 C 
ATOM     25  C   UNL     1       3.330   2.594  20.363  0.00  0.00    +0.000 C 
ATOM     26  C   UNL     1       3.549   2.835  17.880  0.00  0.00    +0.000 C 
ENDBRANCH  15  17
ENDBRANCH   3  15
TORSDOF 4
ENDMDL
MODEL 4
REMARK VINA RESULT:      -8.7      0.115      1.687
REMARK  Name = 
REMARK  4 active torsions:
REMARK  status: ('A' for Active; 'I' for Inactive)
REMARK    1  A    between atoms: C_2  and  C_15
REMARK    2  A    between atoms: N_3  and  N_4
REMARK    3  A    between atoms: N_4  and  C_5
REMARK    4  A    between atoms: C_18  and  C_19
REMARK                            x       y       z     vdW  Elec       q    Type
REMARK                         _______ _______ _______ _____ _____    ______ ____
ROOT
ATOM      1  O   UNL     1       6.741   4.425  16.966  0.00  0.00    +0.000 OA
ATOM      2  C   UNL     1       6.674   5.075  18.012  0.00  0.00    +0.000 C 
ATOM      3  N   UNL     1       6.094   4.601  19.179  0.00  0.00    +0.000 N 
ATOM      4  H   UNL     1       6.040   5.183  20.006  0.00  0.00    +0.000 HD
ENDROOT
BRANCH   2   5
ATOM      5  C   UNL     1       7.256   6.448  18.092  0.00  0.00    +0.000 A 
ATOM      6  C   UNL     1       8.270   6.767  19.005  0.00  0.00    +0.000 A 
ATOM      7  C   UNL     1       8.765   8.067  19.081  0.00  0.00    +0.000 A 
ATOM      8  C   UNL     1       8.305   9.061  18.206  0.00  0.00    +0.000 A 
ATOM      9  C   UNL     1       7.283   8.742  17.293  0.00  0.00    +0.000 A 
ATOM     10  C   UNL     1       6.759   7.444  17.245  0.00  0.00    +0.000 A 
BRANCH   8  11
ATOM     11  C   UNL     1       8.936  10.432  18.210  0.00  0.00    +0.000 C 
ATOM     12  F   UNL     1       9.238  10.879  19.462  0.00  0.00    +0.000 F 
ATOM     13  F   UNL     1      10.108  10.455  17.517  0.00  0.00    +0.000 F 
ATOM     14  F   UNL     1       8.145  11.388  17.652  0.00  0.00    +0.000 F 
ENDBRANCH   8  11
ENDBRANCH   2   5
BRANCH   3  15
ATOM     15  N   UNL     1       5.499   3.324  19.231  0.00  0.00    +0.000 NA
ATOM     16  H   UNL     1       5.769   2.898  20.130  0.00  0.00    +0.000 HD
BRANCH  15  17
ATOM     17  C   UNL     1       4.025   3.374  19.130  0.00  0.00    +0.000 C 
ATOM     18  C   UNL     1       3.359   2.581  20.288  0.00  0.00    +0.000 C 
ATOM     19  C   UNL     1       1.827   2.682  20.206  0.00  0.00    +0.000 C 
ATOM     20  C   UNL     1       1.420   4.158  20.318  0.00  0.00    +0.000 C 
ATOM     21  C   UNL     1       2.039   4.964  19.165  0.00  0.00    +0.000 C 
ATOM     22  C   UNL     1       1.550   4.387  17.827  0.00  0.00    +0.000 C 
ATOM     23  C   UNL     1       1.978   2.916  17.701  0.00  0.00    +0.000 C 
ATOM     24  C   UNL     1       1.358   2.113  18.858  0.00  0.00    +0.000 C 
ATOM     25  C   UNL     1       3.513   2.822  17.778  0.00  0.00    +0.000 C 
ATOM     26  C   UNL     1       3.576   4.857  19.237  0.00  0.00    +0.000 C 
ENDBRANCH  15  17
ENDBRANCH   3  15
TORSDOF 4
ENDMDL
MODEL 5
REMARK VINA RESULT:      -8.6      5.686      7.105
REMARK  Name = 
REMARK  4 active torsions:
REMARK  status: ('A' for Active; 'I' for Inactive)
REMARK    1  A    between atoms: C_2  and  C_15
REMARK    2  A    between atoms: N_3  and  N_4
REMARK    3  A    between atoms: N_4  and  C_5
REMARK    4  A    between atoms: C_18  and  C_19
REMARK                            x       y       z     vdW  Elec       q    Type
REMARK                         _______ _______ _______ _____ _____    ______ ____
ROOT
ATOM      1  O   UNL     1       1.888   8.714  18.086  0.00  0.00    +0.000 OA
ATOM      2  C   UNL     1       1.718   8.440  19.277  0.00  0.00    +0.000 C 
ATOM      3  N   UNL     1       2.292   7.345  19.906  0.00  0.00    +0.000 N 
ATOM      4  H   UNL     1       2.102   7.147  20.881  0.00  0.00    +0.000 HD
ENDROOT
BRANCH   2   5
ATOM      5  C   UNL     1       0.877   9.316  20.145  0.00  0.00    +0.000 A 
ATOM      6  C   UNL     1       0.318  10.509  19.667  0.00  0.00    +0.000 A 
ATOM      7  C   UNL     1      -0.430  11.324  20.513  0.00  0.00    +0.000 A 
ATOM      8  C   UNL     1      -0.691  10.936  21.835  0.00  0.00    +0.000 A 
ATOM      9  C   UNL     1      -0.126   9.741  22.316  0.00  0.00    +0.000 A 
ATOM     10  C   UNL     1       0.659   8.942  21.475  0.00  0.00    +0.000 A 
BRANCH   8  11
ATOM     11  C   UNL     1      -1.607  11.762  22.705  0.00  0.00    +0.000 C 
ATOM     12  F   UNL     1      -2.245  11.029  23.661  0.00  0.00    +0.000 F 
ATOM     13  F   UNL     1      -0.931  12.735  23.376  0.00  0.00    +0.000 F 
ATOM     14  F   UNL     1      -2.586  12.395  22.003  0.00  0.00    +0.000 F 
ENDBRANCH   8  11
ENDBRANCH   2   5
BRANCH   3  15
ATOM     15  N   UNL     1       3.098   6.435  19.193  0.00  0.00    +0.000 NA
ATOM     16  H   UNL     1       4.071   6.585  19.499  0.00  0.00    +0.000 HD
BRANCH  15  17
ATOM     17  C   UNL     1       2.718   5.026  19.429  0.00  0.00    +0.000 C 
ATOM     18  C   UNL     1       1.721   4.906  20.613  0.00  0.00    +0.000 C 
ATOM     19  C   UNL     1       1.290   3.445  20.817  0.00  0.00    +0.000 C 
ATOM     20  C   UNL     1       0.603   2.946  19.538  0.00  0.00    +0.000 C 
ATOM     21  C   UNL     1       1.577   3.023  18.352  0.00  0.00    +0.000 C 
ATOM     22  C   UNL     1       2.809   2.155  18.655  0.00  0.00    +0.000 C 
ATOM     23  C   UNL     1       3.514   2.666  19.921  0.00  0.00    +0.000 C 
ATOM     24  C   UNL     1       2.535   2.590  21.106  0.00  0.00    +0.000 C 
ATOM     25  C   UNL     1       3.948   4.129  19.709  0.00  0.00    +0.000 C 
ATOM     26  C   UNL     1       2.020   4.486  18.151  0.00  0.00    +0.000 C 
ENDBRANCH  15  17
ENDBRANCH   3  15
TORSDOF 4
ENDMDL
MODEL 6
REMARK VINA RESULT:      -8.6      5.674      7.195
REMARK  Name = 
REMARK  4 active torsions:
REMARK  status: ('A' for Active; 'I' for Inactive)
REMARK    1  A    between atoms: C_2  and  C_15
REMARK    2  A    between atoms: N_3  and  N_4
REMARK    3  A    between atoms: N_4  and  C_5
REMARK    4  A    between atoms: C_18  and  C_19
REMARK                            x       y       z     vdW  Elec       q    Type
REMARK                         _______ _______ _______ _____ _____    ______ ____
ROOT
ATOM      1  O   UNL     1       2.026   8.909  17.972  0.00  0.00    +0.000 OA
ATOM      2  C   UNL     1       1.750   8.533  19.114  0.00  0.00    +0.000 C 
ATOM      3  N   UNL     1       2.201   7.344  19.665  0.00  0.00    +0.000 N 
ATOM      4  H   UNL     1       1.925   7.067  20.600  0.00  0.00    +0.000 HD
ENDROOT
BRANCH   2   5
ATOM      5  C   UNL     1       0.905   9.380  20.008  0.00  0.00    +0.000 A 
ATOM      6  C   UNL     1       0.134  10.438  19.507  0.00  0.00    +0.000 A 
ATOM      7  C   UNL     1      -0.613  11.234  20.372  0.00  0.00    +0.000 A 
ATOM      8  C   UNL     1      -0.658  10.954  21.745  0.00  0.00    +0.000 A 
ATOM      9  C   UNL     1       0.121   9.897  22.248  0.00  0.00    +0.000 A 
ATOM     10  C   UNL     1       0.902   9.121  21.382  0.00  0.00    +0.000 A 
BRANCH   8  11
ATOM     11  C   UNL     1      -1.568  11.743  22.654  0.00  0.00    +0.000 C 
ATOM     12  F   UNL     1      -2.138  10.985  23.634  0.00  0.00    +0.000 F 
ATOM     13  F   UNL     1      -0.903  12.741  23.300  0.00  0.00    +0.000 F 
ATOM     14  F   UNL     1      -2.599  12.338  21.996  0.00  0.00    +0.000 F 
ENDBRANCH   8  11
ENDBRANCH   2   5
BRANCH   3  15
ATOM     15  N   UNL     1       2.996   6.450  18.920  0.00  0.00    +0.000 NA
ATOM     16  H   UNL     1       3.979   6.631  19.175  0.00  0.00    +0.000 HD
BRANCH  15  17
ATOM     17  C   UNL     1       2.670   5.033  19.187  0.00  0.00    +0.000 C 
ATOM     18  C   UNL     1       3.945   4.227  19.561  0.00  0.00    +0.000 C 
ATOM     19  C   UNL     1       3.589   2.768  19.887  0.00  0.00    +0.000 C 
ATOM     20  C   UNL     1       2.622   2.747  21.080  0.00  0.00    +0.000 C 
ATOM     21  C   UNL     1       1.336   3.511  20.728  0.00  0.00    +0.000 C 
ATOM     22  C   UNL     1       0.675   2.850  19.508  0.00  0.00    +0.000 C 
ATOM     23  C   UNL     1       1.631   2.891  18.306  0.00  0.00    +0.000 C 
ATOM     24  C   UNL     1       2.918   2.127  18.661  0.00  0.00    +0.000 C 
ATOM     25  C   UNL     1       1.979   4.356  17.979  0.00  0.00    +0.000 C 
ATOM     26  C   UNL     1       1.689   4.973  20.390  0.00  0.00    +0.000 C 
ENDBRANCH  15  17
ENDBRANCH   3  15
TORSDOF 4
ENDMDL
MODEL 7
REMARK VINA RESULT:      -8.6      5.645      7.101
REMARK  Name = 
REMARK  4 active torsions:
REMARK  status: ('A' for Active; 'I' for Inactive)
REMARK    1  A    between atoms: C_2  and  C_15
REMARK    2  A    between atoms: N_3  and  N_4
REMARK    3  A    between atoms: N_4  and  C_5
REMARK    4  A    between atoms: C_18  and  C_19
REMARK                            x       y       z     vdW  Elec       q    Type
REMARK                         _______ _______ _______ _____ _____    ______ ____
ROOT
ATOM      1  O   UNL     1       1.814   8.562  18.069  0.00  0.00    +0.000 OA
ATOM      2  C   UNL     1       1.699   8.343  19.278  0.00  0.00    +0.000 C 
ATOM      3  N   UNL     1       2.318   7.290  19.933  0.00  0.00    +0.000 N 
ATOM      4  H   UNL     1       2.173   7.137  20.924  0.00  0.00    +0.000 HD
ENDROOT
BRANCH   2   5
ATOM      5  C   UNL     1       0.878   9.247  20.137  0.00  0.00    +0.000 A 
ATOM      6  C   UNL     1       0.405  10.480  19.669  0.00  0.00    +0.000 A 
ATOM      7  C   UNL     1      -0.325  11.318  20.509  0.00  0.00    +0.000 A 
ATOM      8  C   UNL     1      -0.654  10.917  21.812  0.00  0.00    +0.000 A 
ATOM      9  C   UNL     1      -0.174   9.682  22.283  0.00  0.00    +0.000 A 
ATOM     10  C   UNL     1       0.593   8.858  21.450  0.00  0.00    +0.000 A 
BRANCH   8  11
ATOM     11  C   UNL     1      -1.552  11.775  22.669  0.00  0.00    +0.000 C 
ATOM     12  F   UNL     1      -2.550  12.380  21.964  0.00  0.00    +0.000 F 
ATOM     13  F   UNL     1      -2.173  11.050  23.640  0.00  0.00    +0.000 F 
ATOM     14  F   UNL     1      -0.886  12.774  23.309  0.00  0.00    +0.000 F 
ENDBRANCH   8  11
ENDBRANCH   2   5
BRANCH   3  15
ATOM     15  N   UNL     1       3.111   6.359  19.232  0.00  0.00    +0.000 NA
ATOM     16  H   UNL     1       4.073   6.444  19.594  0.00  0.00    +0.000 HD
BRANCH  15  17
ATOM     17  C   UNL     1       2.642   4.967  19.397  0.00  0.00    +0.000 C 
ATOM     18  C   UNL     1       1.993   4.437  18.090  0.00  0.00    +0.000 C 
ATOM     19  C   UNL     1       1.556   2.972  18.254  0.00  0.00    +0.000 C 
ATOM     20  C   UNL     1       2.791   2.118  18.575  0.00  0.00    +0.000 C 
ATOM     21  C   UNL     1       3.437   2.600  19.884  0.00  0.00    +0.000 C 
ATOM     22  C   UNL     1       2.413   2.487  21.024  0.00  0.00    +0.000 C 
ATOM     23  C   UNL     1       1.186   3.360  20.717  0.00  0.00    +0.000 C 
ATOM     24  C   UNL     1       0.542   2.876  19.406  0.00  0.00    +0.000 C 
ATOM     25  C   UNL     1       1.629   4.826  20.559  0.00  0.00    +0.000 C 
ATOM     26  C   UNL     1       3.868   4.072  19.727  0.00  0.00    +0.000 C 
ENDBRANCH  15  17
ENDBRANCH   3  15
TORSDOF 4
ENDMDL
MODEL 8
REMARK VINA RESULT:      -8.6      5.694      7.097
REMARK  Name = 
REMARK  4 active torsions:
REMARK  status: ('A' for Active; 'I' for Inactive)
REMARK    1  A    between atoms: C_2  and  C_15
REMARK    2  A    between atoms: N_3  and  N_4
REMARK    3  A    between atoms: N_4  and  C_5
REMARK    4  A    between atoms: C_18  and  C_19
REMARK                            x       y       z     vdW  Elec       q    Type
REMARK                         _______ _______ _______ _____ _____    ______ ____
ROOT
ATOM      1  O   UNL     1       1.862   8.695  18.197  0.00  0.00    +0.000 OA
ATOM      2  C   UNL     1       1.694   8.415  19.386  0.00  0.00    +0.000 C 
ATOM      3  N   UNL     1       2.285   7.330  20.015  0.00  0.00    +0.000 N 
ATOM      4  H   UNL     1       2.096   7.127  20.989  0.00  0.00    +0.000 HD
ENDROOT
BRANCH   2   5
ATOM      5  C   UNL     1       0.833   9.274  20.253  0.00  0.00    +0.000 A 
ATOM      6  C   UNL     1       0.782   9.101  21.643  0.00  0.00    +0.000 A 
ATOM      7  C   UNL     1      -0.060   9.893  22.420  0.00  0.00    +0.000 A 
ATOM      8  C   UNL     1      -0.821  10.916  21.836  0.00  0.00    +0.000 A 
ATOM      9  C   UNL     1      -0.774  11.086  20.441  0.00  0.00    +0.000 A 
ATOM     10  C   UNL     1       0.044  10.262  19.657  0.00  0.00    +0.000 A 
BRANCH   8  11
ATOM     11  C   UNL     1      -1.633  11.850  22.701  0.00  0.00    +0.000 C 
ATOM     12  F   UNL     1      -0.871  12.760  23.372  0.00  0.00    +0.000 F 
ATOM     13  F   UNL     1      -2.520  12.580  21.969  0.00  0.00    +0.000 F 
ATOM     14  F   UNL     1      -2.364  11.203  23.648  0.00  0.00    +0.000 F 
ENDBRANCH   8  11
ENDBRANCH   2   5
BRANCH   3  15
ATOM     15  N   UNL     1       3.110   6.436  19.303  0.00  0.00    +0.000 NA
ATOM     16  H   UNL     1       4.073   6.570  19.647  0.00  0.00    +0.000 HD
BRANCH  15  17
ATOM     17  C   UNL     1       2.714   5.023  19.482  0.00  0.00    +0.000 C 
ATOM     18  C   UNL     1       1.699   4.871  20.648  0.00  0.00    +0.000 C 
ATOM     19  C   UNL     1       1.252   3.407  20.792  0.00  0.00    +0.000 C 
ATOM     20  C   UNL     1       0.577   2.962  19.487  0.00  0.00    +0.000 C 
ATOM     21  C   UNL     1       1.569   3.072  18.318  0.00  0.00    +0.000 C 
ATOM     22  C   UNL     1       2.789   2.182  18.606  0.00  0.00    +0.000 C 
ATOM     23  C   UNL     1       3.480   2.640  19.899  0.00  0.00    +0.000 C 
ATOM     24  C   UNL     1       2.485   2.530  21.067  0.00  0.00    +0.000 C 
ATOM     25  C   UNL     1       3.931   4.104  19.747  0.00  0.00    +0.000 C 
ATOM     26  C   UNL     1       2.028   4.538  18.176  0.00  0.00    +0.000 C 
ENDBRANCH  15  17
ENDBRANCH   3  15
TORSDOF 4
ENDMDL
MODEL 9
REMARK VINA RESULT:      -8.6      5.686      7.153
REMARK  Name = 
REMARK  4 active torsions:
REMARK  status: ('A' for Active; 'I' for Inactive)
REMARK    1  A    between atoms: C_2  and  C_15
REMARK    2  A    between atoms: N_3  and  N_4
REMARK    3  A    between atoms: N_4  and  C_5
REMARK    4  A    between atoms: C_18  and  C_19
REMARK                            x       y       z     vdW  Elec       q    Type
REMARK                         _______ _______ _______ _____ _____    ______ ____
ROOT
ATOM      1  O   UNL     1       1.972   8.890  18.062  0.00  0.00    +0.000 OA
ATOM      2  C   UNL     1       1.715   8.518  19.210  0.00  0.00    +0.000 C 
ATOM      3  N   UNL     1       2.200   7.345  19.768  0.00  0.00    +0.000 N 
ATOM      4  H   UNL     1       1.940   7.070  20.708  0.00  0.00    +0.000 HD
ENDROOT
BRANCH   2   5
ATOM      5  C   UNL     1       0.857   9.352  20.104  0.00  0.00    +0.000 A 
ATOM      6  C   UNL     1       0.648   9.016  21.448  0.00  0.00    +0.000 A 
ATOM      7  C   UNL     1      -0.190   9.793  22.245  0.00  0.00    +0.000 A 
ATOM      8  C   UNL     1      -0.784  10.957  21.738  0.00  0.00    +0.000 A 
ATOM      9  C   UNL     1      -0.578  11.291  20.388  0.00  0.00    +0.000 A 
ATOM     10  C   UNL     1       0.233  10.487  19.577  0.00  0.00    +0.000 A 
BRANCH   8  11
ATOM     11  C   UNL     1      -1.586  11.860  22.643  0.00  0.00    +0.000 C 
ATOM     12  F   UNL     1      -2.559  12.552  21.986  0.00  0.00    +0.000 F 
ATOM     13  F   UNL     1      -2.226  11.162  23.621  0.00  0.00    +0.000 F 
ATOM     14  F   UNL     1      -0.827  12.794  23.278  0.00  0.00    +0.000 F 
ENDBRANCH   8  11
ENDBRANCH   2   5
BRANCH   3  15
ATOM     15  N   UNL     1       3.011   6.465  19.024  0.00  0.00    +0.000 NA
ATOM     16  H   UNL     1       3.988   6.637  19.306  0.00  0.00    +0.000 HD
BRANCH  15  17
ATOM     17  C   UNL     1       2.675   5.044  19.253  0.00  0.00    +0.000 C 
ATOM     18  C   UNL     1       3.939   4.224  19.632  0.00  0.00    +0.000 C 
ATOM     19  C   UNL     1       3.571   2.759  19.919  0.00  0.00    +0.000 C 
ATOM     20  C   UNL     1       2.581   2.715  21.092  0.00  0.00    +0.000 C 
ATOM     21  C   UNL     1       1.305   3.493  20.733  0.00  0.00    +0.000 C 
ATOM     22  C   UNL     1       0.665   2.863  19.485  0.00  0.00    +0.000 C 
ATOM     23  C   UNL     1       1.644   2.927  18.303  0.00  0.00    +0.000 C 
ATOM     24  C   UNL     1       2.921   2.150  18.666  0.00  0.00    +0.000 C 
ATOM     25  C   UNL     1       2.004   4.397  18.017  0.00  0.00    +0.000 C 
ATOM     26  C   UNL     1       1.670   4.961  20.435  0.00  0.00    +0.000 C 
ENDBRANCH  15  17
ENDBRANCH   3  15
TORSDOF 4
ENDMDL
