MODEL 1
REMARK VINA RESULT:      -7.2      0.000      0.000
REMARK  Name = 
REMARK  14 active torsions:
REMARK  status: ('A' for Active; 'I' for Inactive)
REMARK    1  A    between atoms: C_1  and  C_2
REMARK    2  A    between atoms: C_2  and  O_3
REMARK    3  A    between atoms: O_3  and  C_4
REMARK    4  A    between atoms: C_7  and  N_8
REMARK    5  A    between atoms: C_9  and  C_11
REMARK    6  A    between atoms: C_11  and  C_12
REMARK    7  A    between atoms: C_12  and  C_13
REMARK    8  A    between atoms: N_15  and  C_16
REMARK    9  A    between atoms: C_18  and  O_19
REMARK   10  A    between atoms: O_19  and  C_20
REMARK   11  A    between atoms: C_21  and  N_22
REMARK   12  A    between atoms: C_23  and  C_25
REMARK   13  A    between atoms: C_31  and  O_32
REMARK   14  A    between atoms: O_32  and  C_33
REMARK                            x       y       z     vdW  Elec       q    Type
REMARK                         _______ _______ _______ _____ _____    ______ ____
ROOT
ATOM      1  C   UNL     1       1.012   9.163  22.332  0.00  0.00    +0.000 C 
ATOM      2  O   UNL     1       2.158   9.556  22.532  0.00  0.00    +0.000 OA
ATOM      3  N   UNL     1       0.618   8.345  21.286  0.00  0.00    +0.000 N 
ATOM      4  H   UNL     1      -0.358   8.345  21.020  0.00  0.00    +0.000 HD
ENDROOT
BRANCH   3   5
ATOM      5  C   UNL     1       1.535   7.804  20.355  0.00  0.00    +0.000 A 
ATOM      6  C   UNL     1       2.051   6.523  20.589  0.00  0.00    +0.000 A 
ATOM      7  C   UNL     1       2.856   5.862  19.646  0.00  0.00    +0.000 A 
ATOM      8  C   UNL     1       3.202   6.516  18.455  0.00  0.00    +0.000 A 
ATOM      9  C   UNL     1       2.732   7.829  18.253  0.00  0.00    +0.000 A 
ATOM     10  C   UNL     1       1.879   8.466  19.173  0.00  0.00    +0.000 A 
BRANCH   8  11
ATOM     11  N   UNL     1       3.987   5.977  17.402  0.00  0.00    +0.000 N 
ATOM     12  C   UNL     1       5.286   6.286  17.045  0.00  0.00    +0.000 C 
ATOM     13  O   UNL     1       6.028   7.077  17.612  0.00  0.00    +0.000 OA
ATOM     14  H   UNL     1       3.623   5.147  16.943  0.00  0.00    +0.000 HD
BRANCH  12  15
ATOM     15  C   UNL     1       5.777   5.468  15.944  0.00  0.00    +0.000 A 
ATOM     16  C   UNL     1       5.175   4.433  15.245  0.00  0.00    +0.000 A 
ATOM     17  C   UNL     1       6.079   4.036  14.232  0.00  0.00    +0.000 A 
ATOM     18  C   UNL     1       7.184   4.841  14.372  0.00  0.00    +0.000 A 
ATOM     19  O   UNL     1       7.021   5.709  15.406  0.00  0.00    +0.000 OA
ENDBRANCH  12  15
ENDBRANCH   8  11
BRANCH   7  20
ATOM     20  O   UNL     1       3.402   4.641  19.935  0.00  0.00    +0.000 OA
ATOM     21  C   UNL     1       2.562   3.755  20.675  0.00  0.00    +0.000 C 
ENDBRANCH   7  20
BRANCH  10  22
ATOM     22  O   UNL     1       1.451   9.705  18.773  0.00  0.00    +0.000 OA
ATOM     23  C   UNL     1       0.272   9.758  17.976  0.00  0.00    +0.000 C 
ENDBRANCH  10  22
ENDBRANCH   3   5
BRANCH   1  24
ATOM     24  C   UNL     1      -0.106   9.574  23.257  0.00  0.00    +0.000 C 
BRANCH  24  25
ATOM     25  C   UNL     1      -1.086  10.479  22.528  0.00  0.00    +0.000 C 
BRANCH  25  27
ATOM     26  N   UNL     1       0.243  11.829  21.007  0.00  0.00    +0.000 N 
ATOM     27  C   UNL     1      -0.414  11.798  22.223  0.00  0.00    +0.000 C 
ATOM     28  O   UNL     1      -0.527  12.719  23.025  0.00  0.00    +0.000 OA
ATOM     29  H   UNL     1       0.218  10.990  20.441  0.00  0.00    +0.000 HD
BRANCH  26  33
ATOM     30  C   UNL     1       2.400  15.036  19.284  0.00  0.00    +0.000 A 
ATOM     31  C   UNL     1       2.487  14.798  20.653  0.00  0.00    +0.000 A 
ATOM     32  C   UNL     1       1.783  13.748  21.246  0.00  0.00    +0.000 A 
ATOM     33  C   UNL     1       0.966  12.919  20.474  0.00  0.00    +0.000 A 
ATOM     34  C   UNL     1       0.858  13.178  19.100  0.00  0.00    +0.000 A 
ATOM     35  C   UNL     1       1.566  14.236  18.507  0.00  0.00    +0.000 A 
BRANCH  30  36
ATOM     36  O   UNL     1       3.159  16.080  18.841  0.00  0.00    +0.000 OA
BRANCH  36  38
ATOM     37  C   UNL     1       1.560  17.664  18.080  0.00  0.00    +0.000 C 
ATOM     38  C   UNL     1       2.705  16.755  17.670  0.00  0.00    +0.000 C 
ENDBRANCH  36  38
ENDBRANCH  30  36
ENDBRANCH  26  33
ENDBRANCH  25  27
ENDBRANCH  24  25
ENDBRANCH   1  24
TORSDOF 11
ENDMDL
MODEL 2
REMARK VINA RESULT:      -6.7      2.002      9.155
REMARK  Name = 
REMARK  14 active torsions:
REMARK  status: ('A' for Active; 'I' for Inactive)
REMARK    1  A    between atoms: C_1  and  C_2
REMARK    2  A    between atoms: C_2  and  O_3
REMARK    3  A    between atoms: O_3  and  C_4
REMARK    4  A    between atoms: C_7  and  N_8
REMARK    5  A    between atoms: C_9  and  C_11
REMARK    6  A    between atoms: C_11  and  C_12
REMARK    7  A    between atoms: C_12  and  C_13
REMARK    8  A    between atoms: N_15  and  C_16
REMARK    9  A    between atoms: C_18  and  O_19
REMARK   10  A    between atoms: O_19  and  C_20
REMARK   11  A    between atoms: C_21  and  N_22
REMARK   12  A    between atoms: C_23  and  C_25
REMARK   13  A    between atoms: C_31  and  O_32
REMARK   14  A    between atoms: O_32  and  C_33
REMARK                            x       y       z     vdW  Elec       q    Type
REMARK                         _______ _______ _______ _____ _____    ______ ____
ROOT
ATOM      1  C   UNL     1       1.462   4.314  20.515  0.00  0.00    +0.000 C 
ATOM      2  O   UNL     1       0.291   4.405  20.158  0.00  0.00    +0.000 OA
ATOM      3  N   UNL     1       2.347   5.374  20.633  0.00  0.00    +0.000 N 
ATOM      4  H   UNL     1       3.339   5.175  20.612  0.00  0.00    +0.000 HD
ENDROOT
BRANCH   3   5
ATOM      5  C   UNL     1       1.959   6.717  20.419  0.00  0.00    +0.000 A 
ATOM      6  C   UNL     1       1.522   7.473  21.515  0.00  0.00    +0.000 A 
ATOM      7  C   UNL     1       1.251   8.847  21.410  0.00  0.00    +0.000 A 
ATOM      8  C   UNL     1       1.371   9.481  20.164  0.00  0.00    +0.000 A 
ATOM      9  C   UNL     1       1.751   8.703  19.053  0.00  0.00    +0.000 A 
ATOM     10  C   UNL     1       2.075   7.339  19.173  0.00  0.00    +0.000 A 
BRANCH   8  11
ATOM     11  N   UNL     1       1.154  10.859  19.903  0.00  0.00    +0.000 N 
ATOM     12  C   UNL     1       0.021  11.478  19.409  0.00  0.00    +0.000 C 
ATOM     13  O   UNL     1      -1.043  10.939  19.135  0.00  0.00    +0.000 OA
ATOM     14  H   UNL     1       1.847  11.505  20.267  0.00  0.00    +0.000 HD
BRANCH  12  15
ATOM     15  C   UNL     1       0.156  12.927  19.340  0.00  0.00    +0.000 A 
ATOM     16  C   UNL     1      -0.513  13.933  20.022  0.00  0.00    +0.000 A 
ATOM     17  C   UNL     1       0.062  15.160  19.615  0.00  0.00    +0.000 A 
ATOM     18  C   UNL     1       1.039  14.840  18.704  0.00  0.00    +0.000 A 
ATOM     19  O   UNL     1       1.107  13.494  18.522  0.00  0.00    +0.000 OA
ENDBRANCH  12  15
ENDBRANCH   8  11
BRANCH   7  20
ATOM     20  O   UNL     1       0.758   9.541  22.481  0.00  0.00    +0.000 OA
ATOM     21  C   UNL     1      -0.642   9.393  22.714  0.00  0.00    +0.000 C 
ENDBRANCH   7  20
BRANCH  10  22
ATOM     22  O   UNL     1       2.507   6.763  18.007  0.00  0.00    +0.000 OA
ATOM     23  C   UNL     1       3.698   7.286  17.426  0.00  0.00    +0.000 C 
ENDBRANCH  10  22
ENDBRANCH   3   5
BRANCH   1  24
ATOM     24  C   UNL     1       2.052   2.970  20.859  0.00  0.00    +0.000 C 
BRANCH  24  25
ATOM     25  C   UNL     1       3.563   3.076  20.989  0.00  0.00    +0.000 C 
BRANCH  25  27
ATOM     26  N   UNL     1       4.718   4.080  19.103  0.00  0.00    +0.000 N 
ATOM     27  C   UNL     1       4.194   2.913  19.625  0.00  0.00    +0.000 C 
ATOM     28  O   UNL     1       4.227   1.797  19.118  0.00  0.00    +0.000 OA
ATOM     29  H   UNL     1       4.638   4.920  19.663  0.00  0.00    +0.000 HD
BRANCH  26  33
ATOM     30  C   UNL     1       6.702   4.601  15.402  0.00  0.00    +0.000 A 
ATOM     31  C   UNL     1       5.380   4.169  15.425  0.00  0.00    +0.000 A 
ATOM     32  C   UNL     1       4.704   3.987  16.633  0.00  0.00    +0.000 A 
ATOM     33  C   UNL     1       5.349   4.227  17.848  0.00  0.00    +0.000 A 
ATOM     34  C   UNL     1       6.691   4.635  17.823  0.00  0.00    +0.000 A 
ATOM     35  C   UNL     1       7.368   4.816  16.606  0.00  0.00    +0.000 A 
BRANCH  30  36
ATOM     36  O   UNL     1       7.227   4.757  14.152  0.00  0.00    +0.000 OA
BRANCH  36  38
ATOM     37  C   UNL     1       7.181   4.435  11.798  0.00  0.00    +0.000 C 
ATOM     38  C   UNL     1       6.762   3.865  13.141  0.00  0.00    +0.000 C 
ENDBRANCH  36  38
ENDBRANCH  30  36
ENDBRANCH  26  33
ENDBRANCH  25  27
ENDBRANCH  24  25
ENDBRANCH   1  24
TORSDOF 11
ENDMDL
MODEL 3
REMARK VINA RESULT:      -6.7      2.518      3.541
REMARK  Name = 
REMARK  14 active torsions:
REMARK  status: ('A' for Active; 'I' for Inactive)
REMARK    1  A    between atoms: C_1  and  C_2
REMARK    2  A    between atoms: C_2  and  O_3
REMARK    3  A    between atoms: O_3  and  C_4
REMARK    4  A    between atoms: C_7  and  N_8
REMARK    5  A    between atoms: C_9  and  C_11
REMARK    6  A    between atoms: C_11  and  C_12
REMARK    7  A    between atoms: C_12  and  C_13
REMARK    8  A    between atoms: N_15  and  C_16
REMARK    9  A    between atoms: C_18  and  O_19
REMARK   10  A    between atoms: O_19  and  C_20
REMARK   11  A    between atoms: C_21  and  N_22
REMARK   12  A    between atoms: C_23  and  C_25
REMARK   13  A    between atoms: C_31  and  O_32
REMARK   14  A    between atoms: O_32  and  C_33
REMARK                            x       y       z     vdW  Elec       q    Type
REMARK                         _______ _______ _______ _____ _____    ______ ____
ROOT
ATOM      1  C   UNL     1       0.812   9.163  22.365  0.00  0.00    +0.000 C 
ATOM      2  O   UNL     1       1.932   9.655  22.478  0.00  0.00    +0.000 OA
ATOM      3  N   UNL     1       0.445   8.218  21.421  0.00  0.00    +0.000 N 
ATOM      4  H   UNL     1      -0.537   8.121  21.196  0.00  0.00    +0.000 HD
ENDROOT
BRANCH   3   5
ATOM      5  C   UNL     1       1.367   7.654  20.509  0.00  0.00    +0.000 A 
ATOM      6  C   UNL     1       1.704   6.300  20.647  0.00  0.00    +0.000 A 
ATOM      7  C   UNL     1       2.503   5.633  19.704  0.00  0.00    +0.000 A 
ATOM      8  C   UNL     1       3.026   6.345  18.615  0.00  0.00    +0.000 A 
ATOM      9  C   UNL     1       2.735   7.720  18.516  0.00  0.00    +0.000 A 
ATOM     10  C   UNL     1       1.889   8.372  19.431  0.00  0.00    +0.000 A 
BRANCH   8  11
ATOM     11  N   UNL     1       3.828   5.810  17.574  0.00  0.00    +0.000 N 
ATOM     12  C   UNL     1       5.059   6.244  17.119  0.00  0.00    +0.000 C 
ATOM     13  O   UNL     1       5.716   7.173  17.571  0.00  0.00    +0.000 OA
ATOM     14  H   UNL     1       3.556   4.901  17.212  0.00  0.00    +0.000 HD
BRANCH  12  15
ATOM     15  C   UNL     1       5.605   5.393  16.071  0.00  0.00    +0.000 A 
ATOM     16  C   UNL     1       5.341   4.071  15.748  0.00  0.00    +0.000 A 
ATOM     17  C   UNL     1       6.105   3.765  14.597  0.00  0.00    +0.000 A 
ATOM     18  C   UNL     1       6.799   4.909  14.286  0.00  0.00    +0.000 A 
ATOM     19  O   UNL     1       6.513   5.903  15.170  0.00  0.00    +0.000 OA
ENDBRANCH  12  15
ENDBRANCH   8  11
BRANCH   7  20
ATOM     20  O   UNL     1       2.871   4.330  19.905  0.00  0.00    +0.000 OA
ATOM     21  C   UNL     1       2.560   3.798  21.193  0.00  0.00    +0.000 C 
ENDBRANCH   7  20
BRANCH  10  22
ATOM     22  O   UNL     1       1.649   9.688  19.130  0.00  0.00    +0.000 OA
ATOM     23  C   UNL     1       1.969  10.122  17.812  0.00  0.00    +0.000 C 
ENDBRANCH  10  22
ENDBRANCH   3   5
BRANCH   1  24
ATOM     24  C   UNL     1      -0.301   9.583  23.291  0.00  0.00    +0.000 C 
BRANCH  24  25
ATOM     25  C   UNL     1      -0.553  11.077  23.167  0.00  0.00    +0.000 C 
BRANCH  25  27
ATOM     26  N   UNL     1      -0.720  10.752  20.765  0.00  0.00    +0.000 N 
ATOM     27  C   UNL     1      -1.286  11.354  21.874  0.00  0.00    +0.000 C 
ATOM     28  O   UNL     1      -2.308  12.031  21.906  0.00  0.00    +0.000 OA
ATOM     29  H   UNL     1       0.113  10.195  20.910  0.00  0.00    +0.000 HD
BRANCH  26  33
ATOM     30  C   UNL     1      -2.122  11.181  16.796  0.00  0.00    +0.000 A 
ATOM     31  C   UNL     1      -2.101   9.923  17.392  0.00  0.00    +0.000 A 
ATOM     32  C   UNL     1      -1.641   9.755  18.699  0.00  0.00    +0.000 A 
ATOM     33  C   UNL     1      -1.181  10.850  19.434  0.00  0.00    +0.000 A 
ATOM     34  C   UNL     1      -1.177  12.112  18.822  0.00  0.00    +0.000 A 
ATOM     35  C   UNL     1      -1.639  12.277  17.506  0.00  0.00    +0.000 A 
BRANCH  30  36
ATOM     36  O   UNL     1      -2.619  11.198  15.525  0.00  0.00    +0.000 OA
BRANCH  36  38
ATOM     37  C   UNL     1      -3.826   9.897  13.946  0.00  0.00    +0.000 C 
ATOM     38  C   UNL     1      -3.873  10.553  15.314  0.00  0.00    +0.000 C 
ENDBRANCH  36  38
ENDBRANCH  30  36
ENDBRANCH  26  33
ENDBRANCH  25  27
ENDBRANCH  24  25
ENDBRANCH   1  24
TORSDOF 11
ENDMDL
MODEL 4
REMARK VINA RESULT:      -6.6      1.923      9.308
REMARK  Name = 
REMARK  14 active torsions:
REMARK  status: ('A' for Active; 'I' for Inactive)
REMARK    1  A    between atoms: C_1  and  C_2
REMARK    2  A    between atoms: C_2  and  O_3
REMARK    3  A    between atoms: O_3  and  C_4
REMARK    4  A    between atoms: C_7  and  N_8
REMARK    5  A    between atoms: C_9  and  C_11
REMARK    6  A    between atoms: C_11  and  C_12
REMARK    7  A    between atoms: C_12  and  C_13
REMARK    8  A    between atoms: N_15  and  C_16
REMARK    9  A    between atoms: C_18  and  O_19
REMARK   10  A    between atoms: O_19  and  C_20
REMARK   11  A    between atoms: C_21  and  N_22
REMARK   12  A    between atoms: C_23  and  C_25
REMARK   13  A    between atoms: C_31  and  O_32
REMARK   14  A    between atoms: O_32  and  C_33
REMARK                            x       y       z     vdW  Elec       q    Type
REMARK                         _______ _______ _______ _____ _____    ______ ____
ROOT
ATOM      1  C   UNL     1       1.769   4.407  19.958  0.00  0.00    +0.000 C 
ATOM      2  O   UNL     1       0.963   4.408  19.032  0.00  0.00    +0.000 OA
ATOM      3  N   UNL     1       2.265   5.537  20.588  0.00  0.00    +0.000 N 
ATOM      4  H   UNL     1       3.138   5.459  21.094  0.00  0.00    +0.000 HD
ENDROOT
BRANCH   3   5
ATOM      5  C   UNL     1       1.827   6.842  20.266  0.00  0.00    +0.000 A 
ATOM      6  C   UNL     1       1.091   7.557  21.221  0.00  0.00    +0.000 A 
ATOM      7  C   UNL     1       0.739   8.904  21.032  0.00  0.00    +0.000 A 
ATOM      8  C   UNL     1       1.086   9.547  19.835  0.00  0.00    +0.000 A 
ATOM      9  C   UNL     1       1.772   8.805  18.853  0.00  0.00    +0.000 A 
ATOM     10  C   UNL     1       2.172   7.473  19.068  0.00  0.00    +0.000 A 
BRANCH   8  11
ATOM     11  N   UNL     1       0.820  10.902  19.506  0.00  0.00    +0.000 N 
ATOM     12  C   UNL     1       1.100  12.041  20.237  0.00  0.00    +0.000 C 
ATOM     13  O   UNL     1       1.678  12.090  21.315  0.00  0.00    +0.000 OA
ATOM     14  H   UNL     1       0.534  11.090  18.550  0.00  0.00    +0.000 HD
BRANCH  12  15
ATOM     15  C   UNL     1       0.735  13.264  19.536  0.00  0.00    +0.000 A 
ATOM     16  C   UNL     1      -0.493  13.712  19.074  0.00  0.00    +0.000 A 
ATOM     17  C   UNL     1      -0.283  14.998  18.522  0.00  0.00    +0.000 A 
ATOM     18  C   UNL     1       1.057  15.262  18.669  0.00  0.00    +0.000 A 
ATOM     19  O   UNL     1       1.690  14.222  19.275  0.00  0.00    +0.000 OA
ENDBRANCH  12  15
ENDBRANCH   8  11
BRANCH   7  20
ATOM     20  O   UNL     1      -0.041   9.552  21.951  0.00  0.00    +0.000 OA
ATOM     21  C   UNL     1       0.350   9.382  23.313  0.00  0.00    +0.000 C 
ENDBRANCH   7  20
BRANCH  10  22
ATOM     22  O   UNL     1       2.904   6.937  18.041  0.00  0.00    +0.000 OA
ATOM     23  C   UNL     1       4.276   7.309  17.958  0.00  0.00    +0.000 C 
ENDBRANCH  10  22
ENDBRANCH   3   5
BRANCH   1  24
ATOM     24  C   UNL     1       2.309   3.106  20.498  0.00  0.00    +0.000 C 
BRANCH  24  25
ATOM     25  C   UNL     1       3.820   3.059  20.341  0.00  0.00    +0.000 C 
BRANCH  25  27
ATOM     26  N   UNL     1       5.061   3.963  18.459  0.00  0.00    +0.000 N 
ATOM     27  C   UNL     1       4.167   2.993  18.871  0.00  0.00    +0.000 C 
ATOM     28  O   UNL     1       3.681   2.098  18.188  0.00  0.00    +0.000 OA
ATOM     29  H   UNL     1       5.398   4.616  19.156  0.00  0.00    +0.000 HD
BRANCH  26  33
ATOM     30  C   UNL     1       6.620   4.600  14.577  0.00  0.00    +0.000 A 
ATOM     31  C   UNL     1       5.304   4.175  14.735  0.00  0.00    +0.000 A 
ATOM     32  C   UNL     1       4.767   3.955  16.004  0.00  0.00    +0.000 A 
ATOM     33  C   UNL     1       5.548   4.149  17.146  0.00  0.00    +0.000 A 
ATOM     34  C   UNL     1       6.882   4.551  16.984  0.00  0.00    +0.000 A 
ATOM     35  C   UNL     1       7.419   4.770  15.705  0.00  0.00    +0.000 A 
BRANCH  30  36
ATOM     36  O   UNL     1       7.002   4.796  13.281  0.00  0.00    +0.000 OA
BRANCH  36  38
ATOM     37  C   UNL     1       7.190   2.995  11.743  0.00  0.00    +0.000 C 
ATOM     38  C   UNL     1       6.278   4.083  12.281  0.00  0.00    +0.000 C 
ENDBRANCH  36  38
ENDBRANCH  30  36
ENDBRANCH  26  33
ENDBRANCH  25  27
ENDBRANCH  24  25
ENDBRANCH   1  24
TORSDOF 11
ENDMDL
MODEL 5
REMARK VINA RESULT:      -6.6      1.841      9.004
REMARK  Name = 
REMARK  14 active torsions:
REMARK  status: ('A' for Active; 'I' for Inactive)
REMARK    1  A    between atoms: C_1  and  C_2
REMARK    2  A    between atoms: C_2  and  O_3
REMARK    3  A    between atoms: O_3  and  C_4
REMARK    4  A    between atoms: C_7  and  N_8
REMARK    5  A    between atoms: C_9  and  C_11
REMARK    6  A    between atoms: C_11  and  C_12
REMARK    7  A    between atoms: C_12  and  C_13
REMARK    8  A    between atoms: N_15  and  C_16
REMARK    9  A    between atoms: C_18  and  O_19
REMARK   10  A    between atoms: O_19  and  C_20
REMARK   11  A    between atoms: C_21  and  N_22
REMARK   12  A    between atoms: C_23  and  C_25
REMARK   13  A    between atoms: C_31  and  O_32
REMARK   14  A    between atoms: O_32  and  C_33
REMARK                            x       y       z     vdW  Elec       q    Type
REMARK                         _______ _______ _______ _____ _____    ______ ____
ROOT
ATOM      1  C   UNL     1       1.575   5.072  20.740  0.00  0.00    +0.000 C 
ATOM      2  O   UNL     1       0.379   5.051  20.463  0.00  0.00    +0.000 OA
ATOM      3  N   UNL     1       2.363   6.210  20.797  0.00  0.00    +0.000 N 
ATOM      4  H   UNL     1       3.366   6.104  20.709  0.00  0.00    +0.000 HD
ENDROOT
BRANCH   3   5
ATOM      5  C   UNL     1       1.839   7.509  20.609  0.00  0.00    +0.000 A 
ATOM      6  C   UNL     1       1.441   8.242  21.735  0.00  0.00    +0.000 A 
ATOM      7  C   UNL     1       1.040   9.585  21.645  0.00  0.00    +0.000 A 
ATOM      8  C   UNL     1       0.985  10.206  20.388  0.00  0.00    +0.000 A 
ATOM      9  C   UNL     1       1.326   9.445  19.253  0.00  0.00    +0.000 A 
ATOM     10  C   UNL     1       1.781   8.118  19.352  0.00  0.00    +0.000 A 
BRANCH   8  11
ATOM     11  N   UNL     1       0.622  11.555  20.137  0.00  0.00    +0.000 N 
ATOM     12  C   UNL     1       1.258  12.489  19.341  0.00  0.00    +0.000 C 
ATOM     13  O   UNL     1       2.258  12.305  18.660  0.00  0.00    +0.000 OA
ATOM     14  H   UNL     1      -0.303  11.841  20.444  0.00  0.00    +0.000 HD
BRANCH  12  15
ATOM     15  C   UNL     1       0.543  13.757  19.279  0.00  0.00    +0.000 A 
ATOM     16  C   UNL     1      -0.750  14.087  19.655  0.00  0.00    +0.000 A 
ATOM     17  C   UNL     1      -0.902  15.477  19.435  0.00  0.00    +0.000 A 
ATOM     18  C   UNL     1       0.298  15.917  18.932  0.00  0.00    +0.000 A 
ATOM     19  O   UNL     1       1.182  14.889  18.825  0.00  0.00    +0.000 OA
ENDBRANCH  12  15
ENDBRANCH   8  11
BRANCH   7  20
ATOM     20  O   UNL     1       0.590  10.251  22.753  0.00  0.00    +0.000 OA
ATOM     21  C   UNL     1      -0.761   9.978  23.123  0.00  0.00    +0.000 C 
ENDBRANCH   7  20
BRANCH  10  22
ATOM     22  O   UNL     1       2.151   7.562  18.155  0.00  0.00    +0.000 OA
ATOM     23  C   UNL     1       3.135   8.255  17.394  0.00  0.00    +0.000 C 
ENDBRANCH  10  22
ENDBRANCH   3   5
BRANCH   1  24
ATOM     24  C   UNL     1       2.310   3.790  21.043  0.00  0.00    +0.000 C 
BRANCH  24  25
ATOM     25  C   UNL     1       2.018   2.750  19.973  0.00  0.00    +0.000 C 
BRANCH  25  27
ATOM     26  N   UNL     1       3.880   3.608  18.669  0.00  0.00    +0.000 N 
ATOM     27  C   UNL     1       2.547   3.241  18.644  0.00  0.00    +0.000 C 
ATOM     28  O   UNL     1       1.799   3.242  17.673  0.00  0.00    +0.000 OA
ATOM     29  H   UNL     1       4.373   3.519  19.549  0.00  0.00    +0.000 HD
BRANCH  26  33
ATOM     30  C   UNL     1       6.107   5.252  15.468  0.00  0.00    +0.000 A 
ATOM     31  C   UNL     1       5.549   3.983  15.346  0.00  0.00    +0.000 A 
ATOM     32  C   UNL     1       4.813   3.417  16.388  0.00  0.00    +0.000 A 
ATOM     33  C   UNL     1       4.629   4.114  17.584  0.00  0.00    +0.000 A 
ATOM     34  C   UNL     1       5.214   5.382  17.716  0.00  0.00    +0.000 A 
ATOM     35  C   UNL     1       5.956   5.948  16.666  0.00  0.00    +0.000 A 
BRANCH  30  36
ATOM     36  O   UNL     1       6.779   5.687  14.363  0.00  0.00    +0.000 OA
BRANCH  36  38
ATOM     37  C   UNL     1       7.264   4.769  12.226  0.00  0.00    +0.000 C 
ATOM     38  C   UNL     1       7.615   4.738  13.703  0.00  0.00    +0.000 C 
ENDBRANCH  36  38
ENDBRANCH  30  36
ENDBRANCH  26  33
ENDBRANCH  25  27
ENDBRANCH  24  25
ENDBRANCH   1  24
TORSDOF 11
ENDMDL
MODEL 6
REMARK VINA RESULT:      -6.6      1.356      1.578
REMARK  Name = 
REMARK  14 active torsions:
REMARK  status: ('A' for Active; 'I' for Inactive)
REMARK    1  A    between atoms: C_1  and  C_2
REMARK    2  A    between atoms: C_2  and  O_3
REMARK    3  A    between atoms: O_3  and  C_4
REMARK    4  A    between atoms: C_7  and  N_8
REMARK    5  A    between atoms: C_9  and  C_11
REMARK    6  A    between atoms: C_11  and  C_12
REMARK    7  A    between atoms: C_12  and  C_13
REMARK    8  A    between atoms: N_15  and  C_16
REMARK    9  A    between atoms: C_18  and  O_19
REMARK   10  A    between atoms: O_19  and  C_20
REMARK   11  A    between atoms: C_21  and  N_22
REMARK   12  A    between atoms: C_23  and  C_25
REMARK   13  A    between atoms: C_31  and  O_32
REMARK   14  A    between atoms: O_32  and  C_33
REMARK                            x       y       z     vdW  Elec       q    Type
REMARK                         _______ _______ _______ _____ _____    ______ ____
ROOT
ATOM      1  C   UNL     1       0.743  10.134  21.597  0.00  0.00    +0.000 C 
ATOM      2  O   UNL     1       1.869  10.609  21.717  0.00  0.00    +0.000 OA
ATOM      3  N   UNL     1       0.392   9.120  20.721  0.00  0.00    +0.000 N 
ATOM      4  H   UNL     1      -0.582   9.025  20.463  0.00  0.00    +0.000 HD
ENDROOT
BRANCH   3   5
ATOM      5  C   UNL     1       1.336   8.459  19.902  0.00  0.00    +0.000 A 
ATOM      6  C   UNL     1       1.866   7.237  20.340  0.00  0.00    +0.000 A 
ATOM      7  C   UNL     1       2.702   6.455  19.525  0.00  0.00    +0.000 A 
ATOM      8  C   UNL     1       3.064   6.925  18.255  0.00  0.00    +0.000 A 
ATOM      9  C   UNL     1       2.579   8.183  17.845  0.00  0.00    +0.000 A 
ATOM     10  C   UNL     1       1.698   8.938  18.640  0.00  0.00    +0.000 A 
BRANCH   8  11
ATOM     11  N   UNL     1       3.880   6.245  17.313  0.00  0.00    +0.000 N 
ATOM     12  C   UNL     1       5.196   6.491  16.971  0.00  0.00    +0.000 C 
ATOM     13  O   UNL     1       5.929   7.340  17.461  0.00  0.00    +0.000 OA
ATOM     14  H   UNL     1       3.520   5.367  16.951  0.00  0.00    +0.000 HD
BRANCH  12  15
ATOM     15  C   UNL     1       5.716   5.532  16.005  0.00  0.00    +0.000 A 
ATOM     16  C   UNL     1       5.185   4.340  15.536  0.00  0.00    +0.000 A 
ATOM     17  C   UNL     1       6.080   3.845  14.559  0.00  0.00    +0.000 A 
ATOM     18  C   UNL     1       7.109   4.752  14.490  0.00  0.00    +0.000 A 
ATOM     19  O   UNL     1       6.909   5.777  15.362  0.00  0.00    +0.000 OA
ENDBRANCH  12  15
ENDBRANCH   8  11
BRANCH   7  20
ATOM     20  O   UNL     1       3.258   5.302  20.008  0.00  0.00    +0.000 OA
ATOM     21  C   UNL     1       2.571   4.100  19.663  0.00  0.00    +0.000 C 
ENDBRANCH   7  20
BRANCH  10  22
ATOM     22  O   UNL     1       1.260  10.093  18.047  0.00  0.00    +0.000 OA
ATOM     23  C   UNL     1       2.101  11.239  18.156  0.00  0.00    +0.000 C 
ENDBRANCH  10  22
ENDBRANCH   3   5
BRANCH   1  24
ATOM     24  C   UNL     1      -0.397  10.656  22.434  0.00  0.00    +0.000 C 
BRANCH  24  25
ATOM     25  C   UNL     1      -1.491  11.219  21.541  0.00  0.00    +0.000 C 
BRANCH  25  27
ATOM     26  N   UNL     1      -0.561  12.985  20.157  0.00  0.00    +0.000 N 
ATOM     27  C   UNL     1      -1.246  12.694  21.323  0.00  0.00    +0.000 C 
ATOM     28  O   UNL     1      -1.686  13.495  22.140  0.00  0.00    +0.000 OA
ATOM     29  H   UNL     1      -0.290  12.208  19.568  0.00  0.00    +0.000 HD
BRANCH  26  33
ATOM     30  C   UNL     1       0.707  16.796  18.824  0.00  0.00    +0.000 A 
ATOM     31  C   UNL     1      -0.587  16.625  19.309  0.00  0.00    +0.000 A 
ATOM     32  C   UNL     1      -1.030  15.378  19.752  0.00  0.00    +0.000 A 
ATOM     33  C   UNL     1      -0.182  14.270  19.708  0.00  0.00    +0.000 A 
ATOM     34  C   UNL     1       1.112  14.437  19.194  0.00  0.00    +0.000 A 
ATOM     35  C   UNL     1       1.554  15.693  18.747  0.00  0.00    +0.000 A 
BRANCH  30  36
ATOM     36  O   UNL     1       1.009  18.072  18.449  0.00  0.00    +0.000 OA
BRANCH  36  38
ATOM     37  C   UNL     1       0.169  18.631  16.298  0.00  0.00    +0.000 C 
ATOM     38  C   UNL     1       1.409  18.268  17.094  0.00  0.00    +0.000 C 
ENDBRANCH  36  38
ENDBRANCH  30  36
ENDBRANCH  26  33
ENDBRANCH  25  27
ENDBRANCH  24  25
ENDBRANCH   1  24
TORSDOF 11
ENDMDL
MODEL 7
REMARK VINA RESULT:      -6.5      3.870     10.229
REMARK  Name = 
REMARK  14 active torsions:
REMARK  status: ('A' for Active; 'I' for Inactive)
REMARK    1  A    between atoms: C_1  and  C_2
REMARK    2  A    between atoms: C_2  and  O_3
REMARK    3  A    between atoms: O_3  and  C_4
REMARK    4  A    between atoms: C_7  and  N_8
REMARK    5  A    between atoms: C_9  and  C_11
REMARK    6  A    between atoms: C_11  and  C_12
REMARK    7  A    between atoms: C_12  and  C_13
REMARK    8  A    between atoms: N_15  and  C_16
REMARK    9  A    between atoms: C_18  and  O_19
REMARK   10  A    between atoms: O_19  and  C_20
REMARK   11  A    between atoms: C_21  and  N_22
REMARK   12  A    between atoms: C_23  and  C_25
REMARK   13  A    between atoms: C_31  and  O_32
REMARK   14  A    between atoms: O_32  and  C_33
REMARK                            x       y       z     vdW  Elec       q    Type
REMARK                         _______ _______ _______ _____ _____    ______ ____
ROOT
ATOM      1  C   UNL     1       0.580   8.550  20.919  0.00  0.00    +0.000 C 
ATOM      2  O   UNL     1      -0.334   8.487  21.736  0.00  0.00    +0.000 OA
ATOM      3  N   UNL     1       0.544   9.263  19.732  0.00  0.00    +0.000 N 
ATOM      4  H   UNL     1       1.186   9.000  18.995  0.00  0.00    +0.000 HD
ENDROOT
BRANCH   3   5
ATOM      5  C   UNL     1      -0.554  10.074  19.363  0.00  0.00    +0.000 A 
ATOM      6  C   UNL     1      -1.411   9.622  18.350  0.00  0.00    +0.000 A 
ATOM      7  C   UNL     1      -2.596  10.300  18.022  0.00  0.00    +0.000 A 
ATOM      8  C   UNL     1      -2.916  11.493  18.687  0.00  0.00    +0.000 A 
ATOM      9  C   UNL     1      -2.020  11.975  19.661  0.00  0.00    +0.000 A 
ATOM     10  C   UNL     1      -0.862  11.264  20.027  0.00  0.00    +0.000 A 
BRANCH   8  11
ATOM     11  N   UNL     1      -4.081  12.278  18.484  0.00  0.00    +0.000 N 
ATOM     12  C   UNL     1      -5.038  12.662  19.404  0.00  0.00    +0.000 C 
ATOM     13  O   UNL     1      -5.034  12.418  20.604  0.00  0.00    +0.000 OA
ATOM     14  H   UNL     1      -4.155  12.759  17.592  0.00  0.00    +0.000 HD
BRANCH  12  15
ATOM     15  C   UNL     1      -6.059  13.527  18.828  0.00  0.00    +0.000 A 
ATOM     16  C   UNL     1      -6.253  13.955  17.523  0.00  0.00    +0.000 A 
ATOM     17  C   UNL     1      -7.436  14.731  17.515  0.00  0.00    +0.000 A 
ATOM     18  C   UNL     1      -7.894  14.743  18.810  0.00  0.00    +0.000 A 
ATOM     19  O   UNL     1      -7.070  14.025  19.620  0.00  0.00    +0.000 OA
ENDBRANCH  12  15
ENDBRANCH   8  11
BRANCH   7  20
ATOM     20  O   UNL     1      -3.374   9.873  16.981  0.00  0.00    +0.000 OA
ATOM     21  C   UNL     1      -2.997  10.362  15.694  0.00  0.00    +0.000 C 
ENDBRANCH   7  20
BRANCH  10  22
ATOM     22  O   UNL     1      -0.154  11.837  21.051  0.00  0.00    +0.000 OA
ATOM     23  C   UNL     1      -0.721  11.759  22.356  0.00  0.00    +0.000 C 
ENDBRANCH  10  22
ENDBRANCH   3   5
BRANCH   1  24
ATOM     24  C   UNL     1       1.871   7.808  21.161  0.00  0.00    +0.000 C 
BRANCH  24  25
ATOM     25  C   UNL     1       1.760   6.380  20.651  0.00  0.00    +0.000 C 
BRANCH  25  27
ATOM     26  N   UNL     1       3.603   5.432  19.384  0.00  0.00    +0.000 N 
ATOM     27  C   UNL     1       2.499   6.262  19.337  0.00  0.00    +0.000 C 
ATOM     28  O   UNL     1       2.061   6.855  18.357  0.00  0.00    +0.000 OA
ATOM     29  H   UNL     1       3.817   4.987  20.268  0.00  0.00    +0.000 HD
BRANCH  26  33
ATOM     30  C   UNL     1       6.267   4.722  16.173  0.00  0.00    +0.000 A 
ATOM     31  C   UNL     1       5.314   3.764  16.509  0.00  0.00    +0.000 A 
ATOM     32  C   UNL     1       4.426   3.973  17.565  0.00  0.00    +0.000 A 
ATOM     33  C   UNL     1       4.483   5.150  18.315  0.00  0.00    +0.000 A 
ATOM     34  C   UNL     1       5.462   6.102  17.993  0.00  0.00    +0.000 A 
ATOM     35  C   UNL     1       6.355   5.887  16.931  0.00  0.00    +0.000 A 
BRANCH  30  36
ATOM     36  O   UNL     1       7.051   4.393  15.106  0.00  0.00    +0.000 OA
BRANCH  36  38
ATOM     37  C   UNL     1       6.353   3.710  12.940  0.00  0.00    +0.000 C 
ATOM     38  C   UNL     1       6.654   4.900  13.833  0.00  0.00    +0.000 C 
ENDBRANCH  36  38
ENDBRANCH  30  36
ENDBRANCH  26  33
ENDBRANCH  25  27
ENDBRANCH  24  25
ENDBRANCH   1  24
TORSDOF 11
ENDMDL
MODEL 8
REMARK VINA RESULT:      -6.5      4.129     10.284
REMARK  Name = 
REMARK  14 active torsions:
REMARK  status: ('A' for Active; 'I' for Inactive)
REMARK    1  A    between atoms: C_1  and  C_2
REMARK    2  A    between atoms: C_2  and  O_3
REMARK    3  A    between atoms: O_3  and  C_4
REMARK    4  A    between atoms: C_7  and  N_8
REMARK    5  A    between atoms: C_9  and  C_11
REMARK    6  A    between atoms: C_11  and  C_12
REMARK    7  A    between atoms: C_12  and  C_13
REMARK    8  A    between atoms: N_15  and  C_16
REMARK    9  A    between atoms: C_18  and  O_19
REMARK   10  A    between atoms: O_19  and  C_20
REMARK   11  A    between atoms: C_21  and  N_22
REMARK   12  A    between atoms: C_23  and  C_25
REMARK   13  A    between atoms: C_31  and  O_32
REMARK   14  A    between atoms: O_32  and  C_33
REMARK                            x       y       z     vdW  Elec       q    Type
REMARK                         _______ _______ _______ _____ _____    ______ ____
ROOT
ATOM      1  C   UNL     1       0.823   8.576  20.183  0.00  0.00    +0.000 C 
ATOM      2  O   UNL     1      -0.124   8.311  20.918  0.00  0.00    +0.000 OA
ATOM      3  N   UNL     1       0.782   9.449  19.108  0.00  0.00    +0.000 N 
ATOM      4  H   UNL     1       1.486   9.357  18.388  0.00  0.00    +0.000 HD
ENDROOT
BRANCH   3   5
ATOM      5  C   UNL     1      -0.370  10.202  18.782  0.00  0.00    +0.000 A 
ATOM      6  C   UNL     1      -1.178   9.767  17.722  0.00  0.00    +0.000 A 
ATOM      7  C   UNL     1      -2.408  10.378  17.425  0.00  0.00    +0.000 A 
ATOM      8  C   UNL     1      -2.824  11.489  18.172  0.00  0.00    +0.000 A 
ATOM      9  C   UNL     1      -1.978  11.961  19.195  0.00  0.00    +0.000 A 
ATOM     10  C   UNL     1      -0.775  11.313  19.527  0.00  0.00    +0.000 A 
BRANCH   8  11
ATOM     11  N   UNL     1      -4.043  12.199  18.007  0.00  0.00    +0.000 N 
ATOM     12  C   UNL     1      -5.337  11.755  18.205  0.00  0.00    +0.000 C 
ATOM     13  O   UNL     1      -5.673  10.649  18.606  0.00  0.00    +0.000 OA
ATOM     14  H   UNL     1      -3.970  13.204  17.883  0.00  0.00    +0.000 HD
BRANCH  12  15
ATOM     15  C   UNL     1      -6.329  12.801  17.997  0.00  0.00    +0.000 A 
ATOM     16  C   UNL     1      -7.240  13.372  18.872  0.00  0.00    +0.000 A 
ATOM     17  C   UNL     1      -7.917  14.390  18.158  0.00  0.00    +0.000 A 
ATOM     18  C   UNL     1      -7.390  14.379  16.889  0.00  0.00    +0.000 A 
ATOM     19  O   UNL     1      -6.432  13.421  16.772  0.00  0.00    +0.000 OA
ENDBRANCH  12  15
ENDBRANCH   8  11
BRANCH   7  20
ATOM     20  O   UNL     1      -3.139   9.974  16.341  0.00  0.00    +0.000 OA
ATOM     21  C   UNL     1      -2.950  10.745  15.155  0.00  0.00    +0.000 C 
ENDBRANCH   7  20
BRANCH  10  22
ATOM     22  O   UNL     1      -0.124  11.857  20.603  0.00  0.00    +0.000 OA
ATOM     23  C   UNL     1      -0.915  12.582  21.541  0.00  0.00    +0.000 C 
ENDBRANCH  10  22
ENDBRANCH   3   5
BRANCH   1  24
ATOM     24  C   UNL     1       2.166   7.927  20.406  0.00  0.00    +0.000 C 
BRANCH  24  25
ATOM     25  C   UNL     1       2.060   6.423  20.220  0.00  0.00    +0.000 C 
BRANCH  25  27
ATOM     26  N   UNL     1       3.892   5.620  18.841  0.00  0.00    +0.000 N 
ATOM     27  C   UNL     1       2.580   6.053  18.849  0.00  0.00    +0.000 C 
ATOM     28  O   UNL     1       1.820   6.125  17.889  0.00  0.00    +0.000 OA
ATOM     29  H   UNL     1       4.379   5.587  19.728  0.00  0.00    +0.000 HD
BRANCH  26  33
ATOM     30  C   UNL     1       6.093   4.564  15.384  0.00  0.00    +0.000 A 
ATOM     31  C   UNL     1       5.659   3.573  16.260  0.00  0.00    +0.000 A 
ATOM     32  C   UNL     1       4.934   3.895  17.408  0.00  0.00    +0.000 A 
ATOM     33  C   UNL     1       4.637   5.227  17.707  0.00  0.00    +0.000 A 
ATOM     34  C   UNL     1       5.098   6.227  16.838  0.00  0.00    +0.000 A 
ATOM     35  C   UNL     1       5.829   5.899  15.684  0.00  0.00    +0.000 A 
BRANCH  30  36
ATOM     36  O   UNL     1       6.769   4.102  14.293  0.00  0.00    +0.000 OA
BRANCH  36  38
ATOM     37  C   UNL     1       5.894   3.101  12.324  0.00  0.00    +0.000 C 
ATOM     38  C   UNL     1       6.219   4.413  13.014  0.00  0.00    +0.000 C 
ENDBRANCH  36  38
ENDBRANCH  30  36
ENDBRANCH  26  33
ENDBRANCH  25  27
ENDBRANCH  24  25
ENDBRANCH   1  24
TORSDOF 11
ENDMDL
MODEL 9
REMARK VINA RESULT:      -6.5      4.573      6.794
REMARK  Name = 
REMARK  14 active torsions:
REMARK  status: ('A' for Active; 'I' for Inactive)
REMARK    1  A    between atoms: C_1  and  C_2
REMARK    2  A    between atoms: C_2  and  O_3
REMARK    3  A    between atoms: O_3  and  C_4
REMARK    4  A    between atoms: C_7  and  N_8
REMARK    5  A    between atoms: C_9  and  C_11
REMARK    6  A    between atoms: C_11  and  C_12
REMARK    7  A    between atoms: C_12  and  C_13
REMARK    8  A    between atoms: N_15  and  C_16
REMARK    9  A    between atoms: C_18  and  O_19
REMARK   10  A    between atoms: O_19  and  C_20
REMARK   11  A    between atoms: C_21  and  N_22
REMARK   12  A    between atoms: C_23  and  C_25
REMARK   13  A    between atoms: C_31  and  O_32
REMARK   14  A    between atoms: O_32  and  C_33
REMARK                            x       y       z     vdW  Elec       q    Type
REMARK                         _______ _______ _______ _____ _____    ______ ____
ROOT
ATOM      1  C   UNL     1      -5.740  11.685  18.235  0.00  0.00    +0.000 C 
ATOM      2  O   UNL     1      -5.876  10.513  18.573  0.00  0.00    +0.000 OA
ATOM      3  N   UNL     1      -4.534  12.294  17.926  0.00  0.00    +0.000 N 
ATOM      4  H   UNL     1      -4.479  13.303  17.979  0.00  0.00    +0.000 HD
ENDROOT
BRANCH   3   5
ATOM      5  C   UNL     1      -3.309  11.588  17.899  0.00  0.00    +0.000 A 
ATOM      6  C   UNL     1      -2.425  11.737  18.976  0.00  0.00    +0.000 A 
ATOM      7  C   UNL     1      -1.255  10.968  19.090  0.00  0.00    +0.000 A 
ATOM      8  C   UNL     1      -0.927  10.057  18.075  0.00  0.00    +0.000 A 
ATOM      9  C   UNL     1      -1.788   9.957  16.964  0.00  0.00    +0.000 A 
ATOM     10  C   UNL     1      -2.987  10.687  16.881  0.00  0.00    +0.000 A 
BRANCH   8  11
ATOM     11  N   UNL     1       0.203   9.198  18.056  0.00  0.00    +0.000 N 
ATOM     12  C   UNL     1       1.541   9.530  17.946  0.00  0.00    +0.000 C 
ATOM     13  O   UNL     1       2.007  10.660  17.883  0.00  0.00    +0.000 OA
ATOM     14  H   UNL     1       0.042   8.229  18.312  0.00  0.00    +0.000 HD
BRANCH  12  15
ATOM     15  C   UNL     1       2.418   8.370  18.032  0.00  0.00    +0.000 A 
ATOM     16  C   UNL     1       2.432   7.309  18.924  0.00  0.00    +0.000 A 
ATOM     17  C   UNL     1       3.459   6.430  18.504  0.00  0.00    +0.000 A 
ATOM     18  C   UNL     1       4.019   7.003  17.388  0.00  0.00    +0.000 A 
ATOM     19  O   UNL     1       3.405   8.181  17.091  0.00  0.00    +0.000 OA
ENDBRANCH  12  15
ENDBRANCH   8  11
BRANCH   7  20
ATOM     20  O   UNL     1      -0.378  11.188  20.117  0.00  0.00    +0.000 OA
ATOM     21  C   UNL     1      -0.891  10.934  21.424  0.00  0.00    +0.000 C 
ENDBRANCH   7  20
BRANCH  10  22
ATOM     22  O   UNL     1      -3.741  10.400  15.773  0.00  0.00    +0.000 OA
ATOM     23  C   UNL     1      -3.039  10.075  14.576  0.00  0.00    +0.000 C 
ENDBRANCH  10  22
ENDBRANCH   3   5
BRANCH   1  24
ATOM     24  C   UNL     1      -6.939  12.594  18.135  0.00  0.00    +0.000 C 
BRANCH  24  25
ATOM     25  C   UNL     1      -7.486  12.898  19.520  0.00  0.00    +0.000 C 
BRANCH  25  27
ATOM     26  N   UNL     1      -6.181  13.058  21.563  0.00  0.00    +0.000 N 
ATOM     27  C   UNL     1      -6.429  13.620  20.325  0.00  0.00    +0.000 C 
ATOM     28  O   UNL     1      -5.865  14.589  19.827  0.00  0.00    +0.000 OA
ATOM     29  H   UNL     1      -6.712  12.234  21.817  0.00  0.00    +0.000 HD
BRANCH  26  33
ATOM     30  C   UNL     1      -3.378  14.339  24.462  0.00  0.00    +0.000 A 
ATOM     31  C   UNL     1      -4.506  15.110  24.200  0.00  0.00    +0.000 A 
ATOM     32  C   UNL     1      -5.444  14.711  23.247  0.00  0.00    +0.000 A 
ATOM     33  C   UNL     1      -5.262  13.528  22.527  0.00  0.00    +0.000 A 
ATOM     34  C   UNL     1      -4.110  12.766  22.772  0.00  0.00    +0.000 A 
ATOM     35  C   UNL     1      -3.168  13.171  23.732  0.00  0.00    +0.000 A 
BRANCH  30  36
ATOM     36  O   UNL     1      -2.561  14.839  25.434  0.00  0.00    +0.000 OA
BRANCH  36  38
ATOM     37  C   UNL     1      -1.487  16.949  25.637  0.00  0.00    +0.000 C 
ATOM     38  C   UNL     1      -1.417  15.572  25.001  0.00  0.00    +0.000 C 
ENDBRANCH  36  38
ENDBRANCH  30  36
ENDBRANCH  26  33
ENDBRANCH  25  27
ENDBRANCH  24  25
ENDBRANCH   1  24
TORSDOF 11
ENDMDL
