MODEL 1
REMARK VINA RESULT:      -6.2      0.000      0.000
REMARK  Name = 
REMARK  12 active torsions:
REMARK  status: ('A' for Active; 'I' for Inactive)
REMARK    1  A    between atoms: C_1  and  C_2
REMARK    2  A    between atoms: N_4  and  C_5
REMARK    3  A    between atoms: C_5  and  C_6
REMARK    4  A    between atoms: C_6  and  O_7
REMARK    5  A    between atoms: C_8  and  C_9
REMARK    6  A    between atoms: C_10  and  C_11
REMARK    7  A    between atoms: C_11  and  N_12
REMARK    8  A    between atoms: N_12  and  C_13
REMARK    9  A    between atoms: N_12  and  C_14
REMARK   10  A    between atoms: C_14  and  C_15
REMARK   11  A    between atoms: C_15  and  N_16
REMARK   12  A    between atoms: C_20  and  C_21
REMARK                            x       y       z     vdW  Elec       q    Type
REMARK                         _______ _______ _______ _____ _____    ______ ____
ROOT
ATOM      1  C   UNL     1       1.159   3.665  20.862  0.00  0.00    +0.000 C 
ATOM      2  C   UNL     1       1.610   4.945  20.264  0.00  0.00    +0.000 A 
ATOM      3  N   UNL     1       1.433   6.101  20.913  0.00  0.00    +0.000 NA
ATOM      4  N   UNL     1       1.941   7.034  20.079  0.00  0.00    +0.000 N 
ATOM      5  C   UNL     1       2.481   6.504  18.938  0.00  0.00    +0.000 A 
ATOM      6  C   UNL     1       3.168   7.265  17.861  0.00  0.00    +0.000 C 
ATOM      7  C   UNL     1       2.251   5.139  19.015  0.00  0.00    +0.000 A 
ENDROOT
BRANCH   4   8
ATOM      8  C   UNL     1       1.809   8.429  20.453  0.00  0.00    +0.000 C 
BRANCH   8   9
ATOM      9  C   UNL     1       1.055   8.618  21.762  0.00  0.00    +0.000 C 
BRANCH   9  10
ATOM     10  O   UNL     1       1.868   9.212  22.771  0.00  0.00    +0.000 OA
ATOM     11  H   UNL     1       1.566  10.133  22.871  0.00  0.00    +0.000 HD
ENDBRANCH   9  10
ENDBRANCH   8   9
ENDBRANCH   4   8
BRANCH   7  12
ATOM     12  C   UNL     1       2.575   4.105  17.994  0.00  0.00    +0.000 C 
BRANCH  12  13
ATOM     13  N   UNL     1       3.789   3.345  18.351  0.00  0.00    +0.000 NA
ATOM     14  C   UNL     1       3.475   1.963  18.739  0.00  0.00    +0.000 C 
BRANCH  13  15
ATOM     15  C   UNL     1       4.746   3.332  17.225  0.00  0.00    +0.000 C 
BRANCH  15  16
ATOM     16  C   UNL     1       4.557   4.497  16.238  0.00  0.00    +0.000 C 
BRANCH  16  17
ATOM     17  N   UNL     1       5.744   4.711  15.434  0.00  0.00    +0.000 N 
ATOM     18  C   UNL     1       5.944   4.208  14.181  0.00  0.00    +0.000 A 
ATOM     19  C   UNL     1       7.179   4.679  13.805  0.00  0.00    +0.000 A 
ATOM     20  N   UNL     1       7.725   5.453  14.795  0.00  0.00    +0.000 NA
ATOM     21  C   UNL     1       6.834   5.472  15.774  0.00  0.00    +0.000 A 
ATOM     22  C   UNL     1       6.962   6.192  17.062  0.00  0.00    +0.000 C 
ENDBRANCH  16  17
ENDBRANCH  15  16
ENDBRANCH  13  15
ENDBRANCH  12  13
ENDBRANCH   7  12
TORSDOF 8
ENDMDL
MODEL 2
REMARK VINA RESULT:      -5.9      2.838      7.193
REMARK  Name = 
REMARK  12 active torsions:
REMARK  status: ('A' for Active; 'I' for Inactive)
REMARK    1  A    between atoms: C_1  and  C_2
REMARK    2  A    between atoms: N_4  and  C_5
REMARK    3  A    between atoms: C_5  and  C_6
REMARK    4  A    between atoms: C_6  and  O_7
REMARK    5  A    between atoms: C_8  and  C_9
REMARK    6  A    between atoms: C_10  and  C_11
REMARK    7  A    between atoms: C_11  and  N_12
REMARK    8  A    between atoms: N_12  and  C_13
REMARK    9  A    between atoms: N_12  and  C_14
REMARK   10  A    between atoms: C_14  and  C_15
REMARK   11  A    between atoms: C_15  and  N_16
REMARK   12  A    between atoms: C_20  and  C_21
REMARK                            x       y       z     vdW  Elec       q    Type
REMARK                         _______ _______ _______ _____ _____    ______ ____
ROOT
ATOM      1  C   UNL     1       3.886   2.434  18.887  0.00  0.00    +0.000 C 
ATOM      2  C   UNL     1       4.260   3.558  17.994  0.00  0.00    +0.000 A 
ATOM      3  N   UNL     1       4.702   3.326  16.754  0.00  0.00    +0.000 NA
ATOM      4  N   UNL     1       4.954   4.554  16.252  0.00  0.00    +0.000 N 
ATOM      5  C   UNL     1       4.640   5.567  17.118  0.00  0.00    +0.000 A 
ATOM      6  C   UNL     1       4.745   7.023  16.835  0.00  0.00    +0.000 C 
ATOM      7  C   UNL     1       4.212   4.945  18.281  0.00  0.00    +0.000 A 
ENDROOT
BRANCH   4   8
ATOM      8  C   UNL     1       5.552   4.645  14.934  0.00  0.00    +0.000 C 
BRANCH   8   9
ATOM      9  C   UNL     1       7.061   4.841  14.986  0.00  0.00    +0.000 C 
BRANCH   9  10
ATOM     10  O   UNL     1       7.596   4.562  16.277  0.00  0.00    +0.000 OA
ATOM     11  H   UNL     1       6.963   4.918  16.927  0.00  0.00    +0.000 HD
ENDBRANCH   9  10
ENDBRANCH   8   9
ENDBRANCH   4   8
BRANCH   7  12
ATOM     12  C   UNL     1       3.820   5.590  19.565  0.00  0.00    +0.000 C 
BRANCH  12  13
ATOM     13  N   UNL     1       2.395   5.971  19.572  0.00  0.00    +0.000 NA
ATOM     14  C   UNL     1       1.639   5.247  20.604  0.00  0.00    +0.000 C 
BRANCH  13  15
ATOM     15  C   UNL     1       2.245   7.426  19.787  0.00  0.00    +0.000 C 
BRANCH  15  16
ATOM     16  C   UNL     1       1.221   7.789  20.875  0.00  0.00    +0.000 C 
BRANCH  16  17
ATOM     17  N   UNL     1       0.819   9.179  20.785  0.00  0.00    +0.000 N 
ATOM     18  C   UNL     1       0.897   9.947  19.658  0.00  0.00    +0.000 A 
ATOM     19  C   UNL     1       0.395  11.171  20.031  0.00  0.00    +0.000 A 
ATOM     20  N   UNL     1       0.014  11.159  21.347  0.00  0.00    +0.000 NA
ATOM     21  C   UNL     1       0.268   9.936  21.787  0.00  0.00    +0.000 A 
ATOM     22  C   UNL     1       0.013   9.426  23.155  0.00  0.00    +0.000 C 
ENDBRANCH  16  17
ENDBRANCH  15  16
ENDBRANCH  13  15
ENDBRANCH  12  13
ENDBRANCH   7  12
TORSDOF 8
ENDMDL
MODEL 3
REMARK VINA RESULT:      -5.9      2.858      6.267
REMARK  Name = 
REMARK  12 active torsions:
REMARK  status: ('A' for Active; 'I' for Inactive)
REMARK    1  A    between atoms: C_1  and  C_2
REMARK    2  A    between atoms: N_4  and  C_5
REMARK    3  A    between atoms: C_5  and  C_6
REMARK    4  A    between atoms: C_6  and  O_7
REMARK    5  A    between atoms: C_8  and  C_9
REMARK    6  A    between atoms: C_10  and  C_11
REMARK    7  A    between atoms: C_11  and  N_12
REMARK    8  A    between atoms: N_12  and  C_13
REMARK    9  A    between atoms: N_12  and  C_14
REMARK   10  A    between atoms: C_14  and  C_15
REMARK   11  A    between atoms: C_15  and  N_16
REMARK   12  A    between atoms: C_20  and  C_21
REMARK                            x       y       z     vdW  Elec       q    Type
REMARK                         _______ _______ _______ _____ _____    ______ ____
ROOT
ATOM      1  C   UNL     1       6.324   4.918  14.505  0.00  0.00    +0.000 C 
ATOM      2  C   UNL     1       6.453   5.242  15.947  0.00  0.00    +0.000 A 
ATOM      3  N   UNL     1       7.402   6.081  16.375  0.00  0.00    +0.000 NA
ATOM      4  N   UNL     1       7.231   6.126  17.714  0.00  0.00    +0.000 N 
ATOM      5  C   UNL     1       6.170   5.377  18.149  0.00  0.00    +0.000 A 
ATOM      6  C   UNL     1       5.691   5.274  19.553  0.00  0.00    +0.000 C 
ATOM      7  C   UNL     1       5.659   4.760  17.017  0.00  0.00    +0.000 A 
ENDROOT
BRANCH   4   8
ATOM      8  C   UNL     1       8.184   6.885  18.500  0.00  0.00    +0.000 C 
BRANCH   8   9
ATOM      9  C   UNL     1       8.253   8.349  18.089  0.00  0.00    +0.000 C 
BRANCH   9  10
ATOM     10  O   UNL     1       7.140   8.735  17.286  0.00  0.00    +0.000 OA
ATOM     11  H   UNL     1       6.342   8.391  17.727  0.00  0.00    +0.000 HD
ENDBRANCH   9  10
ENDBRANCH   8   9
ENDBRANCH   4   8
BRANCH   7  12
ATOM     12  C   UNL     1       4.542   3.778  16.944  0.00  0.00    +0.000 C 
BRANCH  12  13
ATOM     13  N   UNL     1       3.376   4.218  17.734  0.00  0.00    +0.000 NA
ATOM     14  C   UNL     1       3.017   5.615  17.451  0.00  0.00    +0.000 C 
BRANCH  13  15
ATOM     15  C   UNL     1       2.209   3.350  17.468  0.00  0.00    +0.000 C 
BRANCH  15  16
ATOM     16  C   UNL     1       2.165   2.086  18.343  0.00  0.00    +0.000 C 
BRANCH  16  17
ATOM     17  N   UNL     1       2.117   2.416  19.754  0.00  0.00    +0.000 N 
ATOM     18  C   UNL     1       0.999   2.814  20.429  0.00  0.00    +0.000 A 
ATOM     19  C   UNL     1       1.417   2.996  21.726  0.00  0.00    +0.000 A 
ATOM     20  N   UNL     1       2.752   2.714  21.850  0.00  0.00    +0.000 NA
ATOM     21  C   UNL     1       3.160   2.353  20.643  0.00  0.00    +0.000 A 
ATOM     22  C   UNL     1       4.533   1.939  20.269  0.00  0.00    +0.000 C 
ENDBRANCH  16  17
ENDBRANCH  15  16
ENDBRANCH  13  15
ENDBRANCH  12  13
ENDBRANCH   7  12
TORSDOF 8
ENDMDL
MODEL 4
REMARK VINA RESULT:      -5.7      2.919      7.399
REMARK  Name = 
REMARK  12 active torsions:
REMARK  status: ('A' for Active; 'I' for Inactive)
REMARK    1  A    between atoms: C_1  and  C_2
REMARK    2  A    between atoms: N_4  and  C_5
REMARK    3  A    between atoms: C_5  and  C_6
REMARK    4  A    between atoms: C_6  and  O_7
REMARK    5  A    between atoms: C_8  and  C_9
REMARK    6  A    between atoms: C_10  and  C_11
REMARK    7  A    between atoms: C_11  and  N_12
REMARK    8  A    between atoms: N_12  and  C_13
REMARK    9  A    between atoms: N_12  and  C_14
REMARK   10  A    between atoms: C_14  and  C_15
REMARK   11  A    between atoms: C_15  and  N_16
REMARK   12  A    between atoms: C_20  and  C_21
REMARK                            x       y       z     vdW  Elec       q    Type
REMARK                         _______ _______ _______ _____ _____    ______ ____
ROOT
ATOM      1  C   UNL     1       2.220   3.935  19.815  0.00  0.00    +0.000 C 
ATOM      2  C   UNL     1       3.363   4.600  19.144  0.00  0.00    +0.000 A 
ATOM      3  N   UNL     1       4.589   4.068  19.199  0.00  0.00    +0.000 NA
ATOM      4  N   UNL     1       5.361   4.932  18.505  0.00  0.00    +0.000 N 
ATOM      5  C   UNL     1       4.656   5.976  17.969  0.00  0.00    +0.000 A 
ATOM      6  C   UNL     1       5.211   7.053  17.106  0.00  0.00    +0.000 C 
ATOM      7  C   UNL     1       3.348   5.804  18.397  0.00  0.00    +0.000 A 
ENDROOT
BRANCH   4   8
ATOM      8  C   UNL     1       6.790   4.689  18.462  0.00  0.00    +0.000 C 
BRANCH   8   9
ATOM      9  C   UNL     1       7.590   5.759  19.191  0.00  0.00    +0.000 C 
BRANCH   9  10
ATOM     10  O   UNL     1       7.890   5.386  20.534  0.00  0.00    +0.000 OA
ATOM     11  H   UNL     1       7.094   4.950  20.890  0.00  0.00    +0.000 HD
ENDBRANCH   9  10
ENDBRANCH   8   9
ENDBRANCH   4   8
BRANCH   7  12
ATOM     12  C   UNL     1       2.187   6.703  18.154  0.00  0.00    +0.000 C 
BRANCH  12  13
ATOM     13  N   UNL     1       2.407   8.045  18.726  0.00  0.00    +0.000 NA
ATOM     14  C   UNL     1       2.078   9.110  17.768  0.00  0.00    +0.000 C 
BRANCH  13  15
ATOM     15  C   UNL     1       1.603   8.226  19.953  0.00  0.00    +0.000 C 
BRANCH  15  16
ATOM     16  C   UNL     1       0.610   9.398  19.876  0.00  0.00    +0.000 C 
BRANCH  16  17
ATOM     17  N   UNL     1       0.157   9.799  21.193  0.00  0.00    +0.000 N 
ATOM     18  C   UNL     1      -0.214   8.943  22.190  0.00  0.00    +0.000 A 
ATOM     19  C   UNL     1      -0.545   9.756  23.248  0.00  0.00    +0.000 A 
ATOM     20  N   UNL     1      -0.379  11.075  22.917  0.00  0.00    +0.000 NA
ATOM     21  C   UNL     1       0.059  11.083  21.667  0.00  0.00    +0.000 A 
ATOM     22  C   UNL     1       0.400  12.282  20.865  0.00  0.00    +0.000 C 
ENDBRANCH  16  17
ENDBRANCH  15  16
ENDBRANCH  13  15
ENDBRANCH  12  13
ENDBRANCH   7  12
TORSDOF 8
ENDMDL
MODEL 5
REMARK VINA RESULT:      -5.7      3.020      7.747
REMARK  Name = 
REMARK  12 active torsions:
REMARK  status: ('A' for Active; 'I' for Inactive)
REMARK    1  A    between atoms: C_1  and  C_2
REMARK    2  A    between atoms: N_4  and  C_5
REMARK    3  A    between atoms: C_5  and  C_6
REMARK    4  A    between atoms: C_6  and  O_7
REMARK    5  A    between atoms: C_8  and  C_9
REMARK    6  A    between atoms: C_10  and  C_11
REMARK    7  A    between atoms: C_11  and  N_12
REMARK    8  A    between atoms: N_12  and  C_13
REMARK    9  A    between atoms: N_12  and  C_14
REMARK   10  A    between atoms: C_14  and  C_15
REMARK   11  A    between atoms: C_15  and  N_16
REMARK   12  A    between atoms: C_20  and  C_21
REMARK                            x       y       z     vdW  Elec       q    Type
REMARK                         _______ _______ _______ _____ _____    ______ ____
ROOT
ATOM      1  C   UNL     1       4.750   6.343  16.817  0.00  0.00    +0.000 C 
ATOM      2  C   UNL     1       3.979   5.531  17.789  0.00  0.00    +0.000 A 
ATOM      3  N   UNL     1       4.470   4.377  18.255  0.00  0.00    +0.000 NA
ATOM      4  N   UNL     1       3.511   3.917  19.087  0.00  0.00    +0.000 N 
ATOM      5  C   UNL     1       2.442   4.764  19.202  0.00  0.00    +0.000 A 
ATOM      6  C   UNL     1       1.261   4.567  20.085  0.00  0.00    +0.000 C 
ATOM      7  C   UNL     1       2.705   5.817  18.339  0.00  0.00    +0.000 A 
ENDROOT
BRANCH   4   8
ATOM      8  C   UNL     1       3.697   2.609  19.687  0.00  0.00    +0.000 C 
BRANCH   8   9
ATOM      9  C   UNL     1       3.637   1.480  18.668  0.00  0.00    +0.000 C 
BRANCH   9  10
ATOM     10  O   UNL     1       2.586   1.664  17.722  0.00  0.00    +0.000 OA
ATOM     11  H   UNL     1       3.009   1.797  16.854  0.00  0.00    +0.000 HD
ENDBRANCH   9  10
ENDBRANCH   8   9
ENDBRANCH   4   8
BRANCH   7  12
ATOM     12  C   UNL     1       1.826   6.979  18.030  0.00  0.00    +0.000 C 
BRANCH  12  13
ATOM     13  N   UNL     1       2.276   8.203  18.719  0.00  0.00    +0.000 NA
ATOM     14  C   UNL     1       2.127   9.395  17.873  0.00  0.00    +0.000 C 
BRANCH  13  15
ATOM     15  C   UNL     1       1.524   8.399  19.977  0.00  0.00    +0.000 C 
BRANCH  15  16
ATOM     16  C   UNL     1       0.488   9.534  19.909  0.00  0.00    +0.000 C 
BRANCH  16  17
ATOM     17  N   UNL     1       0.054   9.939  21.231  0.00  0.00    +0.000 N 
ATOM     18  C   UNL     1      -0.300   9.085  22.236  0.00  0.00    +0.000 A 
ATOM     19  C   UNL     1      -0.617   9.901  23.296  0.00  0.00    +0.000 A 
ATOM     20  N   UNL     1      -0.457  11.219  22.958  0.00  0.00    +0.000 NA
ATOM     21  C   UNL     1      -0.038  11.224  21.703  0.00  0.00    +0.000 A 
ATOM     22  C   UNL     1       0.289  12.420  20.892  0.00  0.00    +0.000 C 
ENDBRANCH  16  17
ENDBRANCH  15  16
ENDBRANCH  13  15
ENDBRANCH  12  13
ENDBRANCH   7  12
TORSDOF 8
ENDMDL
MODEL 6
REMARK VINA RESULT:      -5.7      1.188      2.224
REMARK  Name = 
REMARK  12 active torsions:
REMARK  status: ('A' for Active; 'I' for Inactive)
REMARK    1  A    between atoms: C_1  and  C_2
REMARK    2  A    between atoms: N_4  and  C_5
REMARK    3  A    between atoms: C_5  and  C_6
REMARK    4  A    between atoms: C_6  and  O_7
REMARK    5  A    between atoms: C_8  and  C_9
REMARK    6  A    between atoms: C_10  and  C_11
REMARK    7  A    between atoms: C_11  and  N_12
REMARK    8  A    between atoms: N_12  and  C_13
REMARK    9  A    between atoms: N_12  and  C_14
REMARK   10  A    between atoms: C_14  and  C_15
REMARK   11  A    between atoms: C_15  and  N_16
REMARK   12  A    between atoms: C_20  and  C_21
REMARK                            x       y       z     vdW  Elec       q    Type
REMARK                         _______ _______ _______ _____ _____    ______ ____
ROOT
ATOM      1  C   UNL     1       3.443   7.746  17.368  0.00  0.00    +0.000 C 
ATOM      2  C   UNL     1       2.713   7.157  18.517  0.00  0.00    +0.000 A 
ATOM      3  N   UNL     1       2.146   7.943  19.439  0.00  0.00    +0.000 NA
ATOM      4  N   UNL     1       1.596   7.081  20.321  0.00  0.00    +0.000 N 
ATOM      5  C   UNL     1       1.754   5.768  19.965  0.00  0.00    +0.000 A 
ATOM      6  C   UNL     1       1.209   4.593  20.696  0.00  0.00    +0.000 C 
ATOM      7  C   UNL     1       2.509   5.784  18.802  0.00  0.00    +0.000 A 
ENDROOT
BRANCH   4   8
ATOM      8  C   UNL     1       0.981   7.625  21.516  0.00  0.00    +0.000 C 
BRANCH   8   9
ATOM      9  C   UNL     1       1.416   9.056  21.802  0.00  0.00    +0.000 C 
BRANCH   9  10
ATOM     10  O   UNL     1       0.647  10.008  21.072  0.00  0.00    +0.000 OA
ATOM     11  H   UNL     1      -0.021   9.506  20.569  0.00  0.00    +0.000 HD
ENDBRANCH   9  10
ENDBRANCH   8   9
ENDBRANCH   4   8
BRANCH   7  12
ATOM     12  C   UNL     1       3.024   4.615  18.038  0.00  0.00    +0.000 C 
BRANCH  12  13
ATOM     13  N   UNL     1       3.623   3.602  18.927  0.00  0.00    +0.000 NA
ATOM     14  C   UNL     1       3.100   2.256  18.654  0.00  0.00    +0.000 C 
BRANCH  13  15
ATOM     15  C   UNL     1       5.095   3.592  18.789  0.00  0.00    +0.000 C 
BRANCH  15  16
ATOM     16  C   UNL     1       5.704   4.984  18.553  0.00  0.00    +0.000 C 
BRANCH  16  17
ATOM     17  N   UNL     1       6.340   5.074  17.254  0.00  0.00    +0.000 N 
ATOM     18  C   UNL     1       6.198   4.163  16.246  0.00  0.00    +0.000 A 
ATOM     19  C   UNL     1       6.955   4.661  15.212  0.00  0.00    +0.000 A 
ATOM     20  N   UNL     1       7.543   5.846  15.568  0.00  0.00    +0.000 NA
ATOM     21  C   UNL     1       7.150   6.088  16.809  0.00  0.00    +0.000 A 
ATOM     22  C   UNL     1       7.513   7.267  17.630  0.00  0.00    +0.000 C 
ENDBRANCH  16  17
ENDBRANCH  15  16
ENDBRANCH  13  15
ENDBRANCH  12  13
ENDBRANCH   7  12
TORSDOF 8
ENDMDL
MODEL 7
REMARK VINA RESULT:      -5.6      2.473      6.060
REMARK  Name = 
REMARK  12 active torsions:
REMARK  status: ('A' for Active; 'I' for Inactive)
REMARK    1  A    between atoms: C_1  and  C_2
REMARK    2  A    between atoms: N_4  and  C_5
REMARK    3  A    between atoms: C_5  and  C_6
REMARK    4  A    between atoms: C_6  and  O_7
REMARK    5  A    between atoms: C_8  and  C_9
REMARK    6  A    between atoms: C_10  and  C_11
REMARK    7  A    between atoms: C_11  and  N_12
REMARK    8  A    between atoms: N_12  and  C_13
REMARK    9  A    between atoms: N_12  and  C_14
REMARK   10  A    between atoms: C_14  and  C_15
REMARK   11  A    between atoms: C_15  and  N_16
REMARK   12  A    between atoms: C_20  and  C_21
REMARK                            x       y       z     vdW  Elec       q    Type
REMARK                         _______ _______ _______ _____ _____    ______ ____
ROOT
ATOM      1  C   UNL     1       6.345   3.715  15.012  0.00  0.00    +0.000 C 
ATOM      2  C   UNL     1       6.150   4.920  15.854  0.00  0.00    +0.000 A 
ATOM      3  N   UNL     1       7.133   5.814  16.003  0.00  0.00    +0.000 NA
ATOM      4  N   UNL     1       6.614   6.748  16.829  0.00  0.00    +0.000 N 
ATOM      5  C   UNL     1       5.312   6.502  17.174  0.00  0.00    +0.000 A 
ATOM      6  C   UNL     1       4.450   7.375  18.015  0.00  0.00    +0.000 C 
ATOM      7  C   UNL     1       4.988   5.293  16.575  0.00  0.00    +0.000 A 
ENDROOT
BRANCH   4   8
ATOM      8  C   UNL     1       7.479   7.823  17.275  0.00  0.00    +0.000 C 
BRANCH   8   9
ATOM      9  C   UNL     1       8.206   7.492  18.572  0.00  0.00    +0.000 C 
BRANCH   9  10
ATOM     10  O   UNL     1       8.109   6.110  18.906  0.00  0.00    +0.000 OA
ATOM     11  H   UNL     1       8.847   5.659  18.457  0.00  0.00    +0.000 HD
ENDBRANCH   9  10
ENDBRANCH   8   9
ENDBRANCH   4   8
BRANCH   7  12
ATOM     12  C   UNL     1       3.713   4.535  16.692  0.00  0.00    +0.000 C 
BRANCH  12  13
ATOM     13  N   UNL     1       3.916   3.218  17.326  0.00  0.00    +0.000 NA
ATOM     14  C   UNL     1       4.637   3.330  18.602  0.00  0.00    +0.000 C 
BRANCH  13  15
ATOM     15  C   UNL     1       2.620   2.544  17.554  0.00  0.00    +0.000 C 
BRANCH  15  16
ATOM     16  C   UNL     1       1.571   3.435  18.240  0.00  0.00    +0.000 C 
BRANCH  16  17
ATOM     17  N   UNL     1       1.676   3.366  19.684  0.00  0.00    +0.000 N 
ATOM     18  C   UNL     1       1.559   2.226  20.426  0.00  0.00    +0.000 A 
ATOM     19  C   UNL     1       1.747   2.630  21.726  0.00  0.00    +0.000 A 
ATOM     20  N   UNL     1       1.978   3.980  21.786  0.00  0.00    +0.000 NA
ATOM     21  C   UNL     1       1.943   4.410  20.534  0.00  0.00    +0.000 A 
ATOM     22  C   UNL     1       2.152   5.804  20.080  0.00  0.00    +0.000 C 
ENDBRANCH  16  17
ENDBRANCH  15  16
ENDBRANCH  13  15
ENDBRANCH  12  13
ENDBRANCH   7  12
TORSDOF 8
ENDMDL
MODEL 8
REMARK VINA RESULT:      -5.6      2.535      5.829
REMARK  Name = 
REMARK  12 active torsions:
REMARK  status: ('A' for Active; 'I' for Inactive)
REMARK    1  A    between atoms: C_1  and  C_2
REMARK    2  A    between atoms: N_4  and  C_5
REMARK    3  A    between atoms: C_5  and  C_6
REMARK    4  A    between atoms: C_6  and  O_7
REMARK    5  A    between atoms: C_8  and  C_9
REMARK    6  A    between atoms: C_10  and  C_11
REMARK    7  A    between atoms: C_11  and  N_12
REMARK    8  A    between atoms: N_12  and  C_13
REMARK    9  A    between atoms: N_12  and  C_14
REMARK   10  A    between atoms: C_14  and  C_15
REMARK   11  A    between atoms: C_15  and  N_16
REMARK   12  A    between atoms: C_20  and  C_21
REMARK                            x       y       z     vdW  Elec       q    Type
REMARK                         _______ _______ _______ _____ _____    ______ ____
ROOT
ATOM      1  C   UNL     1       4.212   2.567  20.045  0.00  0.00    +0.000 C 
ATOM      2  C   UNL     1       4.756   3.584  19.112  0.00  0.00    +0.000 A 
ATOM      3  N   UNL     1       5.958   4.130  19.324  0.00  0.00    +0.000 NA
ATOM      4  N   UNL     1       6.114   5.003  18.305  0.00  0.00    +0.000 N 
ATOM      5  C   UNL     1       5.067   4.997  17.423  0.00  0.00    +0.000 A 
ATOM      6  C   UNL     1       4.973   5.797  16.172  0.00  0.00    +0.000 C 
ATOM      7  C   UNL     1       4.146   4.099  17.941  0.00  0.00    +0.000 A 
ENDROOT
BRANCH   4   8
ATOM      8  C   UNL     1       7.295   5.845  18.301  0.00  0.00    +0.000 C 
BRANCH   8   9
ATOM      9  C   UNL     1       8.372   5.352  19.257  0.00  0.00    +0.000 C 
BRANCH   9  10
ATOM     10  O   UNL     1       8.016   5.559  20.621  0.00  0.00    +0.000 OA
ATOM     11  H   UNL     1       8.595   6.267  20.960  0.00  0.00    +0.000 HD
ENDBRANCH   9  10
ENDBRANCH   8   9
ENDBRANCH   4   8
BRANCH   7  12
ATOM     12  C   UNL     1       2.796   3.771  17.405  0.00  0.00    +0.000 C 
BRANCH  12  13
ATOM     13  N   UNL     1       1.762   4.677  17.940  0.00  0.00    +0.000 NA
ATOM     14  C   UNL     1       1.363   4.307  19.305  0.00  0.00    +0.000 C 
BRANCH  13  15
ATOM     15  C   UNL     1       2.239   6.076  17.932  0.00  0.00    +0.000 C 
BRANCH  15  16
ATOM     16  C   UNL     1       2.183   6.757  19.310  0.00  0.00    +0.000 C 
BRANCH  16  17
ATOM     17  N   UNL     1       1.815   8.155  19.198  0.00  0.00    +0.000 N 
ATOM     18  C   UNL     1       1.933   8.909  18.066  0.00  0.00    +0.000 A 
ATOM     19  C   UNL     1       1.452  10.148  18.417  0.00  0.00    +0.000 A 
ATOM     20  N   UNL     1       1.044  10.158  19.725  0.00  0.00    +0.000 NA
ATOM     21  C   UNL     1       1.261   8.934  20.182  0.00  0.00    +0.000 A 
ATOM     22  C   UNL     1       0.967   8.444  21.549  0.00  0.00    +0.000 C 
ENDBRANCH  16  17
ENDBRANCH  15  16
ENDBRANCH  13  15
ENDBRANCH  12  13
ENDBRANCH   7  12
TORSDOF 8
ENDMDL
MODEL 9
REMARK VINA RESULT:      -5.6      2.858      6.661
REMARK  Name = 
REMARK  12 active torsions:
REMARK  status: ('A' for Active; 'I' for Inactive)
REMARK    1  A    between atoms: C_1  and  C_2
REMARK    2  A    between atoms: N_4  and  C_5
REMARK    3  A    between atoms: C_5  and  C_6
REMARK    4  A    between atoms: C_6  and  O_7
REMARK    5  A    between atoms: C_8  and  C_9
REMARK    6  A    between atoms: C_10  and  C_11
REMARK    7  A    between atoms: C_11  and  N_12
REMARK    8  A    between atoms: N_12  and  C_13
REMARK    9  A    between atoms: N_12  and  C_14
REMARK   10  A    between atoms: C_14  and  C_15
REMARK   11  A    between atoms: C_15  and  N_16
REMARK   12  A    between atoms: C_20  and  C_21
REMARK                            x       y       z     vdW  Elec       q    Type
REMARK                         _______ _______ _______ _____ _____    ______ ____
ROOT
ATOM      1  C   UNL     1       7.822   6.041  18.958  0.00  0.00    +0.000 C 
ATOM      2  C   UNL     1       6.925   5.256  18.077  0.00  0.00    +0.000 A 
ATOM      3  N   UNL     1       7.377   4.741  16.928  0.00  0.00    +0.000 NA
ATOM      4  N   UNL     1       6.304   4.118  16.395  0.00  0.00    +0.000 N 
ATOM      5  C   UNL     1       5.192   4.180  17.191  0.00  0.00    +0.000 A 
ATOM      6  C   UNL     1       3.879   3.540  16.909  0.00  0.00    +0.000 C 
ATOM      7  C   UNL     1       5.558   4.946  18.287  0.00  0.00    +0.000 A 
ENDROOT
BRANCH   4   8
ATOM      8  C   UNL     1       6.440   3.533  15.075  0.00  0.00    +0.000 C 
BRANCH   8   9
ATOM      9  C   UNL     1       6.803   4.560  14.011  0.00  0.00    +0.000 C 
BRANCH   9  10
ATOM     10  O   UNL     1       6.330   5.864  14.338  0.00  0.00    +0.000 OA
ATOM     11  H   UNL     1       6.304   5.918  15.311  0.00  0.00    +0.000 HD
ENDBRANCH   9  10
ENDBRANCH   8   9
ENDBRANCH   4   8
BRANCH   7  12
ATOM     12  C   UNL     1       4.696   5.380  19.421  0.00  0.00    +0.000 C 
BRANCH  12  13
ATOM     13  N   UNL     1       3.861   6.541  19.059  0.00  0.00    +0.000 NA
ATOM     14  C   UNL     1       4.249   7.113  17.763  0.00  0.00    +0.000 C 
BRANCH  13  15
ATOM     15  C   UNL     1       2.432   6.162  19.019  0.00  0.00    +0.000 C 
BRANCH  15  16
ATOM     16  C   UNL     1       1.990   5.287  20.203  0.00  0.00    +0.000 C 
BRANCH  16  17
ATOM     17  N   UNL     1       1.610   3.957  19.770  0.00  0.00    +0.000 N 
ATOM     18  C   UNL     1       0.971   3.666  18.599  0.00  0.00    +0.000 A 
ATOM     19  C   UNL     1       0.835   2.298  18.602  0.00  0.00    +0.000 A 
ATOM     20  N   UNL     1       1.378   1.759  19.739  0.00  0.00    +0.000 NA
ATOM     21  C   UNL     1       1.855   2.781  20.433  0.00  0.00    +0.000 A 
ATOM     22  C   UNL     1       2.552   2.705  21.738  0.00  0.00    +0.000 C 
ENDBRANCH  16  17
ENDBRANCH  15  16
ENDBRANCH  13  15
ENDBRANCH  12  13
ENDBRANCH   7  12
TORSDOF 8
ENDMDL
