MODEL 1
REMARK VINA RESULT:      -7.6      0.000      0.000
REMARK  Name = 
REMARK  9 active torsions:
REMARK  status: ('A' for Active; 'I' for Inactive)
REMARK    1  A    between atoms: C_2  and  C_3
REMARK    2  A    between atoms: C_3  and  C_4
REMARK    3  A    between atoms: C_4  and  C_5
REMARK    4  A    between atoms: C_5  and  C_6
REMARK    5  A    between atoms: C_6  and  C_7
REMARK    6  A    between atoms: C_7  and  C_8
REMARK    7  A    between atoms: N_10  and  C_11
REMARK    8  A    between atoms: C_16  and  O_17
REMARK    9  A    between atoms: N_18  and  C_19
REMARK                            x       y       z     vdW  Elec       q    Type
REMARK                         _______ _______ _______ _____ _____    ______ ____
ROOT
ATOM      1  C   UNL     1       2.730   1.796  19.238  0.00  0.00    +0.000 C 
ENDROOT
BRANCH   1   2
ATOM      2  C   UNL     1       1.462   2.356  19.882  0.00  0.00    +0.000 C 
BRANCH   2   3
ATOM      3  C   UNL     1       1.697   2.666  21.358  0.00  0.00    +0.000 C 
BRANCH   3   4
ATOM      4  C   UNL     1       2.367   4.026  21.568  0.00  0.00    +0.000 C 
BRANCH   4   6
ATOM      5  O   UNL     1       0.499   4.998  20.422  0.00  0.00    +0.000 OA
ATOM      6  C   UNL     1       1.679   5.100  20.744  0.00  0.00    +0.000 C 
ATOM      7  N   UNL     1       2.522   6.145  20.406  0.00  0.00    +0.000 N 
ATOM      8  H   UNL     1       3.513   6.009  20.558  0.00  0.00    +0.000 HD
BRANCH   7   9
ATOM      9  C   UNL     1       2.137   7.343  19.765  0.00  0.00    +0.000 A 
ATOM     10  C   UNL     1       1.429   8.362  20.410  0.00  0.00    +0.000 A 
ATOM     11  C   UNL     1       1.091   9.537  19.736  0.00  0.00    +0.000 A 
ATOM     12  C   UNL     1       1.455   9.707  18.404  0.00  0.00    +0.000 A 
ATOM     13  C   UNL     1       2.166   8.702  17.750  0.00  0.00    +0.000 A 
ATOM     14  C   UNL     1       2.513   7.529  18.429  0.00  0.00    +0.000 A 
ENDBRANCH   7   9
ENDBRANCH   4   6
ENDBRANCH   3   4
ENDBRANCH   2   3
ENDBRANCH   1   2
BRANCH   1  15
ATOM     15  C   UNL     1       3.251   2.724  18.147  0.00  0.00    +0.000 C 
BRANCH  15  16
ATOM     16  C   UNL     1       4.453   3.513  18.623  0.00  0.00    +0.000 C 
ATOM     17  O   UNL     1       5.100   3.112  19.587  0.00  0.00    +0.000 OA
ATOM     18  N   UNL     1       4.700   4.656  17.888  0.00  0.00    +0.000 N 
ATOM     19  H   UNL     1       3.993   4.992  17.243  0.00  0.00    +0.000 HD
BRANCH  18  20
ATOM     20  C   UNL     1       5.818   5.513  18.019  0.00  0.00    +0.000 A 
ATOM     21  C   UNL     1       6.813   5.328  18.978  0.00  0.00    +0.000 A 
ATOM     22  C   UNL     1       7.894   6.208  19.059  0.00  0.00    +0.000 A 
ATOM     23  C   UNL     1       7.993   7.282  18.177  0.00  0.00    +0.000 A 
ATOM     24  C   UNL     1       7.016   7.472  17.200  0.00  0.00    +0.000 A 
ATOM     25  C   UNL     1       5.944   6.581  17.119  0.00  0.00    +0.000 A 
BRANCH  25  26
ATOM     26  O   UNL     1       4.983   6.748  16.152  0.00  0.00    +0.000 OA
ATOM     27  H   UNL     1       4.751   7.691  16.116  0.00  0.00    +0.000 HD
ENDBRANCH  25  26
ENDBRANCH  18  20
ENDBRANCH  15  16
ENDBRANCH   1  15
TORSDOF 9
ENDMDL
MODEL 2
REMARK VINA RESULT:      -7.5      4.830      7.397
REMARK  Name = 
REMARK  9 active torsions:
REMARK  status: ('A' for Active; 'I' for Inactive)
REMARK    1  A    between atoms: C_2  and  C_3
REMARK    2  A    between atoms: C_3  and  C_4
REMARK    3  A    between atoms: C_4  and  C_5
REMARK    4  A    between atoms: C_5  and  C_6
REMARK    5  A    between atoms: C_6  and  C_7
REMARK    6  A    between atoms: C_7  and  C_8
REMARK    7  A    between atoms: N_10  and  C_11
REMARK    8  A    between atoms: C_16  and  O_17
REMARK    9  A    between atoms: N_18  and  C_19
REMARK                            x       y       z     vdW  Elec       q    Type
REMARK                         _______ _______ _______ _____ _____    ______ ____
ROOT
ATOM      1  C   UNL     1       7.952   9.039  17.531  0.00  0.00    +0.000 C 
ENDROOT
BRANCH   1   2
ATOM      2  C   UNL     1       7.136   7.747  17.501  0.00  0.00    +0.000 C 
BRANCH   2   3
ATOM      3  C   UNL     1       7.934   6.589  18.094  0.00  0.00    +0.000 C 
BRANCH   3   4
ATOM      4  C   UNL     1       7.142   5.819  19.154  0.00  0.00    +0.000 C 
BRANCH   4   6
ATOM      5  O   UNL     1       6.232   4.402  17.447  0.00  0.00    +0.000 OA
ATOM      6  C   UNL     1       6.048   4.985  18.511  0.00  0.00    +0.000 C 
ATOM      7  N   UNL     1       4.870   4.985  19.239  0.00  0.00    +0.000 N 
ATOM      8  H   UNL     1       4.785   5.664  19.984  0.00  0.00    +0.000 HD
BRANCH   7   9
ATOM      9  C   UNL     1       3.730   4.198  18.966  0.00  0.00    +0.000 A 
ATOM     10  C   UNL     1       3.687   2.816  19.176  0.00  0.00    +0.000 A 
ATOM     11  C   UNL     1       2.526   2.087  18.910  0.00  0.00    +0.000 A 
ATOM     12  C   UNL     1       1.393   2.732  18.425  0.00  0.00    +0.000 A 
ATOM     13  C   UNL     1       1.420   4.110  18.216  0.00  0.00    +0.000 A 
ATOM     14  C   UNL     1       2.580   4.841  18.493  0.00  0.00    +0.000 A 
ENDBRANCH   7   9
ENDBRANCH   4   6
ENDBRANCH   3   4
ENDBRANCH   2   3
ENDBRANCH   1   2
BRANCH   1  15
ATOM     15  C   UNL     1       8.824   9.112  18.780  0.00  0.00    +0.000 C 
BRANCH  15  16
ATOM     16  C   UNL     1       9.258  10.534  19.066  0.00  0.00    +0.000 C 
ATOM     17  O   UNL     1       9.349  10.920  20.229  0.00  0.00    +0.000 OA
ATOM     18  N   UNL     1       9.514  11.281  17.934  0.00  0.00    +0.000 N 
ATOM     19  H   UNL     1       9.220  10.926  17.030  0.00  0.00    +0.000 HD
BRANCH  18  20
ATOM     20  C   UNL     1      10.054  12.588  17.894  0.00  0.00    +0.000 A 
ATOM     21  C   UNL     1       9.278  13.739  18.029  0.00  0.00    +0.000 A 
ATOM     22  C   UNL     1       9.868  15.003  17.981  0.00  0.00    +0.000 A 
ATOM     23  C   UNL     1      11.244  15.130  17.798  0.00  0.00    +0.000 A 
ATOM     24  C   UNL     1      12.037  13.990  17.679  0.00  0.00    +0.000 A 
ATOM     25  C   UNL     1      11.441  12.728  17.738  0.00  0.00    +0.000 A 
BRANCH  25  26
ATOM     26  O   UNL     1      12.212  11.597  17.636  0.00  0.00    +0.000 OA
ATOM     27  H   UNL     1      12.537  11.534  16.722  0.00  0.00    +0.000 HD
ENDBRANCH  25  26
ENDBRANCH  18  20
ENDBRANCH  15  16
ENDBRANCH   1  15
TORSDOF 9
ENDMDL
MODEL 3
REMARK VINA RESULT:      -7.4      4.265      6.623
REMARK  Name = 
REMARK  9 active torsions:
REMARK  status: ('A' for Active; 'I' for Inactive)
REMARK    1  A    between atoms: C_2  and  C_3
REMARK    2  A    between atoms: C_3  and  C_4
REMARK    3  A    between atoms: C_4  and  C_5
REMARK    4  A    between atoms: C_5  and  C_6
REMARK    5  A    between atoms: C_6  and  C_7
REMARK    6  A    between atoms: C_7  and  C_8
REMARK    7  A    between atoms: N_10  and  C_11
REMARK    8  A    between atoms: C_16  and  O_17
REMARK    9  A    between atoms: N_18  and  C_19
REMARK                            x       y       z     vdW  Elec       q    Type
REMARK                         _______ _______ _______ _____ _____    ______ ____
ROOT
ATOM      1  C   UNL     1       8.086   7.258  18.386  0.00  0.00    +0.000 C 
ENDROOT
BRANCH   1   2
ATOM      2  C   UNL     1       6.896   6.336  18.118  0.00  0.00    +0.000 C 
BRANCH   2   3
ATOM      3  C   UNL     1       6.777   6.025  16.629  0.00  0.00    +0.000 C 
BRANCH   3   4
ATOM      4  C   UNL     1       5.321   5.961  16.163  0.00  0.00    +0.000 C 
BRANCH   4   6
ATOM      5  O   UNL     1       4.862   3.754  16.980  0.00  0.00    +0.000 OA
ATOM      6  C   UNL     1       4.540   4.939  16.970  0.00  0.00    +0.000 C 
ATOM      7  N   UNL     1       3.462   5.489  17.642  0.00  0.00    +0.000 N 
ATOM      8  H   UNL     1       3.189   6.429  17.390  0.00  0.00    +0.000 HD
BRANCH   7   9
ATOM      9  C   UNL     1       2.638   4.818  18.573  0.00  0.00    +0.000 A 
ATOM     10  C   UNL     1       1.670   3.881  18.199  0.00  0.00    +0.000 A 
ATOM     11  C   UNL     1       0.896   3.228  19.161  0.00  0.00    +0.000 A 
ATOM     12  C   UNL     1       1.080   3.508  20.511  0.00  0.00    +0.000 A 
ATOM     13  C   UNL     1       2.045   4.436  20.898  0.00  0.00    +0.000 A 
ATOM     14  C   UNL     1       2.827   5.082  19.935  0.00  0.00    +0.000 A 
ENDBRANCH   7   9
ENDBRANCH   4   6
ENDBRANCH   3   4
ENDBRANCH   2   3
ENDBRANCH   1   2
BRANCH   1  15
ATOM     15  C   UNL     1       7.883   8.623  17.740  0.00  0.00    +0.000 C 
BRANCH  15  16
ATOM     16  C   UNL     1       8.727   9.684  18.415  0.00  0.00    +0.000 C 
ATOM     17  O   UNL     1       9.133   9.499  19.560  0.00  0.00    +0.000 OA
ATOM     18  N   UNL     1       8.955  10.799  17.635  0.00  0.00    +0.000 N 
ATOM     19  H   UNL     1       8.413  10.931  16.787  0.00  0.00    +0.000 HD
BRANCH  18  20
ATOM     20  C   UNL     1       9.806  11.884  17.949  0.00  0.00    +0.000 A 
ATOM     21  C   UNL     1      11.110  11.721  18.417  0.00  0.00    +0.000 A 
ATOM     22  C   UNL     1      11.904  12.831  18.711  0.00  0.00    +0.000 A 
ATOM     23  C   UNL     1      11.402  14.119  18.538  0.00  0.00    +0.000 A 
ATOM     24  C   UNL     1      10.107  14.302  18.054  0.00  0.00    +0.000 A 
ATOM     25  C   UNL     1       9.323  13.186  17.752  0.00  0.00    +0.000 A 
BRANCH  25  26
ATOM     26  O   UNL     1       8.051  13.352  17.261  0.00  0.00    +0.000 OA
ATOM     27  H   UNL     1       8.117  13.536  16.309  0.00  0.00    +0.000 HD
ENDBRANCH  25  26
ENDBRANCH  18  20
ENDBRANCH  15  16
ENDBRANCH   1  15
TORSDOF 9
ENDMDL
MODEL 4
REMARK VINA RESULT:      -7.4      1.248      5.157
REMARK  Name = 
REMARK  9 active torsions:
REMARK  status: ('A' for Active; 'I' for Inactive)
REMARK    1  A    between atoms: C_2  and  C_3
REMARK    2  A    between atoms: C_3  and  C_4
REMARK    3  A    between atoms: C_4  and  C_5
REMARK    4  A    between atoms: C_5  and  C_6
REMARK    5  A    between atoms: C_6  and  C_7
REMARK    6  A    between atoms: C_7  and  C_8
REMARK    7  A    between atoms: N_10  and  C_11
REMARK    8  A    between atoms: C_16  and  O_17
REMARK    9  A    between atoms: N_18  and  C_19
REMARK                            x       y       z     vdW  Elec       q    Type
REMARK                         _______ _______ _______ _____ _____    ______ ____
ROOT
ATOM      1  C   UNL     1       2.357   2.525  20.711  0.00  0.00    +0.000 C 
ENDROOT
BRANCH   1   2
ATOM      2  C   UNL     1       3.723   2.138  20.144  0.00  0.00    +0.000 C 
BRANCH   2   3
ATOM      3  C   UNL     1       3.570   1.412  18.810  0.00  0.00    +0.000 C 
BRANCH   3   4
ATOM      4  C   UNL     1       2.795   2.240  17.782  0.00  0.00    +0.000 C 
BRANCH   4   6
ATOM      5  O   UNL     1       2.755   4.618  17.474  0.00  0.00    +0.000 OA
ATOM      6  C   UNL     1       3.436   3.604  17.593  0.00  0.00    +0.000 C 
ATOM      7  N   UNL     1       4.819   3.550  17.558  0.00  0.00    +0.000 N 
ATOM      8  H   UNL     1       5.246   2.639  17.463  0.00  0.00    +0.000 HD
BRANCH   7   9
ATOM      9  C   UNL     1       5.688   4.664  17.529  0.00  0.00    +0.000 A 
ATOM     10  C   UNL     1       5.755   5.553  16.452  0.00  0.00    +0.000 A 
ATOM     11  C   UNL     1       6.617   6.652  16.483  0.00  0.00    +0.000 A 
ATOM     12  C   UNL     1       7.426   6.872  17.593  0.00  0.00    +0.000 A 
ATOM     13  C   UNL     1       7.366   5.997  18.675  0.00  0.00    +0.000 A 
ATOM     14  C   UNL     1       6.495   4.902  18.648  0.00  0.00    +0.000 A 
ENDBRANCH   7   9
ENDBRANCH   4   6
ENDBRANCH   3   4
ENDBRANCH   2   3
ENDBRANCH   1   2
BRANCH   1  15
ATOM     15  C   UNL     1       2.428   3.847  21.466  0.00  0.00    +0.000 C 
BRANCH  15  16
ATOM     16  C   UNL     1       1.683   4.942  20.732  0.00  0.00    +0.000 C 
ATOM     17  O   UNL     1       0.657   4.670  20.113  0.00  0.00    +0.000 OA
ATOM     18  N   UNL     1       2.269   6.187  20.838  0.00  0.00    +0.000 N 
ATOM     19  H   UNL     1       3.212   6.261  21.205  0.00  0.00    +0.000 HD
BRANCH  18  20
ATOM     20  C   UNL     1       1.735   7.410  20.369  0.00  0.00    +0.000 A 
ATOM     21  C   UNL     1       0.838   8.183  21.106  0.00  0.00    +0.000 A 
ATOM     22  C   UNL     1       0.343   9.383  20.590  0.00  0.00    +0.000 A 
ATOM     23  C   UNL     1       0.743   9.823  19.330  0.00  0.00    +0.000 A 
ATOM     24  C   UNL     1       1.653   9.072  18.587  0.00  0.00    +0.000 A 
ATOM     25  C   UNL     1       2.151   7.878  19.114  0.00  0.00    +0.000 A 
BRANCH  25  26
ATOM     26  O   UNL     1       3.058   7.136  18.399  0.00  0.00    +0.000 OA
ATOM     27  H   UNL     1       2.584   6.393  17.989  0.00  0.00    +0.000 HD
ENDBRANCH  25  26
ENDBRANCH  18  20
ENDBRANCH  15  16
ENDBRANCH   1  15
TORSDOF 9
ENDMDL
MODEL 5
REMARK VINA RESULT:      -7.3      4.206      7.475
REMARK  Name = 
REMARK  9 active torsions:
REMARK  status: ('A' for Active; 'I' for Inactive)
REMARK    1  A    between atoms: C_2  and  C_3
REMARK    2  A    between atoms: C_3  and  C_4
REMARK    3  A    between atoms: C_4  and  C_5
REMARK    4  A    between atoms: C_5  and  C_6
REMARK    5  A    between atoms: C_6  and  C_7
REMARK    6  A    between atoms: C_7  and  C_8
REMARK    7  A    between atoms: N_10  and  C_11
REMARK    8  A    between atoms: C_16  and  O_17
REMARK    9  A    between atoms: N_18  and  C_19
REMARK                            x       y       z     vdW  Elec       q    Type
REMARK                         _______ _______ _______ _____ _____    ______ ____
ROOT
ATOM      1  C   UNL     1       6.837   6.359  16.463  0.00  0.00    +0.000 C 
ENDROOT
BRANCH   1   2
ATOM      2  C   UNL     1       6.793   7.252  17.702  0.00  0.00    +0.000 C 
BRANCH   2   3
ATOM      3  C   UNL     1       7.782   8.407  17.573  0.00  0.00    +0.000 C 
BRANCH   3   4
ATOM      4  C   UNL     1       8.700   8.526  18.793  0.00  0.00    +0.000 C 
BRANCH   4   6
ATOM      5  O   UNL     1       9.315  10.377  20.188  0.00  0.00    +0.000 OA
ATOM      6  C   UNL     1       9.064   9.977  19.055  0.00  0.00    +0.000 C 
ATOM      7  N   UNL     1       9.056  10.752  17.908  0.00  0.00    +0.000 N 
ATOM      8  H   UNL     1       8.637  10.351  17.080  0.00  0.00    +0.000 HD
BRANCH   7   9
ATOM      9  C   UNL     1       9.482  12.096  17.816  0.00  0.00    +0.000 A 
ATOM     10  C   UNL     1       8.648  13.182  18.103  0.00  0.00    +0.000 A 
ATOM     11  C   UNL     1       9.125  14.493  18.018  0.00  0.00    +0.000 A 
ATOM     12  C   UNL     1      10.442  14.732  17.641  0.00  0.00    +0.000 A 
ATOM     13  C   UNL     1      11.285  13.659  17.357  0.00  0.00    +0.000 A 
ATOM     14  C   UNL     1      10.810  12.346  17.453  0.00  0.00    +0.000 A 
ENDBRANCH   7   9
ENDBRANCH   4   6
ENDBRANCH   3   4
ENDBRANCH   2   3
ENDBRANCH   1   2
BRANCH   1  15
ATOM     15  C   UNL     1       5.433   6.002  15.990  0.00  0.00    +0.000 C 
BRANCH  15  16
ATOM     16  C   UNL     1       4.726   5.109  16.989  0.00  0.00    +0.000 C 
ATOM     17  O   UNL     1       5.230   4.035  17.307  0.00  0.00    +0.000 OA
ATOM     18  N   UNL     1       3.531   5.622  17.452  0.00  0.00    +0.000 N 
ATOM     19  H   UNL     1       3.118   6.419  16.980  0.00  0.00    +0.000 HD
BRANCH  18  20
ATOM     20  C   UNL     1       2.724   5.076  18.478  0.00  0.00    +0.000 A 
ATOM     21  C   UNL     1       2.613   5.645  19.746  0.00  0.00    +0.000 A 
ATOM     22  C   UNL     1       1.799   5.061  20.719  0.00  0.00    +0.000 A 
ATOM     23  C   UNL     1       1.085   3.899  20.431  0.00  0.00    +0.000 A 
ATOM     24  C   UNL     1       1.171   3.326  19.163  0.00  0.00    +0.000 A 
ATOM     25  C   UNL     1       1.978   3.923  18.192  0.00  0.00    +0.000 A 
BRANCH  25  26
ATOM     26  O   UNL     1       2.060   3.377  16.935  0.00  0.00    +0.000 OA
ATOM     27  H   UNL     1       1.679   4.012  16.305  0.00  0.00    +0.000 HD
ENDBRANCH  25  26
ENDBRANCH  18  20
ENDBRANCH  15  16
ENDBRANCH   1  15
TORSDOF 9
ENDMDL
MODEL 6
REMARK VINA RESULT:      -7.3      4.129      7.777
REMARK  Name = 
REMARK  9 active torsions:
REMARK  status: ('A' for Active; 'I' for Inactive)
REMARK    1  A    between atoms: C_2  and  C_3
REMARK    2  A    between atoms: C_3  and  C_4
REMARK    3  A    between atoms: C_4  and  C_5
REMARK    4  A    between atoms: C_5  and  C_6
REMARK    5  A    between atoms: C_6  and  C_7
REMARK    6  A    between atoms: C_7  and  C_8
REMARK    7  A    between atoms: N_10  and  C_11
REMARK    8  A    between atoms: C_16  and  O_17
REMARK    9  A    between atoms: N_18  and  C_19
REMARK                            x       y       z     vdW  Elec       q    Type
REMARK                         _______ _______ _______ _____ _____    ______ ____
ROOT
ATOM      1  C   UNL     1       7.180   5.725  16.752  0.00  0.00    +0.000 C 
ENDROOT
BRANCH   1   2
ATOM      2  C   UNL     1       6.732   7.059  17.351  0.00  0.00    +0.000 C 
BRANCH   2   3
ATOM      3  C   UNL     1       7.921   7.819  17.931  0.00  0.00    +0.000 C 
BRANCH   3   4
ATOM      4  C   UNL     1       7.881   9.310  17.590  0.00  0.00    +0.000 C 
BRANCH   4   6
ATOM      5  O   UNL     1       9.107   9.682  19.617  0.00  0.00    +0.000 OA
ATOM      6  C   UNL     1       8.805  10.098  18.502  0.00  0.00    +0.000 C 
ATOM      7  N   UNL     1       9.225  11.293  17.944  0.00  0.00    +0.000 N 
ATOM      8  H   UNL     1       8.746  11.610  17.112  0.00  0.00    +0.000 HD
BRANCH   7   9
ATOM      9  C   UNL     1      10.188  12.168  18.494  0.00  0.00    +0.000 A 
ATOM     10  C   UNL     1      10.036  13.559  18.510  0.00  0.00    +0.000 A 
ATOM     11  C   UNL     1      11.009  14.379  19.086  0.00  0.00    +0.000 A 
ATOM     12  C   UNL     1      12.150  13.817  19.651  0.00  0.00    +0.000 A 
ATOM     13  C   UNL     1      12.311  12.432  19.646  0.00  0.00    +0.000 A 
ATOM     14  C   UNL     1      11.332  11.611  19.078  0.00  0.00    +0.000 A 
ENDBRANCH   7   9
ENDBRANCH   4   6
ENDBRANCH   3   4
ENDBRANCH   2   3
ENDBRANCH   1   2
BRANCH   1  15
ATOM     15  C   UNL     1       6.026   4.731  16.695  0.00  0.00    +0.000 C 
BRANCH  15  16
ATOM     16  C   UNL     1       5.516   4.399  18.082  0.00  0.00    +0.000 C 
ATOM     17  O   UNL     1       6.293   4.411  19.034  0.00  0.00    +0.000 OA
ATOM     18  N   UNL     1       4.170   4.098  18.127  0.00  0.00    +0.000 N 
ATOM     19  H   UNL     1       3.671   3.927  17.261  0.00  0.00    +0.000 HD
BRANCH  18  20
ATOM     20  C   UNL     1       3.397   3.877  19.292  0.00  0.00    +0.000 A 
ATOM     21  C   UNL     1       2.329   4.692  19.665  0.00  0.00    +0.000 A 
ATOM     22  C   UNL     1       1.602   4.424  20.826  0.00  0.00    +0.000 A 
ATOM     23  C   UNL     1       1.936   3.334  21.628  0.00  0.00    +0.000 A 
ATOM     24  C   UNL     1       2.990   2.498  21.261  0.00  0.00    +0.000 A 
ATOM     25  C   UNL     1       3.705   2.767  20.092  0.00  0.00    +0.000 A 
BRANCH  25  26
ATOM     26  O   UNL     1       4.736   1.944  19.711  0.00  0.00    +0.000 OA
ATOM     27  H   UNL     1       4.750   1.906  18.740  0.00  0.00    +0.000 HD
ENDBRANCH  25  26
ENDBRANCH  18  20
ENDBRANCH  15  16
ENDBRANCH   1  15
TORSDOF 9
ENDMDL
MODEL 7
REMARK VINA RESULT:      -7.2      1.661      2.636
REMARK  Name = 
REMARK  9 active torsions:
REMARK  status: ('A' for Active; 'I' for Inactive)
REMARK    1  A    between atoms: C_2  and  C_3
REMARK    2  A    between atoms: C_3  and  C_4
REMARK    3  A    between atoms: C_4  and  C_5
REMARK    4  A    between atoms: C_5  and  C_6
REMARK    5  A    between atoms: C_6  and  C_7
REMARK    6  A    between atoms: C_7  and  C_8
REMARK    7  A    between atoms: N_10  and  C_11
REMARK    8  A    between atoms: C_16  and  O_17
REMARK    9  A    between atoms: N_18  and  C_19
REMARK                            x       y       z     vdW  Elec       q    Type
REMARK                         _______ _______ _______ _____ _____    ______ ____
ROOT
ATOM      1  C   UNL     1       1.779   2.689  18.260  0.00  0.00    +0.000 C 
ENDROOT
BRANCH   1   2
ATOM      2  C   UNL     1       1.882   2.997  19.753  0.00  0.00    +0.000 C 
BRANCH   2   3
ATOM      3  C   UNL     1       1.216   4.331  20.078  0.00  0.00    +0.000 C 
BRANCH   3   4
ATOM      4  C   UNL     1       2.127   5.252  20.894  0.00  0.00    +0.000 C 
BRANCH   4   6
ATOM      5  O   UNL     1       2.322   7.208  19.520  0.00  0.00    +0.000 OA
ATOM      6  C   UNL     1       1.872   6.709  20.547  0.00  0.00    +0.000 C 
ATOM      7  N   UNL     1       1.119   7.368  21.503  0.00  0.00    +0.000 N 
ATOM      8  H   UNL     1       0.985   6.903  22.390  0.00  0.00    +0.000 HD
BRANCH   7   9
ATOM      9  C   UNL     1       0.611   8.682  21.393  0.00  0.00    +0.000 A 
ATOM     10  C   UNL     1       0.519   9.366  20.176  0.00  0.00    +0.000 A 
ATOM     11  C   UNL     1      -0.012  10.657  20.119  0.00  0.00    +0.000 A 
ATOM     12  C   UNL     1      -0.454  11.281  21.281  0.00  0.00    +0.000 A 
ATOM     13  C   UNL     1      -0.372  10.609  22.499  0.00  0.00    +0.000 A 
ATOM     14  C   UNL     1       0.149   9.312  22.554  0.00  0.00    +0.000 A 
ENDBRANCH   7   9
ENDBRANCH   4   6
ENDBRANCH   3   4
ENDBRANCH   2   3
ENDBRANCH   1   2
BRANCH   1  15
ATOM     15  C   UNL     1       2.178   3.896  17.419  0.00  0.00    +0.000 C 
BRANCH  15  16
ATOM     16  C   UNL     1       3.674   4.129  17.464  0.00  0.00    +0.000 C 
ATOM     17  O   UNL     1       4.438   3.249  17.075  0.00  0.00    +0.000 OA
ATOM     18  N   UNL     1       4.034   5.363  17.967  0.00  0.00    +0.000 N 
ATOM     19  H   UNL     1       3.336   5.929  18.437  0.00  0.00    +0.000 HD
BRANCH  18  20
ATOM     20  C   UNL     1       5.340   5.904  18.008  0.00  0.00    +0.000 A 
ATOM     21  C   UNL     1       5.743   6.987  17.228  0.00  0.00    +0.000 A 
ATOM     22  C   UNL     1       7.047   7.478  17.311  0.00  0.00    +0.000 A 
ATOM     23  C   UNL     1       7.964   6.890  18.181  0.00  0.00    +0.000 A 
ATOM     24  C   UNL     1       7.574   5.818  18.982  0.00  0.00    +0.000 A 
ATOM     25  C   UNL     1       6.265   5.339  18.899  0.00  0.00    +0.000 A 
BRANCH  25  26
ATOM     26  O   UNL     1       5.864   4.293  19.693  0.00  0.00    +0.000 OA
ATOM     27  H   UNL     1       4.925   4.118  19.510  0.00  0.00    +0.000 HD
ENDBRANCH  25  26
ENDBRANCH  18  20
ENDBRANCH  15  16
ENDBRANCH   1  15
TORSDOF 9
ENDMDL
MODEL 8
REMARK VINA RESULT:      -7.2      0.531      1.116
REMARK  Name = 
REMARK  9 active torsions:
REMARK  status: ('A' for Active; 'I' for Inactive)
REMARK    1  A    between atoms: C_2  and  C_3
REMARK    2  A    between atoms: C_3  and  C_4
REMARK    3  A    between atoms: C_4  and  C_5
REMARK    4  A    between atoms: C_5  and  C_6
REMARK    5  A    between atoms: C_6  and  C_7
REMARK    6  A    between atoms: C_7  and  C_8
REMARK    7  A    between atoms: N_10  and  C_11
REMARK    8  A    between atoms: C_16  and  O_17
REMARK    9  A    between atoms: N_18  and  C_19
REMARK                            x       y       z     vdW  Elec       q    Type
REMARK                         _______ _______ _______ _____ _____    ______ ____
ROOT
ATOM      1  C   UNL     1       2.691   1.946  18.196  0.00  0.00    +0.000 C 
ENDROOT
BRANCH   1   2
ATOM      2  C   UNL     1       1.738   2.496  19.256  0.00  0.00    +0.000 C 
BRANCH   2   3
ATOM      3  C   UNL     1       2.322   2.317  20.655  0.00  0.00    +0.000 C 
BRANCH   3   4
ATOM      4  C   UNL     1       2.315   3.620  21.459  0.00  0.00    +0.000 C 
BRANCH   4   6
ATOM      5  O   UNL     1       0.478   4.725  20.384  0.00  0.00    +0.000 OA
ATOM      6  C   UNL     1       1.673   4.743  20.662  0.00  0.00    +0.000 C 
ATOM      7  N   UNL     1       2.574   5.728  20.296  0.00  0.00    +0.000 N 
ATOM      8  H   UNL     1       3.558   5.523  20.411  0.00  0.00    +0.000 HD
BRANCH   7   9
ATOM      9  C   UNL     1       2.250   6.953  19.672  0.00  0.00    +0.000 A 
ATOM     10  C   UNL     1       2.551   7.232  18.335  0.00  0.00    +0.000 A 
ATOM     11  C   UNL     1       2.189   8.452  17.759  0.00  0.00    +0.000 A 
ATOM     12  C   UNL     1       1.523   9.410  18.517  0.00  0.00    +0.000 A 
ATOM     13  C   UNL     1       1.213   9.143  19.849  0.00  0.00    +0.000 A 
ATOM     14  C   UNL     1       1.566   7.917  20.422  0.00  0.00    +0.000 A 
ENDBRANCH   7   9
ENDBRANCH   4   6
ENDBRANCH   3   4
ENDBRANCH   2   3
ENDBRANCH   1   2
BRANCH   1  15
ATOM     15  C   UNL     1       3.272   3.067  17.342  0.00  0.00    +0.000 C 
BRANCH  15  16
ATOM     16  C   UNL     1       4.468   3.708  18.014  0.00  0.00    +0.000 C 
ATOM     17  O   UNL     1       5.022   3.132  18.947  0.00  0.00    +0.000 OA
ATOM     18  N   UNL     1       4.820   4.932  17.482  0.00  0.00    +0.000 N 
ATOM     19  H   UNL     1       4.180   5.400  16.850  0.00  0.00    +0.000 HD
BRANCH  18  20
ATOM     20  C   UNL     1       5.962   5.697  17.819  0.00  0.00    +0.000 A 
ATOM     21  C   UNL     1       6.843   5.344  18.840  0.00  0.00    +0.000 A 
ATOM     22  C   UNL     1       7.955   6.138  19.127  0.00  0.00    +0.000 A 
ATOM     23  C   UNL     1       8.198   7.297  18.391  0.00  0.00    +0.000 A 
ATOM     24  C   UNL     1       7.338   7.656  17.354  0.00  0.00    +0.000 A 
ATOM     25  C   UNL     1       6.234   6.850  17.067  0.00  0.00    +0.000 A 
BRANCH  25  26
ATOM     26  O   UNL     1       5.387   7.184  16.040  0.00  0.00    +0.000 OA
ATOM     27  H   UNL     1       4.667   7.725  16.406  0.00  0.00    +0.000 HD
ENDBRANCH  25  26
ENDBRANCH  18  20
ENDBRANCH  15  16
ENDBRANCH   1  15
TORSDOF 9
ENDMDL
MODEL 9
REMARK VINA RESULT:      -7.2      1.675      1.953
REMARK  Name = 
REMARK  9 active torsions:
REMARK  status: ('A' for Active; 'I' for Inactive)
REMARK    1  A    between atoms: C_2  and  C_3
REMARK    2  A    between atoms: C_3  and  C_4
REMARK    3  A    between atoms: C_4  and  C_5
REMARK    4  A    between atoms: C_5  and  C_6
REMARK    5  A    between atoms: C_6  and  C_7
REMARK    6  A    between atoms: C_7  and  C_8
REMARK    7  A    between atoms: N_10  and  C_11
REMARK    8  A    between atoms: C_16  and  O_17
REMARK    9  A    between atoms: N_18  and  C_19
REMARK                            x       y       z     vdW  Elec       q    Type
REMARK                         _______ _______ _______ _____ _____    ______ ____
ROOT
ATOM      1  C   UNL     1       1.275   3.245  18.354  0.00  0.00    +0.000 C 
ENDROOT
BRANCH   1   2
ATOM      2  C   UNL     1       0.850   3.037  19.807  0.00  0.00    +0.000 C 
BRANCH   2   3
ATOM      3  C   UNL     1       0.888   4.355  20.576  0.00  0.00    +0.000 C 
BRANCH   3   4
ATOM      4  C   UNL     1       2.293   4.960  20.625  0.00  0.00    +0.000 C 
BRANCH   4   6
ATOM      5  O   UNL     1       2.892   6.677  19.062  0.00  0.00    +0.000 OA
ATOM      6  C   UNL     1       2.288   6.381  20.089  0.00  0.00    +0.000 C 
ATOM      7  N   UNL     1       1.564   7.255  20.881  0.00  0.00    +0.000 N 
ATOM      8  H   UNL     1       1.289   6.931  21.798  0.00  0.00    +0.000 HD
BRANCH   7   9
ATOM      9  C   UNL     1       1.269   8.602  20.570  0.00  0.00    +0.000 A 
ATOM     10  C   UNL     1       1.033   9.577  21.544  0.00  0.00    +0.000 A 
ATOM     11  C   UNL     1       0.767  10.900  21.183  0.00  0.00    +0.000 A 
ATOM     12  C   UNL     1       0.731  11.262  19.840  0.00  0.00    +0.000 A 
ATOM     13  C   UNL     1       0.969  10.302  18.859  0.00  0.00    +0.000 A 
ATOM     14  C   UNL     1       1.246   8.979  19.222  0.00  0.00    +0.000 A 
ENDBRANCH   7   9
ENDBRANCH   4   6
ENDBRANCH   3   4
ENDBRANCH   2   3
ENDBRANCH   1   2
BRANCH   1  15
ATOM     15  C   UNL     1       2.277   2.183  17.915  0.00  0.00    +0.000 C 
BRANCH  15  16
ATOM     16  C   UNL     1       3.683   2.537  18.354  0.00  0.00    +0.000 C 
ATOM     17  O   UNL     1       4.357   1.710  18.962  0.00  0.00    +0.000 OA
ATOM     18  N   UNL     1       4.072   3.816  18.009  0.00  0.00    +0.000 N 
ATOM     19  H   UNL     1       3.373   4.476  17.684  0.00  0.00    +0.000 HD
BRANCH  18  20
ATOM     20  C   UNL     1       5.361   4.375  18.172  0.00  0.00    +0.000 A 
ATOM     21  C   UNL     1       5.747   5.085  19.308  0.00  0.00    +0.000 A 
ATOM     22  C   UNL     1       7.036   5.613  19.412  0.00  0.00    +0.000 A 
ATOM     23  C   UNL     1       7.954   5.435  18.379  0.00  0.00    +0.000 A 
ATOM     24  C   UNL     1       7.590   4.713  17.243  0.00  0.00    +0.000 A 
ATOM     25  C   UNL     1       6.303   4.178  17.151  0.00  0.00    +0.000 A 
BRANCH  25  26
ATOM     26  O   UNL     1       5.937   3.453  16.045  0.00  0.00    +0.000 OA
ATOM     27  H   UNL     1       6.215   2.531  16.182  0.00  0.00    +0.000 HD
ENDBRANCH  25  26
ENDBRANCH  18  20
ENDBRANCH  15  16
ENDBRANCH   1  15
TORSDOF 9
ENDMDL
