MODEL 1
REMARK VINA RESULT:      -7.9      0.000      0.000
REMARK  Name = 
REMARK  6 active torsions:
REMARK  status: ('A' for Active; 'I' for Inactive)
REMARK    1  A    between atoms: C_1  and  O_2
REMARK    2  A    between atoms: O_2  and  C_3
REMARK    3  A    between atoms: C_9  and  C_10
REMARK    4  A    between atoms: C_15  and  C_16
REMARK    5  A    between atoms: C_19  and  C_20
REMARK    6  A    between atoms: C_21  and  C_22
REMARK                            x       y       z     vdW  Elec       q    Type
REMARK                         _______ _______ _______ _____ _____    ______ ____
ROOT
ATOM      1  C   UNL     1       0.306  10.601  21.605  0.00  0.00    +0.000 C 
ATOM      2  O   UNL     1       0.810   9.810  22.404  0.00  0.00    +0.000 OA
ATOM      3  N   UNL     1       0.413  10.527  20.239  0.00  0.00    +0.000 N 
ATOM      4  C   UNL     1       1.101   9.516  19.635  0.00  0.00    +0.000 A 
ATOM      5  N   UNL     1       1.496   8.380  20.140  0.00  0.00    +0.000 NA
ATOM      6  C   UNL     1       2.161   7.641  19.183  0.00  0.00    +0.000 A 
ATOM      7  C   UNL     1       2.341   8.293  17.977  0.00  0.00    +0.000 A 
ATOM      8  S   UNL     1       1.508   9.798  18.000  0.00  0.00    +0.000 S 
ATOM      9  H   UNL     1       0.042  11.265  19.655  0.00  0.00    +0.000 HD
ENDROOT
BRANCH   6  10
ATOM     10  C   UNL     1       2.637   6.297  19.477  0.00  0.00    +0.000 A 
ATOM     11  C   UNL     1       3.864   5.870  18.959  0.00  0.00    +0.000 A 
ATOM     12  C   UNL     1       4.333   4.582  19.224  0.00  0.00    +0.000 A 
ATOM     13  C   UNL     1       3.591   3.694  20.017  0.00  0.00    +0.000 A 
ATOM     14  C   UNL     1       4.120   2.303  20.236  0.00  0.00    +0.000 C 
ATOM     15  C   UNL     1       2.370   4.122  20.571  0.00  0.00    +0.000 A 
ATOM     16  C   UNL     1       1.507   3.252  21.443  0.00  0.00    +0.000 C 
ATOM     17  C   UNL     1       1.912   5.423  20.296  0.00  0.00    +0.000 A 
ENDBRANCH   6  10
BRANCH   1  24
ATOM     18  C   UNL     1      -0.017  13.120  22.089  0.00  0.00    +0.000 A 
ATOM     19  C   UNL     1      -0.836  14.124  22.634  0.00  0.00    +0.000 A 
ATOM     20  C   UNL     1      -2.025  13.805  23.290  0.00  0.00    +0.000 A 
ATOM     21  C   UNL     1      -2.415  12.478  23.404  0.00  0.00    +0.000 A 
ATOM     22 CL   UNL     1      -3.878  12.087  24.218  0.00  0.00    +0.000 Cl
ATOM     23  C   UNL     1      -1.633  11.472  22.852  0.00  0.00    +0.000 A 
ATOM     24  C   UNL     1      -0.435  11.776  22.175  0.00  0.00    +0.000 A 
BRANCH  18  26
ATOM     25  C   UNL     1       1.033  14.137  20.217  0.00  0.00    +0.000 C 
ATOM     26  O   UNL     1       1.157  13.408  21.439  0.00  0.00    +0.000 OA
ENDBRANCH  18  26
ENDBRANCH   1  24
TORSDOF 3
ENDMDL
MODEL 2
REMARK VINA RESULT:      -7.6      0.709      1.467
REMARK  Name = 
REMARK  6 active torsions:
REMARK  status: ('A' for Active; 'I' for Inactive)
REMARK    1  A    between atoms: C_1  and  O_2
REMARK    2  A    between atoms: O_2  and  C_3
REMARK    3  A    between atoms: C_9  and  C_10
REMARK    4  A    between atoms: C_15  and  C_16
REMARK    5  A    between atoms: C_19  and  C_20
REMARK    6  A    between atoms: C_21  and  C_22
REMARK                            x       y       z     vdW  Elec       q    Type
REMARK                         _______ _______ _______ _____ _____    ______ ____
ROOT
ATOM      1  C   UNL     1       0.054  10.867  21.737  0.00  0.00    +0.000 C 
ATOM      2  O   UNL     1       0.472   9.993  22.499  0.00  0.00    +0.000 OA
ATOM      3  N   UNL     1       0.251  10.898  20.380  0.00  0.00    +0.000 N 
ATOM      4  C   UNL     1       0.939   9.909  19.740  0.00  0.00    +0.000 A 
ATOM      5  N   UNL     1       1.254   8.720  20.174  0.00  0.00    +0.000 NA
ATOM      6  C   UNL     1       1.953   8.031  19.204  0.00  0.00    +0.000 A 
ATOM      7  C   UNL     1       2.240   8.769  18.070  0.00  0.00    +0.000 A 
ATOM      8  S   UNL     1       1.466  10.302  18.164  0.00  0.00    +0.000 S 
ATOM      9  H   UNL     1      -0.051  11.696  19.837  0.00  0.00    +0.000 HD
ENDROOT
BRANCH   6  10
ATOM     10  C   UNL     1       2.355   6.648  19.416  0.00  0.00    +0.000 A 
ATOM     11  C   UNL     1       1.913   5.966  20.554  0.00  0.00    +0.000 A 
ATOM     12  C   UNL     1       2.294   4.643  20.779  0.00  0.00    +0.000 A 
ATOM     13  C   UNL     1       3.121   3.967  19.869  0.00  0.00    +0.000 A 
ATOM     14  C   UNL     1       3.539   2.557  20.180  0.00  0.00    +0.000 C 
ATOM     15  C   UNL     1       3.548   4.630  18.703  0.00  0.00    +0.000 A 
ATOM     16  C   UNL     1       4.424   3.992  17.661  0.00  0.00    +0.000 C 
ATOM     17  C   UNL     1       3.153   5.964  18.491  0.00  0.00    +0.000 A 
ENDBRANCH   6  10
BRANCH   1  24
ATOM     18  C   UNL     1      -0.245  13.366  22.329  0.00  0.00    +0.000 A 
ATOM     19  C   UNL     1      -1.057  14.354  22.912  0.00  0.00    +0.000 A 
ATOM     20  C   UNL     1      -2.253  14.020  23.546  0.00  0.00    +0.000 A 
ATOM     21  C   UNL     1      -2.659  12.694  23.601  0.00  0.00    +0.000 A 
ATOM     22 CL   UNL     1      -4.131  12.284  24.388  0.00  0.00    +0.000 Cl
ATOM     23  C   UNL     1      -1.884  11.704  23.009  0.00  0.00    +0.000 A 
ATOM     24  C   UNL     1      -0.678  12.024  22.354  0.00  0.00    +0.000 A 
BRANCH  18  26
ATOM     25  C   UNL     1       1.385  15.019  21.828  0.00  0.00    +0.000 C 
ATOM     26  O   UNL     1       0.936  13.669  21.699  0.00  0.00    +0.000 OA
ENDBRANCH  18  26
ENDBRANCH   1  24
TORSDOF 3
ENDMDL
MODEL 3
REMARK VINA RESULT:      -7.4      5.320      9.600
REMARK  Name = 
REMARK  6 active torsions:
REMARK  status: ('A' for Active; 'I' for Inactive)
REMARK    1  A    between atoms: C_1  and  O_2
REMARK    2  A    between atoms: O_2  and  C_3
REMARK    3  A    between atoms: C_9  and  C_10
REMARK    4  A    between atoms: C_15  and  C_16
REMARK    5  A    between atoms: C_19  and  C_20
REMARK    6  A    between atoms: C_21  and  C_22
REMARK                            x       y       z     vdW  Elec       q    Type
REMARK                         _______ _______ _______ _____ _____    ______ ____
ROOT
ATOM      1  C   UNL     1       4.663   5.872  16.643  0.00  0.00    +0.000 C 
ATOM      2  O   UNL     1       4.719   7.100  16.731  0.00  0.00    +0.000 OA
ATOM      3  N   UNL     1       3.952   5.047  17.477  0.00  0.00    +0.000 N 
ATOM      4  C   UNL     1       3.206   5.548  18.503  0.00  0.00    +0.000 A 
ATOM      5  N   UNL     1       2.809   6.775  18.702  0.00  0.00    +0.000 NA
ATOM      6  C   UNL     1       2.069   6.851  19.864  0.00  0.00    +0.000 A 
ATOM      7  C   UNL     1       2.005   5.672  20.583  0.00  0.00    +0.000 A 
ATOM      8  S   UNL     1       2.749   4.406  19.687  0.00  0.00    +0.000 S 
ATOM      9  H   UNL     1       4.027   4.042  17.390  0.00  0.00    +0.000 HD
ENDROOT
BRANCH   6  10
ATOM     10  C   UNL     1       1.447   8.104  20.271  0.00  0.00    +0.000 A 
ATOM     11  C   UNL     1       1.321   9.145  19.346  0.00  0.00    +0.000 A 
ATOM     12  C   UNL     1       0.735  10.356  19.719  0.00  0.00    +0.000 A 
ATOM     13  C   UNL     1       0.256  10.553  21.023  0.00  0.00    +0.000 A 
ATOM     14  C   UNL     1      -0.326  11.890  21.386  0.00  0.00    +0.000 C 
ATOM     15  C   UNL     1       0.348   9.502  21.955  0.00  0.00    +0.000 A 
ATOM     16  C   UNL     1      -0.146   9.607  23.371  0.00  0.00    +0.000 C 
ATOM     17  C   UNL     1       0.940   8.287  21.563  0.00  0.00    +0.000 A 
ENDBRANCH   6  10
BRANCH   1  24
ATOM     18  C   UNL     1       6.892   5.090  15.593  0.00  0.00    +0.000 A 
ATOM     19  C   UNL     1       7.531   4.417  14.537  0.00  0.00    +0.000 A 
ATOM     20  C   UNL     1       6.802   3.920  13.456  0.00  0.00    +0.000 A 
ATOM     21  C   UNL     1       5.424   4.082  13.420  0.00  0.00    +0.000 A 
ATOM     22 CL   UNL     1       4.529   3.474  12.085  0.00  0.00    +0.000 Cl
ATOM     23  C   UNL     1       4.771   4.722  14.465  0.00  0.00    +0.000 A 
ATOM     24  C   UNL     1       5.489   5.221  15.570  0.00  0.00    +0.000 A 
BRANCH  18  26
ATOM     25  C   UNL     1       7.700   4.722  17.796  0.00  0.00    +0.000 C 
ATOM     26  O   UNL     1       7.587   5.589  16.667  0.00  0.00    +0.000 OA
ENDBRANCH  18  26
ENDBRANCH   1  24
TORSDOF 3
ENDMDL
MODEL 4
REMARK VINA RESULT:      -7.4      1.420      2.334
REMARK  Name = 
REMARK  6 active torsions:
REMARK  status: ('A' for Active; 'I' for Inactive)
REMARK    1  A    between atoms: C_1  and  O_2
REMARK    2  A    between atoms: O_2  and  C_3
REMARK    3  A    between atoms: C_9  and  C_10
REMARK    4  A    between atoms: C_15  and  C_16
REMARK    5  A    between atoms: C_19  and  C_20
REMARK    6  A    between atoms: C_21  and  C_22
REMARK                            x       y       z     vdW  Elec       q    Type
REMARK                         _______ _______ _______ _____ _____    ______ ____
ROOT
ATOM      1  C   UNL     1      -0.819  11.561  22.359  0.00  0.00    +0.000 C 
ATOM      2  O   UNL     1      -0.291  10.649  22.998  0.00  0.00    +0.000 OA
ATOM      3  N   UNL     1      -0.666  11.780  21.014  0.00  0.00    +0.000 N 
ATOM      4  C   UNL     1       0.103  10.957  20.244  0.00  0.00    +0.000 A 
ATOM      5  N   UNL     1       0.553   9.764  20.520  0.00  0.00    +0.000 NA
ATOM      6  C   UNL     1       1.292   9.279  19.460  0.00  0.00    +0.000 A 
ATOM      7  C   UNL     1       1.469  10.178  18.425  0.00  0.00    +0.000 A 
ATOM      8  S   UNL     1       0.542  11.596  18.722  0.00  0.00    +0.000 S 
ATOM      9  H   UNL     1      -1.064  12.602  20.579  0.00  0.00    +0.000 HD
ENDROOT
BRANCH   6  10
ATOM     10  C   UNL     1       1.843   7.932  19.491  0.00  0.00    +0.000 A 
ATOM     11  C   UNL     1       1.522   7.078  20.551  0.00  0.00    +0.000 A 
ATOM     12  C   UNL     1       2.046   5.785  20.602  0.00  0.00    +0.000 A 
ATOM     13  C   UNL     1       2.898   5.313  19.592  0.00  0.00    +0.000 A 
ATOM     14  C   UNL     1       3.471   3.929  19.716  0.00  0.00    +0.000 C 
ATOM     15  C   UNL     1       3.204   6.151  18.502  0.00  0.00    +0.000 A 
ATOM     16  C   UNL     1       4.095   5.736  17.365  0.00  0.00    +0.000 C 
ATOM     17  C   UNL     1       2.666   7.450  18.466  0.00  0.00    +0.000 A 
ENDBRANCH   6  10
BRANCH   1  24
ATOM     18  C   UNL     1      -1.265  13.869  23.434  0.00  0.00    +0.000 A 
ATOM     19  C   UNL     1      -2.166  14.698  24.126  0.00  0.00    +0.000 A 
ATOM     20  C   UNL     1      -3.408  14.219  24.544  0.00  0.00    +0.000 A 
ATOM     21  C   UNL     1      -3.769  12.907  24.271  0.00  0.00    +0.000 A 
ATOM     22 CL   UNL     1      -5.297  12.317  24.793  0.00  0.00    +0.000 Cl
ATOM     23  C   UNL     1      -2.904  12.079  23.568  0.00  0.00    +0.000 A 
ATOM     24  C   UNL     1      -1.651  12.548  23.127  0.00  0.00    +0.000 A 
BRANCH  18  26
ATOM     25  C   UNL     1      -0.047  15.480  22.184  0.00  0.00    +0.000 C 
ATOM     26  O   UNL     1      -0.038  14.317  23.013  0.00  0.00    +0.000 OA
ENDBRANCH  18  26
ENDBRANCH   1  24
TORSDOF 3
ENDMDL
MODEL 5
REMARK VINA RESULT:      -7.3      3.524      8.868
REMARK  Name = 
REMARK  6 active torsions:
REMARK  status: ('A' for Active; 'I' for Inactive)
REMARK    1  A    between atoms: C_1  and  O_2
REMARK    2  A    between atoms: O_2  and  C_3
REMARK    3  A    between atoms: C_9  and  C_10
REMARK    4  A    between atoms: C_15  and  C_16
REMARK    5  A    between atoms: C_19  and  C_20
REMARK    6  A    between atoms: C_21  and  C_22
REMARK                            x       y       z     vdW  Elec       q    Type
REMARK                         _______ _______ _______ _____ _____    ______ ____
ROOT
ATOM      1  C   UNL     1       2.230   6.446  19.994  0.00  0.00    +0.000 C 
ATOM      2  O   UNL     1       1.351   6.362  20.853  0.00  0.00    +0.000 OA
ATOM      3  N   UNL     1       2.442   7.528  19.178  0.00  0.00    +0.000 N 
ATOM      4  C   UNL     1       1.673   8.650  19.273  0.00  0.00    +0.000 A 
ATOM      5  N   UNL     1       0.872   9.013  20.238  0.00  0.00    +0.000 NA
ATOM      6  C   UNL     1       0.284  10.224  19.935  0.00  0.00    +0.000 A 
ATOM      7  C   UNL     1       0.587  10.711  18.677  0.00  0.00    +0.000 A 
ATOM      8  S   UNL     1       1.768   9.706  17.934  0.00  0.00    +0.000 S 
ATOM      9  H   UNL     1       3.132   7.485  18.439  0.00  0.00    +0.000 HD
ENDROOT
BRANCH   6  10
ATOM     10  C   UNL     1      -0.598  10.883  20.888  0.00  0.00    +0.000 A 
ATOM     11  C   UNL     1      -0.547  10.524  22.239  0.00  0.00    +0.000 A 
ATOM     12  C   UNL     1      -1.389  11.139  23.167  0.00  0.00    +0.000 A 
ATOM     13  C   UNL     1      -2.298  12.130  22.768  0.00  0.00    +0.000 A 
ATOM     14  C   UNL     1      -3.215  12.730  23.798  0.00  0.00    +0.000 C 
ATOM     15  C   UNL     1      -2.338  12.524  21.417  0.00  0.00    +0.000 A 
ATOM     16  C   UNL     1      -3.265  13.584  20.891  0.00  0.00    +0.000 C 
ATOM     17  C   UNL     1      -1.480  11.896  20.495  0.00  0.00    +0.000 A 
ENDBRANCH   6  10
BRANCH   1  24
ATOM     18  C   UNL     1       2.749   3.916  20.105  0.00  0.00    +0.000 A 
ATOM     19  C   UNL     1       3.652   2.879  19.810  0.00  0.00    +0.000 A 
ATOM     20  C   UNL     1       4.899   3.151  19.247  0.00  0.00    +0.000 A 
ATOM     21  C   UNL     1       5.258   4.461  18.964  0.00  0.00    +0.000 A 
ATOM     22 CL   UNL     1       6.798   4.793  18.276  0.00  0.00    +0.000 Cl
ATOM     23  C   UNL     1       4.371   5.498  19.224  0.00  0.00    +0.000 A 
ATOM     24  C   UNL     1       3.103   5.242  19.782  0.00  0.00    +0.000 A 
BRANCH  18  26
ATOM     25  C   UNL     1       1.471   2.665  21.668  0.00  0.00    +0.000 C 
ATOM     26  O   UNL     1       1.517   3.675  20.659  0.00  0.00    +0.000 OA
ENDBRANCH  18  26
ENDBRANCH   1  24
TORSDOF 3
ENDMDL
MODEL 6
REMARK VINA RESULT:      -7.2      1.070      1.322
REMARK  Name = 
REMARK  6 active torsions:
REMARK  status: ('A' for Active; 'I' for Inactive)
REMARK    1  A    between atoms: C_1  and  O_2
REMARK    2  A    between atoms: O_2  and  C_3
REMARK    3  A    between atoms: C_9  and  C_10
REMARK    4  A    between atoms: C_15  and  C_16
REMARK    5  A    between atoms: C_19  and  C_20
REMARK    6  A    between atoms: C_21  and  C_22
REMARK                            x       y       z     vdW  Elec       q    Type
REMARK                         _______ _______ _______ _____ _____    ______ ____
ROOT
ATOM      1  C   UNL     1      -0.332  11.273  22.011  0.00  0.00    +0.000 C 
ATOM      2  O   UNL     1       0.312  10.446  22.660  0.00  0.00    +0.000 OA
ATOM      3  N   UNL     1      -0.332  11.383  20.644  0.00  0.00    +0.000 N 
ATOM      4  C   UNL     1       0.401  10.538  19.864  0.00  0.00    +0.000 A 
ATOM      5  N   UNL     1       0.947   9.397  20.184  0.00  0.00    +0.000 NA
ATOM      6  C   UNL     1       1.601   8.861  19.093  0.00  0.00    +0.000 A 
ATOM      7  C   UNL     1       1.616   9.676  17.976  0.00  0.00    +0.000 A 
ATOM      8  S   UNL     1       0.642  11.066  18.258  0.00  0.00    +0.000 S 
ATOM      9  H   UNL     1      -0.821  12.144  20.191  0.00  0.00    +0.000 HD
ENDROOT
BRANCH   6  10
ATOM     10  C   UNL     1       2.230   7.551  19.171  0.00  0.00    +0.000 A 
ATOM     11  C   UNL     1       3.230   7.209  18.255  0.00  0.00    +0.000 A 
ATOM     12  C   UNL     1       3.840   5.954  18.309  0.00  0.00    +0.000 A 
ATOM     13  C   UNL     1       3.470   5.015  19.283  0.00  0.00    +0.000 A 
ATOM     14  C   UNL     1       4.125   3.662  19.271  0.00  0.00    +0.000 C 
ATOM     15  C   UNL     1       2.487   5.358  20.232  0.00  0.00    +0.000 A 
ATOM     16  C   UNL     1       2.029   4.429  21.321  0.00  0.00    +0.000 C 
ATOM     17  C   UNL     1       1.884   6.627  20.164  0.00  0.00    +0.000 A 
ENDBRANCH   6  10
BRANCH   1  24
ATOM     18  C   UNL     1      -0.759  13.617  23.013  0.00  0.00    +0.000 A 
ATOM     19  C   UNL     1      -1.635  14.460  23.719  0.00  0.00    +0.000 A 
ATOM     20  C   UNL     1      -2.842  13.980  24.227  0.00  0.00    +0.000 A 
ATOM     21  C   UNL     1      -3.194  12.652  24.031  0.00  0.00    +0.000 A 
ATOM     22 CL   UNL     1      -4.679  12.061  24.662  0.00  0.00    +0.000 Cl
ATOM     23  C   UNL     1      -2.355  11.808  23.314  0.00  0.00    +0.000 A 
ATOM     24  C   UNL     1      -1.137  12.278  22.784  0.00  0.00    +0.000 A 
BRANCH  18  26
ATOM     25  C   UNL     1       0.345  14.933  21.372  0.00  0.00    +0.000 C 
ATOM     26  O   UNL     1       0.434  14.066  22.504  0.00  0.00    +0.000 OA
ENDBRANCH  18  26
ENDBRANCH   1  24
TORSDOF 3
ENDMDL
MODEL 7
REMARK VINA RESULT:      -7.2      5.250      9.616
REMARK  Name = 
REMARK  6 active torsions:
REMARK  status: ('A' for Active; 'I' for Inactive)
REMARK    1  A    between atoms: C_1  and  O_2
REMARK    2  A    between atoms: O_2  and  C_3
REMARK    3  A    between atoms: C_9  and  C_10
REMARK    4  A    between atoms: C_15  and  C_16
REMARK    5  A    between atoms: C_19  and  C_20
REMARK    6  A    between atoms: C_21  and  C_22
REMARK                            x       y       z     vdW  Elec       q    Type
REMARK                         _______ _______ _______ _____ _____    ______ ____
ROOT
ATOM      1  C   UNL     1       4.658   5.953  16.784  0.00  0.00    +0.000 C 
ATOM      2  O   UNL     1       4.725   7.178  16.898  0.00  0.00    +0.000 OA
ATOM      3  N   UNL     1       3.925   5.120  17.590  0.00  0.00    +0.000 N 
ATOM      4  C   UNL     1       3.167   5.608  18.613  0.00  0.00    +0.000 A 
ATOM      5  N   UNL     1       2.780   6.835  18.831  0.00  0.00    +0.000 NA
ATOM      6  C   UNL     1       2.021   6.896  19.983  0.00  0.00    +0.000 A 
ATOM      7  C   UNL     1       1.934   5.703  20.676  0.00  0.00    +0.000 A 
ATOM      8  S   UNL     1       2.679   4.447  19.767  0.00  0.00    +0.000 S 
ATOM      9  H   UNL     1       3.990   4.116  17.484  0.00  0.00    +0.000 HD
ENDROOT
BRANCH   6  10
ATOM     10  C   UNL     1       1.407   8.147  20.404  0.00  0.00    +0.000 A 
ATOM     11  C   UNL     1       1.064   8.330  21.747  0.00  0.00    +0.000 A 
ATOM     12  C   UNL     1       0.466   9.519  22.169  0.00  0.00    +0.000 A 
ATOM     13  C   UNL     1       0.203  10.555  21.261  0.00  0.00    +0.000 A 
ATOM     14  C   UNL     1      -0.482  11.798  21.757  0.00  0.00    +0.000 C 
ATOM     15  C   UNL     1       0.572  10.397  19.911  0.00  0.00    +0.000 A 
ATOM     16  C   UNL     1       0.346  11.450  18.863  0.00  0.00    +0.000 C 
ATOM     17  C   UNL     1       1.175   9.193  19.503  0.00  0.00    +0.000 A 
ENDBRANCH   6  10
BRANCH   1  24
ATOM     18  C   UNL     1       6.900   5.220  15.728  0.00  0.00    +0.000 A 
ATOM     19  C   UNL     1       7.550   4.555  14.674  0.00  0.00    +0.000 A 
ATOM     20  C   UNL     1       6.829   4.031  13.601  0.00  0.00    +0.000 A 
ATOM     21  C   UNL     1       5.447   4.159  13.571  0.00  0.00    +0.000 A 
ATOM     22 CL   UNL     1       4.560   3.518  12.245  0.00  0.00    +0.000 Cl
ATOM     23  C   UNL     1       4.783   4.790  14.615  0.00  0.00    +0.000 A 
ATOM     24  C   UNL     1       5.494   5.315  15.712  0.00  0.00    +0.000 A 
BRANCH  18  26
ATOM     25  C   UNL     1       7.729   4.888  17.930  0.00  0.00    +0.000 C 
ATOM     26  O   UNL     1       7.588   5.744  16.795  0.00  0.00    +0.000 OA
ENDBRANCH  18  26
ENDBRANCH   1  24
TORSDOF 3
ENDMDL
MODEL 8
REMARK VINA RESULT:      -7.1      4.501      8.902
REMARK  Name = 
REMARK  6 active torsions:
REMARK  status: ('A' for Active; 'I' for Inactive)
REMARK    1  A    between atoms: C_1  and  O_2
REMARK    2  A    between atoms: O_2  and  C_3
REMARK    3  A    between atoms: C_9  and  C_10
REMARK    4  A    between atoms: C_15  and  C_16
REMARK    5  A    between atoms: C_19  and  C_20
REMARK    6  A    between atoms: C_21  and  C_22
REMARK                            x       y       z     vdW  Elec       q    Type
REMARK                         _______ _______ _______ _____ _____    ______ ____
ROOT
ATOM      1  C   UNL     1       2.582   7.219  18.738  0.00  0.00    +0.000 C 
ATOM      2  O   UNL     1       2.090   7.541  17.655  0.00  0.00    +0.000 OA
ATOM      3  N   UNL     1       2.229   7.739  19.957  0.00  0.00    +0.000 N 
ATOM      4  C   UNL     1       1.250   8.682  20.069  0.00  0.00    +0.000 A 
ATOM      5  N   UNL     1       0.342   9.026  19.197  0.00  0.00    +0.000 NA
ATOM      6  C   UNL     1      -0.459  10.024  19.715  0.00  0.00    +0.000 A 
ATOM      7  C   UNL     1      -0.067  10.488  20.957  0.00  0.00    +0.000 A 
ATOM      8  S   UNL     1       1.231   9.529  21.552  0.00  0.00    +0.000 S 
ATOM      9  H   UNL     1       2.741   7.484  20.791  0.00  0.00    +0.000 HD
ENDROOT
BRANCH   6  10
ATOM     10  C   UNL     1      -1.598  10.531  18.962  0.00  0.00    +0.000 A 
ATOM     11  C   UNL     1      -2.427  11.500  19.534  0.00  0.00    +0.000 A 
ATOM     12  C   UNL     1      -3.528  11.993  18.831  0.00  0.00    +0.000 A 
ATOM     13  C   UNL     1      -3.822  11.533  17.539  0.00  0.00    +0.000 A 
ATOM     14  C   UNL     1      -5.045  12.062  16.842  0.00  0.00    +0.000 C 
ATOM     15  C   UNL     1      -2.977  10.580  16.939  0.00  0.00    +0.000 A 
ATOM     16  C   UNL     1      -3.198  10.032  15.556  0.00  0.00    +0.000 C 
ATOM     17  C   UNL     1      -1.871  10.095  17.660  0.00  0.00    +0.000 A 
ENDBRANCH   6  10
BRANCH   1  24
ATOM     18  C   UNL     1       3.806   5.097  19.561  0.00  0.00    +0.000 A 
ATOM     19  C   UNL     1       4.892   4.218  19.397  0.00  0.00    +0.000 A 
ATOM     20  C   UNL     1       5.879   4.465  18.443  0.00  0.00    +0.000 A 
ATOM     21  C   UNL     1       5.792   5.591  17.636  0.00  0.00    +0.000 A 
ATOM     22 CL   UNL     1       7.013   5.897  16.465  0.00  0.00    +0.000 Cl
ATOM     23  C   UNL     1       4.715   6.459  17.764  0.00  0.00    +0.000 A 
ATOM     24  C   UNL     1       3.702   6.219  18.714  0.00  0.00    +0.000 A 
BRANCH  18  26
ATOM     25  C   UNL     1       1.908   3.819  20.197  0.00  0.00    +0.000 C 
ATOM     26  O   UNL     1       2.822   4.875  20.492  0.00  0.00    +0.000 OA
ENDBRANCH  18  26
ENDBRANCH   1  24
TORSDOF 3
ENDMDL
MODEL 9
REMARK VINA RESULT:      -7.0      4.138      9.316
REMARK  Name = 
REMARK  6 active torsions:
REMARK  status: ('A' for Active; 'I' for Inactive)
REMARK    1  A    between atoms: C_1  and  O_2
REMARK    2  A    between atoms: O_2  and  C_3
REMARK    3  A    between atoms: C_9  and  C_10
REMARK    4  A    between atoms: C_15  and  C_16
REMARK    5  A    between atoms: C_19  and  C_20
REMARK    6  A    between atoms: C_21  and  C_22
REMARK                            x       y       z     vdW  Elec       q    Type
REMARK                         _______ _______ _______ _____ _____    ______ ____
ROOT
ATOM      1  C   UNL     1       2.805   7.299  18.283  0.00  0.00    +0.000 C 
ATOM      2  O   UNL     1       3.131   8.297  17.638  0.00  0.00    +0.000 OA
ATOM      3  N   UNL     1       2.047   7.305  19.426  0.00  0.00    +0.000 N 
ATOM      4  C   UNL     1       1.560   8.467  19.947  0.00  0.00    +0.000 A 
ATOM      5  N   UNL     1       1.461   9.639  19.382  0.00  0.00    +0.000 NA
ATOM      6  C   UNL     1       0.907  10.545  20.263  0.00  0.00    +0.000 A 
ATOM      7  C   UNL     1       0.686  10.048  21.535  0.00  0.00    +0.000 A 
ATOM      8  S   UNL     1       1.024   8.363  21.566  0.00  0.00    +0.000 S 
ATOM      9  H   UNL     1       1.895   6.450  19.945  0.00  0.00    +0.000 HD
ENDROOT
BRANCH   6  10
ATOM     10  C   UNL     1       0.622  11.911  19.846  0.00  0.00    +0.000 A 
ATOM     11  C   UNL     1      -0.677  12.415  19.972  0.00  0.00    +0.000 A 
ATOM     12  C   UNL     1      -0.971  13.719  19.570  0.00  0.00    +0.000 A 
ATOM     13  C   UNL     1       0.026  14.552  19.040  0.00  0.00    +0.000 A 
ATOM     14  C   UNL     1      -0.352  15.932  18.581  0.00  0.00    +0.000 C 
ATOM     15  C   UNL     1       1.344  14.068  18.937  0.00  0.00    +0.000 A 
ATOM     16  C   UNL     1       2.485  14.883  18.395  0.00  0.00    +0.000 C 
ATOM     17  C   UNL     1       1.624  12.752  19.348  0.00  0.00    +0.000 A 
ENDBRANCH   6  10
BRANCH   1  24
ATOM     18  C   UNL     1       2.665   4.739  17.953  0.00  0.00    +0.000 A 
ATOM     19  C   UNL     1       3.260   3.579  17.426  0.00  0.00    +0.000 A 
ATOM     20  C   UNL     1       4.510   3.630  16.808  0.00  0.00    +0.000 A 
ATOM     21  C   UNL     1       5.180   4.841  16.704  0.00  0.00    +0.000 A 
ATOM     22 CL   UNL     1       6.722   4.900  15.948  0.00  0.00    +0.000 Cl
ATOM     23  C   UNL     1       4.599   6.003  17.197  0.00  0.00    +0.000 A 
ATOM     24  C   UNL     1       3.332   5.973  17.813  0.00  0.00    +0.000 A 
BRANCH  18  26
ATOM     25  C   UNL     1       1.193   3.609  19.436  0.00  0.00    +0.000 C 
ATOM     26  O   UNL     1       1.437   4.715  18.565  0.00  0.00    +0.000 OA
ENDBRANCH  18  26
ENDBRANCH   1  24
TORSDOF 3
ENDMDL
