MODEL 1
REMARK VINA RESULT:      -6.6      0.000      0.000
REMARK  Name = 
REMARK  17 active torsions:
REMARK  status: ('A' for Active; 'I' for Inactive)
REMARK    1  A    between atoms: C_1  and  C_2
REMARK    2  A    between atoms: C_2  and  C_3
REMARK    3  A    between atoms: C_3  and  C_4
REMARK    4  A    between atoms: C_4  and  C_5
REMARK    5  A    between atoms: C_5  and  C_6
REMARK    6  A    between atoms: C_6  and  C_7
REMARK    7  A    between atoms: C_7  and  C_8
REMARK    8  A    between atoms: C_8  and  C_9
REMARK    9  A    between atoms: C_9  and  C_10
REMARK   10  A    between atoms: C_10  and  C_11
REMARK   11  A    between atoms: C_11  and  C_12
REMARK   12  A    between atoms: C_12  and  C_13
REMARK   13  A    between atoms: C_13  and  C_14
REMARK   14  A    between atoms: C_16  and  O_17
REMARK   15  A    between atoms: C_19  and  O_20
REMARK   16  A    between atoms: C_21  and  C_22
REMARK   17  A    between atoms: C_22  and  C_23
REMARK                            x       y       z     vdW  Elec       q    Type
REMARK                         _______ _______ _______ _____ _____    ______ ____
ROOT
ATOM      1  C   UNL     1       4.033   4.236  17.432  0.00  0.00    +0.000 C 
ENDROOT
BRANCH   1   2
ATOM      2  C   UNL     1       5.334   4.949  17.736  0.00  0.00    +0.000 A 
ATOM      3  C   UNL     1       5.868   4.743  19.036  0.00  0.00    +0.000 A 
ATOM      4  C   UNL     1       7.034   5.390  19.422  0.00  0.00    +0.000 A 
ATOM      5  C   UNL     1       7.671   6.271  18.566  0.00  0.00    +0.000 A 
ATOM      6  C   UNL     1       7.181   6.454  17.266  0.00  0.00    +0.000 A 
ATOM      7  C   UNL     1       6.040   5.767  16.812  0.00  0.00    +0.000 A 
BRANCH   7   8
ATOM      8  C   UNL     1       5.577   5.874  15.378  0.00  0.00    +0.000 C 
ATOM      9  C   UNL     1       5.672   4.692  14.433  0.00  0.00    +0.000 C 
ATOM     10  O   UNL     1       5.086   6.911  14.953  0.00  0.00    +0.000 OA
ENDBRANCH   7   8
BRANCH   4  11
ATOM     11  O   UNL     1       7.595   5.172  20.646  0.00  0.00    +0.000 OA
ATOM     12  H   UNL     1       7.373   5.915  21.232  0.00  0.00    +0.000 HD
ENDBRANCH   4  11
BRANCH   6  13
ATOM     13  O   UNL     1       7.853   7.335  16.457  0.00  0.00    +0.000 OA
ATOM     14  H   UNL     1       8.228   6.854  15.697  0.00  0.00    +0.000 HD
ENDBRANCH   6  13
ENDBRANCH   1   2
BRANCH   1  15
ATOM     15  C   UNL     1       3.880   2.937  18.215  0.00  0.00    +0.000 C 
BRANCH  15  16
ATOM     16  C   UNL     1       2.470   2.373  18.058  0.00  0.00    +0.000 C 
BRANCH  16  17
ATOM     17  C   UNL     1       1.913   1.988  19.421  0.00  0.00    +0.000 C 
BRANCH  17  18
ATOM     18  C   UNL     1       1.150   3.147  20.043  0.00  0.00    +0.000 C 
BRANCH  18  19
ATOM     19  C   UNL     1       1.872   3.636  21.290  0.00  0.00    +0.000 C 
BRANCH  19  20
ATOM     20  C   UNL     1       2.468   5.013  21.045  0.00  0.00    +0.000 C 
BRANCH  20  21
ATOM     21  C   UNL     1       1.672   5.755  19.983  0.00  0.00    +0.000 C 
BRANCH  21  22
ATOM     22  C   UNL     1       2.302   7.112  19.707  0.00  0.00    +0.000 C 
BRANCH  22  23
ATOM     23  C   UNL     1       2.542   7.299  18.215  0.00  0.00    +0.000 C 
BRANCH  23  24
ATOM     24  C   UNL     1       2.204   8.725  17.797  0.00  0.00    +0.000 C 
BRANCH  24  26
ATOM     25  C   UNL     1       1.305  10.903  18.647  0.00  0.00    +0.000 C 
ATOM     26  C   UNL     1       1.302   9.396  18.827  0.00  0.00    +0.000 C 
ENDBRANCH  24  26
ENDBRANCH  23  24
ENDBRANCH  22  23
ENDBRANCH  21  22
ENDBRANCH  20  21
ENDBRANCH  19  20
ENDBRANCH  18  19
ENDBRANCH  17  18
ENDBRANCH  16  17
ENDBRANCH  15  16
ENDBRANCH   1  15
TORSDOF 15
ENDMDL
MODEL 2
REMARK VINA RESULT:      -6.6      0.750      1.448
REMARK  Name = 
REMARK  17 active torsions:
REMARK  status: ('A' for Active; 'I' for Inactive)
REMARK    1  A    between atoms: C_1  and  C_2
REMARK    2  A    between atoms: C_2  and  C_3
REMARK    3  A    between atoms: C_3  and  C_4
REMARK    4  A    between atoms: C_4  and  C_5
REMARK    5  A    between atoms: C_5  and  C_6
REMARK    6  A    between atoms: C_6  and  C_7
REMARK    7  A    between atoms: C_7  and  C_8
REMARK    8  A    between atoms: C_8  and  C_9
REMARK    9  A    between atoms: C_9  and  C_10
REMARK   10  A    between atoms: C_10  and  C_11
REMARK   11  A    between atoms: C_11  and  C_12
REMARK   12  A    between atoms: C_12  and  C_13
REMARK   13  A    between atoms: C_13  and  C_14
REMARK   14  A    between atoms: C_16  and  O_17
REMARK   15  A    between atoms: C_19  and  O_20
REMARK   16  A    between atoms: C_21  and  C_22
REMARK   17  A    between atoms: C_22  and  C_23
REMARK                            x       y       z     vdW  Elec       q    Type
REMARK                         _______ _______ _______ _____ _____    ______ ____
ROOT
ATOM      1  C   UNL     1       4.534   4.047  17.772  0.00  0.00    +0.000 C 
ENDROOT
BRANCH   1   2
ATOM      2  C   UNL     1       5.732   4.934  18.034  0.00  0.00    +0.000 A 
ATOM      3  C   UNL     1       6.360   4.776  19.298  0.00  0.00    +0.000 A 
ATOM      4  C   UNL     1       7.439   5.576  19.646  0.00  0.00    +0.000 A 
ATOM      5  C   UNL     1       7.895   6.563  18.789  0.00  0.00    +0.000 A 
ATOM      6  C   UNL     1       7.313   6.705  17.523  0.00  0.00    +0.000 A 
ATOM      7  C   UNL     1       6.261   5.871  17.103  0.00  0.00    +0.000 A 
BRANCH   7   8
ATOM      8  C   UNL     1       5.710   5.946  15.699  0.00  0.00    +0.000 C 
ATOM      9  C   UNL     1       5.889   4.800  14.724  0.00  0.00    +0.000 C 
ATOM     10  O   UNL     1       5.078   6.925  15.324  0.00  0.00    +0.000 OA
ENDBRANCH   7   8
BRANCH   4  11
ATOM     11  O   UNL     1       8.092   5.411  20.833  0.00  0.00    +0.000 OA
ATOM     12  H   UNL     1       8.760   6.110  20.926  0.00  0.00    +0.000 HD
ENDBRANCH   4  11
BRANCH   6  13
ATOM     13  O   UNL     1       7.806   7.695  16.711  0.00  0.00    +0.000 OA
ATOM     14  H   UNL     1       8.692   7.445  16.397  0.00  0.00    +0.000 HD
ENDBRANCH   6  13
ENDBRANCH   1   2
BRANCH   1  15
ATOM     15  C   UNL     1       4.318   3.014  18.871  0.00  0.00    +0.000 C 
BRANCH  15  16
ATOM     16  C   UNL     1       3.610   1.777  18.322  0.00  0.00    +0.000 C 
BRANCH  16  17
ATOM     17  C   UNL     1       2.346   2.192  17.584  0.00  0.00    +0.000 C 
BRANCH  17  18
ATOM     18  C   UNL     1       1.308   2.742  18.550  0.00  0.00    +0.000 C 
BRANCH  18  19
ATOM     19  C   UNL     1       1.432   2.048  19.898  0.00  0.00    +0.000 C 
BRANCH  19  20
ATOM     20  C   UNL     1       1.033   2.997  21.017  0.00  0.00    +0.000 C 
BRANCH  20  21
ATOM     21  C   UNL     1       2.146   3.998  21.286  0.00  0.00    +0.000 C 
BRANCH  21  22
ATOM     22  C   UNL     1       1.690   5.402  20.919  0.00  0.00    +0.000 C 
BRANCH  22  23
ATOM     23  C   UNL     1       2.279   5.826  19.581  0.00  0.00    +0.000 C 
BRANCH  23  24
ATOM     24  C   UNL     1       2.433   7.341  19.524  0.00  0.00    +0.000 C 
BRANCH  24  26
ATOM     25  C   UNL     1       1.722   8.955  17.744  0.00  0.00    +0.000 C 
ATOM     26  C   UNL     1       2.659   7.812  18.092  0.00  0.00    +0.000 C 
ENDBRANCH  24  26
ENDBRANCH  23  24
ENDBRANCH  22  23
ENDBRANCH  21  22
ENDBRANCH  20  21
ENDBRANCH  19  20
ENDBRANCH  18  19
ENDBRANCH  17  18
ENDBRANCH  16  17
ENDBRANCH  15  16
ENDBRANCH   1  15
TORSDOF 15
ENDMDL
MODEL 3
REMARK VINA RESULT:      -6.2      1.103      1.571
REMARK  Name = 
REMARK  17 active torsions:
REMARK  status: ('A' for Active; 'I' for Inactive)
REMARK    1  A    between atoms: C_1  and  C_2
REMARK    2  A    between atoms: C_2  and  C_3
REMARK    3  A    between atoms: C_3  and  C_4
REMARK    4  A    between atoms: C_4  and  C_5
REMARK    5  A    between atoms: C_5  and  C_6
REMARK    6  A    between atoms: C_6  and  C_7
REMARK    7  A    between atoms: C_7  and  C_8
REMARK    8  A    between atoms: C_8  and  C_9
REMARK    9  A    between atoms: C_9  and  C_10
REMARK   10  A    between atoms: C_10  and  C_11
REMARK   11  A    between atoms: C_11  and  C_12
REMARK   12  A    between atoms: C_12  and  C_13
REMARK   13  A    between atoms: C_13  and  C_14
REMARK   14  A    between atoms: C_16  and  O_17
REMARK   15  A    between atoms: C_19  and  O_20
REMARK   16  A    between atoms: C_21  and  C_22
REMARK   17  A    between atoms: C_22  and  C_23
REMARK                            x       y       z     vdW  Elec       q    Type
REMARK                         _______ _______ _______ _____ _____    ______ ____
ROOT
ATOM      1  C   UNL     1       4.161   4.269  17.692  0.00  0.00    +0.000 C 
ENDROOT
BRANCH   1   2
ATOM      2  C   UNL     1       5.466   4.999  17.934  0.00  0.00    +0.000 A 
ATOM      3  C   UNL     1       6.042   4.835  19.222  0.00  0.00    +0.000 A 
ATOM      4  C   UNL     1       7.214   5.500  19.551  0.00  0.00    +0.000 A 
ATOM      5  C   UNL     1       7.819   6.360  18.650  0.00  0.00    +0.000 A 
ATOM      6  C   UNL     1       7.286   6.500  17.361  0.00  0.00    +0.000 A 
ATOM      7  C   UNL     1       6.137   5.793  16.964  0.00  0.00    +0.000 A 
BRANCH   7   8
ATOM      8  C   UNL     1       5.628   5.854  15.543  0.00  0.00    +0.000 C 
ATOM      9  C   UNL     1       5.778   4.674  14.605  0.00  0.00    +0.000 C 
ATOM     10  O   UNL     1       5.055   6.851  15.124  0.00  0.00    +0.000 OA
ENDBRANCH   7   8
BRANCH   4  11
ATOM     11  O   UNL     1       7.816   5.322  20.763  0.00  0.00    +0.000 OA
ATOM     12  H   UNL     1       8.604   5.888  20.811  0.00  0.00    +0.000 HD
ENDBRANCH   4  11
BRANCH   6  13
ATOM     13  O   UNL     1       7.926   7.361  16.506  0.00  0.00    +0.000 OA
ATOM     14  H   UNL     1       8.369   8.059  17.021  0.00  0.00    +0.000 HD
ENDBRANCH   6  13
ENDBRANCH   1   2
BRANCH   1  15
ATOM     15  C   UNL     1       4.119   2.904  18.370  0.00  0.00    +0.000 C 
BRANCH  15  16
ATOM     16  C   UNL     1       2.836   2.742  19.181  0.00  0.00    +0.000 C 
BRANCH  16  17
ATOM     17  C   UNL     1       1.894   3.903  18.895  0.00  0.00    +0.000 C 
BRANCH  17  18
ATOM     18  C   UNL     1       1.105   4.281  20.139  0.00  0.00    +0.000 C 
BRANCH  18  19
ATOM     19  C   UNL     1       1.729   5.500  20.801  0.00  0.00    +0.000 C 
BRANCH  19  20
ATOM     20  C   UNL     1       2.449   6.350  19.767  0.00  0.00    +0.000 C 
BRANCH  20  21
ATOM     21  C   UNL     1       1.888   7.764  19.758  0.00  0.00    +0.000 C 
BRANCH  21  22
ATOM     22  C   UNL     1       1.214   8.069  21.088  0.00  0.00    +0.000 C 
BRANCH  22  23
ATOM     23  C   UNL     1       0.599   9.461  21.070  0.00  0.00    +0.000 C 
BRANCH  23  24
ATOM     24  C   UNL     1       0.799  10.114  19.707  0.00  0.00    +0.000 C 
BRANCH  24  26
ATOM     25  C   UNL     1      -1.167  10.211  18.157  0.00  0.00    +0.000 C 
ATOM     26  C   UNL     1      -0.438  10.904  19.294  0.00  0.00    +0.000 C 
ENDBRANCH  24  26
ENDBRANCH  23  24
ENDBRANCH  22  23
ENDBRANCH  21  22
ENDBRANCH  20  21
ENDBRANCH  19  20
ENDBRANCH  18  19
ENDBRANCH  17  18
ENDBRANCH  16  17
ENDBRANCH  15  16
ENDBRANCH   1  15
TORSDOF 15
ENDMDL
MODEL 4
REMARK VINA RESULT:      -6.0      0.856      1.091
REMARK  Name = 
REMARK  17 active torsions:
REMARK  status: ('A' for Active; 'I' for Inactive)
REMARK    1  A    between atoms: C_1  and  C_2
REMARK    2  A    between atoms: C_2  and  C_3
REMARK    3  A    between atoms: C_3  and  C_4
REMARK    4  A    between atoms: C_4  and  C_5
REMARK    5  A    between atoms: C_5  and  C_6
REMARK    6  A    between atoms: C_6  and  C_7
REMARK    7  A    between atoms: C_7  and  C_8
REMARK    8  A    between atoms: C_8  and  C_9
REMARK    9  A    between atoms: C_9  and  C_10
REMARK   10  A    between atoms: C_10  and  C_11
REMARK   11  A    between atoms: C_11  and  C_12
REMARK   12  A    between atoms: C_12  and  C_13
REMARK   13  A    between atoms: C_13  and  C_14
REMARK   14  A    between atoms: C_16  and  O_17
REMARK   15  A    between atoms: C_19  and  O_20
REMARK   16  A    between atoms: C_21  and  C_22
REMARK   17  A    between atoms: C_22  and  C_23
REMARK                            x       y       z     vdW  Elec       q    Type
REMARK                         _______ _______ _______ _____ _____    ______ ____
ROOT
ATOM      1  C   UNL     1       5.303   3.506  17.043  0.00  0.00    +0.000 C 
ENDROOT
BRANCH   1   2
ATOM      2  C   UNL     1       6.167   4.639  17.554  0.00  0.00    +0.000 A 
ATOM      3  C   UNL     1       6.676   4.490  18.872  0.00  0.00    +0.000 A 
ATOM      4  C   UNL     1       7.441   5.496  19.443  0.00  0.00    +0.000 A 
ATOM      5  C   UNL     1       7.690   6.673  18.758  0.00  0.00    +0.000 A 
ATOM      6  C   UNL     1       7.230   6.819  17.442  0.00  0.00    +0.000 A 
ATOM      7  C   UNL     1       6.507   5.797  16.801  0.00  0.00    +0.000 A 
BRANCH   7   8
ATOM      8  C   UNL     1       6.111   5.905  15.348  0.00  0.00    +0.000 C 
ATOM      9  C   UNL     1       6.702   4.980  14.303  0.00  0.00    +0.000 C 
ATOM     10  O   UNL     1       5.279   6.726  14.984  0.00  0.00    +0.000 OA
ENDBRANCH   7   8
BRANCH   4  11
ATOM     11  O   UNL     1       7.983   5.357  20.688  0.00  0.00    +0.000 OA
ATOM     12  H   UNL     1       8.096   4.411  20.880  0.00  0.00    +0.000 HD
ENDBRANCH   4  11
BRANCH   6  13
ATOM     13  O   UNL     1       7.508   8.003  16.806  0.00  0.00    +0.000 OA
ATOM     14  H   UNL     1       7.418   8.738  17.438  0.00  0.00    +0.000 HD
ENDBRANCH   6  13
ENDBRANCH   1   2
BRANCH   1  15
ATOM     15  C   UNL     1       3.846   3.640  17.473  0.00  0.00    +0.000 C 
BRANCH  15  16
ATOM     16  C   UNL     1       3.369   2.370  18.173  0.00  0.00    +0.000 C 
BRANCH  16  17
ATOM     17  C   UNL     1       1.848   2.325  18.180  0.00  0.00    +0.000 C 
BRANCH  17  18
ATOM     18  C   UNL     1       1.265   3.692  18.502  0.00  0.00    +0.000 C 
BRANCH  18  19
ATOM     19  C   UNL     1       1.040   3.822  20.001  0.00  0.00    +0.000 C 
BRANCH  19  20
ATOM     20  C   UNL     1       2.064   4.767  20.608  0.00  0.00    +0.000 C 
BRANCH  20  21
ATOM     21  C   UNL     1       1.415   6.096  20.964  0.00  0.00    +0.000 C 
BRANCH  21  22
ATOM     22  C   UNL     1       2.049   7.221  20.161  0.00  0.00    +0.000 C 
BRANCH  22  23
ATOM     23  C   UNL     1       3.202   6.695  19.317  0.00  0.00    +0.000 C 
BRANCH  23  24
ATOM     24  C   UNL     1       3.210   7.367  17.949  0.00  0.00    +0.000 C 
BRANCH  24  26
ATOM     25  C   UNL     1       2.145   9.632  17.829  0.00  0.00    +0.000 C 
ATOM     26  C   UNL     1       1.915   8.136  17.712  0.00  0.00    +0.000 C 
ENDBRANCH  24  26
ENDBRANCH  23  24
ENDBRANCH  22  23
ENDBRANCH  21  22
ENDBRANCH  20  21
ENDBRANCH  19  20
ENDBRANCH  18  19
ENDBRANCH  17  18
ENDBRANCH  16  17
ENDBRANCH  15  16
ENDBRANCH   1  15
TORSDOF 15
ENDMDL
MODEL 5
REMARK VINA RESULT:      -5.9      1.315      2.403
REMARK  Name = 
REMARK  17 active torsions:
REMARK  status: ('A' for Active; 'I' for Inactive)
REMARK    1  A    between atoms: C_1  and  C_2
REMARK    2  A    between atoms: C_2  and  C_3
REMARK    3  A    between atoms: C_3  and  C_4
REMARK    4  A    between atoms: C_4  and  C_5
REMARK    5  A    between atoms: C_5  and  C_6
REMARK    6  A    between atoms: C_6  and  C_7
REMARK    7  A    between atoms: C_7  and  C_8
REMARK    8  A    between atoms: C_8  and  C_9
REMARK    9  A    between atoms: C_9  and  C_10
REMARK   10  A    between atoms: C_10  and  C_11
REMARK   11  A    between atoms: C_11  and  C_12
REMARK   12  A    between atoms: C_12  and  C_13
REMARK   13  A    between atoms: C_13  and  C_14
REMARK   14  A    between atoms: C_16  and  O_17
REMARK   15  A    between atoms: C_19  and  O_20
REMARK   16  A    between atoms: C_21  and  C_22
REMARK   17  A    between atoms: C_22  and  C_23
REMARK                            x       y       z     vdW  Elec       q    Type
REMARK                         _______ _______ _______ _____ _____    ______ ____
ROOT
ATOM      1  C   UNL     1       4.799   3.767  17.657  0.00  0.00    +0.000 C 
ENDROOT
BRANCH   1   2
ATOM      2  C   UNL     1       5.909   4.750  17.961  0.00  0.00    +0.000 A 
ATOM      3  C   UNL     1       6.553   4.595  19.218  0.00  0.00    +0.000 A 
ATOM      4  C   UNL     1       7.552   5.476  19.604  0.00  0.00    +0.000 A 
ATOM      5  C   UNL     1       7.911   6.539  18.793  0.00  0.00    +0.000 A 
ATOM      6  C   UNL     1       7.316   6.683  17.533  0.00  0.00    +0.000 A 
ATOM      7  C   UNL     1       6.346   5.773  17.075  0.00  0.00    +0.000 A 
BRANCH   7   8
ATOM      8  C   UNL     1       5.786   5.859  15.674  0.00  0.00    +0.000 C 
ATOM      9  C   UNL     1       6.012   4.746  14.670  0.00  0.00    +0.000 C 
ATOM     10  O   UNL     1       5.112   6.818  15.326  0.00  0.00    +0.000 OA
ENDBRANCH   7   8
BRANCH   4  11
ATOM     11  O   UNL     1       8.221   5.320  20.784  0.00  0.00    +0.000 OA
ATOM     12  H   UNL     1       7.591   5.038  21.468  0.00  0.00    +0.000 HD
ENDBRANCH   4  11
BRANCH   6  13
ATOM     13  O   UNL     1       7.711   7.751  16.768  0.00  0.00    +0.000 OA
ATOM     14  H   UNL     1       8.306   7.440  16.063  0.00  0.00    +0.000 HD
ENDBRANCH   6  13
ENDBRANCH   1   2
BRANCH   1  15
ATOM     15  C   UNL     1       4.156   3.200  18.918  0.00  0.00    +0.000 C 
BRANCH  15  16
ATOM     16  C   UNL     1       2.805   3.860  19.180  0.00  0.00    +0.000 C 
BRANCH  16  17
ATOM     17  C   UNL     1       2.176   4.291  17.863  0.00  0.00    +0.000 C 
BRANCH  17  18
ATOM     18  C   UNL     1       1.769   5.756  17.908  0.00  0.00    +0.000 C 
BRANCH  18  19
ATOM     19  C   UNL     1       2.853   6.577  18.590  0.00  0.00    +0.000 C 
BRANCH  19  20
ATOM     20  C   UNL     1       2.978   7.939  17.926  0.00  0.00    +0.000 C 
BRANCH  20  21
ATOM     21  C   UNL     1       1.644   8.670  17.961  0.00  0.00    +0.000 C 
BRANCH  21  22
ATOM     22  C   UNL     1       1.870  10.174  17.961  0.00  0.00    +0.000 C 
BRANCH  22  23
ATOM     23  C   UNL     1       1.011  10.845  19.024  0.00  0.00    +0.000 C 
BRANCH  23  24
ATOM     24  C   UNL     1       0.428   9.804  19.972  0.00  0.00    +0.000 C 
BRANCH  24  26
ATOM     25  C   UNL     1       0.600   9.287  22.417  0.00  0.00    +0.000 C 
ATOM     26  C   UNL     1       0.308  10.362  21.386  0.00  0.00    +0.000 C 
ENDBRANCH  24  26
ENDBRANCH  23  24
ENDBRANCH  22  23
ENDBRANCH  21  22
ENDBRANCH  20  21
ENDBRANCH  19  20
ENDBRANCH  18  19
ENDBRANCH  17  18
ENDBRANCH  16  17
ENDBRANCH  15  16
ENDBRANCH   1  15
TORSDOF 15
ENDMDL
MODEL 6
REMARK VINA RESULT:      -5.8      1.856      2.939
REMARK  Name = 
REMARK  17 active torsions:
REMARK  status: ('A' for Active; 'I' for Inactive)
REMARK    1  A    between atoms: C_1  and  C_2
REMARK    2  A    between atoms: C_2  and  C_3
REMARK    3  A    between atoms: C_3  and  C_4
REMARK    4  A    between atoms: C_4  and  C_5
REMARK    5  A    between atoms: C_5  and  C_6
REMARK    6  A    between atoms: C_6  and  C_7
REMARK    7  A    between atoms: C_7  and  C_8
REMARK    8  A    between atoms: C_8  and  C_9
REMARK    9  A    between atoms: C_9  and  C_10
REMARK   10  A    between atoms: C_10  and  C_11
REMARK   11  A    between atoms: C_11  and  C_12
REMARK   12  A    between atoms: C_12  and  C_13
REMARK   13  A    between atoms: C_13  and  C_14
REMARK   14  A    between atoms: C_16  and  O_17
REMARK   15  A    between atoms: C_19  and  O_20
REMARK   16  A    between atoms: C_21  and  C_22
REMARK   17  A    between atoms: C_22  and  C_23
REMARK                            x       y       z     vdW  Elec       q    Type
REMARK                         _______ _______ _______ _____ _____    ______ ____
ROOT
ATOM      1  C   UNL     1       4.063   4.385  17.870  0.00  0.00    +0.000 C 
ENDROOT
BRANCH   1   2
ATOM      2  C   UNL     1       5.408   5.057  18.052  0.00  0.00    +0.000 A 
ATOM      3  C   UNL     1       6.022   4.889  19.322  0.00  0.00    +0.000 A 
ATOM      4  C   UNL     1       7.234   5.505  19.598  0.00  0.00    +0.000 A 
ATOM      5  C   UNL     1       7.844   6.320  18.660  0.00  0.00    +0.000 A 
ATOM      6  C   UNL     1       7.273   6.463  17.389  0.00  0.00    +0.000 A 
ATOM      7  C   UNL     1       6.079   5.804  17.045  0.00  0.00    +0.000 A 
BRANCH   7   8
ATOM      8  C   UNL     1       5.523   5.865  15.642  0.00  0.00    +0.000 C 
ATOM      9  C   UNL     1       5.565   4.656  14.729  0.00  0.00    +0.000 C 
ATOM     10  O   UNL     1       4.998   6.886  15.219  0.00  0.00    +0.000 OA
ENDBRANCH   7   8
BRANCH   4  11
ATOM     11  O   UNL     1       7.870   5.319  20.791  0.00  0.00    +0.000 OA
ATOM     12  H   UNL     1       8.421   4.521  20.735  0.00  0.00    +0.000 HD
ENDBRANCH   4  11
BRANCH   6  13
ATOM     13  O   UNL     1       7.921   7.279  16.496  0.00  0.00    +0.000 OA
ATOM     14  H   UNL     1       8.110   8.135  16.919  0.00  0.00    +0.000 HD
ENDBRANCH   6  13
ENDBRANCH   1   2
BRANCH   1  15
ATOM     15  C   UNL     1       2.902   5.370  17.931  0.00  0.00    +0.000 C 
BRANCH  15  16
ATOM     16  C   UNL     1       1.910   4.971  19.021  0.00  0.00    +0.000 C 
BRANCH  16  17
ATOM     17  C   UNL     1       2.164   5.792  20.276  0.00  0.00    +0.000 C 
BRANCH  17  18
ATOM     18  C   UNL     1       2.057   7.281  19.983  0.00  0.00    +0.000 C 
BRANCH  18  19
ATOM     19  C   UNL     1       1.599   8.025  21.229  0.00  0.00    +0.000 C 
BRANCH  19  20
ATOM     20  C   UNL     1       0.176   8.527  21.048  0.00  0.00    +0.000 C 
BRANCH  20  21
ATOM     21  C   UNL     1      -0.000   9.878  21.724  0.00  0.00    +0.000 C 
BRANCH  21  22
ATOM     22  C   UNL     1      -0.643  10.867  20.763  0.00  0.00    +0.000 C 
BRANCH  22  23
ATOM     23  C   UNL     1      -0.381  10.458  19.320  0.00  0.00    +0.000 C 
BRANCH  23  24
ATOM     24  C   UNL     1      -1.575  10.814  18.442  0.00  0.00    +0.000 C 
BRANCH  24  26
ATOM     25  C   UNL     1      -3.067   9.928  16.635  0.00  0.00    +0.000 C 
ATOM     26  C   UNL     1      -1.685   9.859  17.258  0.00  0.00    +0.000 C 
ENDBRANCH  24  26
ENDBRANCH  23  24
ENDBRANCH  22  23
ENDBRANCH  21  22
ENDBRANCH  20  21
ENDBRANCH  19  20
ENDBRANCH  18  19
ENDBRANCH  17  18
ENDBRANCH  16  17
ENDBRANCH  15  16
ENDBRANCH   1  15
TORSDOF 15
ENDMDL
MODEL 7
REMARK VINA RESULT:      -5.7      2.544      6.779
REMARK  Name = 
REMARK  17 active torsions:
REMARK  status: ('A' for Active; 'I' for Inactive)
REMARK    1  A    between atoms: C_1  and  C_2
REMARK    2  A    between atoms: C_2  and  C_3
REMARK    3  A    between atoms: C_3  and  C_4
REMARK    4  A    between atoms: C_4  and  C_5
REMARK    5  A    between atoms: C_5  and  C_6
REMARK    6  A    between atoms: C_6  and  C_7
REMARK    7  A    between atoms: C_7  and  C_8
REMARK    8  A    between atoms: C_8  and  C_9
REMARK    9  A    between atoms: C_9  and  C_10
REMARK   10  A    between atoms: C_10  and  C_11
REMARK   11  A    between atoms: C_11  and  C_12
REMARK   12  A    between atoms: C_12  and  C_13
REMARK   13  A    between atoms: C_13  and  C_14
REMARK   14  A    between atoms: C_16  and  O_17
REMARK   15  A    between atoms: C_19  and  O_20
REMARK   16  A    between atoms: C_21  and  C_22
REMARK   17  A    between atoms: C_22  and  C_23
REMARK                            x       y       z     vdW  Elec       q    Type
REMARK                         _______ _______ _______ _____ _____    ______ ____
ROOT
ATOM      1  C   UNL     1       5.419   5.137  19.580  0.00  0.00    +0.000 C 
ENDROOT
BRANCH   1   2
ATOM      2  C   UNL     1       4.328   4.277  18.978  0.00  0.00    +0.000 A 
ATOM      3  C   UNL     1       4.586   2.881  18.940  0.00  0.00    +0.000 A 
ATOM      4  C   UNL     1       3.664   2.016  18.366  0.00  0.00    +0.000 A 
ATOM      5  C   UNL     1       2.502   2.500  17.790  0.00  0.00    +0.000 A 
ATOM      6  C   UNL     1       2.214   3.870  17.855  0.00  0.00    +0.000 A 
ATOM      7  C   UNL     1       3.089   4.772  18.486  0.00  0.00    +0.000 A 
BRANCH   7   8
ATOM      8  C   UNL     1       2.727   6.229  18.658  0.00  0.00    +0.000 C 
ATOM      9  C   UNL     1       2.142   6.743  19.959  0.00  0.00    +0.000 C 
ATOM     10  O   UNL     1       2.926   7.035  17.760  0.00  0.00    +0.000 OA
ENDBRANCH   7   8
BRANCH   4  11
ATOM     11  O   UNL     1       3.863   0.666  18.361  0.00  0.00    +0.000 OA
ATOM     12  H   UNL     1       3.030   0.223  18.591  0.00  0.00    +0.000 HD
ENDBRANCH   4  11
BRANCH   6  13
ATOM     13  O   UNL     1       1.047   4.296  17.272  0.00  0.00    +0.000 OA
ATOM     14  H   UNL     1       0.365   4.408  17.958  0.00  0.00    +0.000 HD
ENDBRANCH   6  13
ENDBRANCH   1   2
BRANCH   1  15
ATOM     15  C   UNL     1       6.787   4.862  18.968  0.00  0.00    +0.000 C 
BRANCH  15  16
ATOM     16  C   UNL     1       7.711   6.066  19.142  0.00  0.00    +0.000 C 
BRANCH  16  17
ATOM     17  C   UNL     1       7.610   6.974  17.926  0.00  0.00    +0.000 C 
BRANCH  17  18
ATOM     18  C   UNL     1       6.522   6.494  16.977  0.00  0.00    +0.000 C 
BRANCH  18  19
ATOM     19  C   UNL     1       7.148   5.830  15.760  0.00  0.00    +0.000 C 
BRANCH  19  20
ATOM     20  C   UNL     1       6.979   4.321  15.839  0.00  0.00    +0.000 C 
BRANCH  20  21
ATOM     21  C   UNL     1       5.563   3.925  15.450  0.00  0.00    +0.000 C 
BRANCH  21  22
ATOM     22  C   UNL     1       5.337   4.177  13.967  0.00  0.00    +0.000 C 
BRANCH  22  23
ATOM     23  C   UNL     1       6.555   3.752  13.158  0.00  0.00    +0.000 C 
BRANCH  23  24
ATOM     24  C   UNL     1       6.160   3.466  11.714  0.00  0.00    +0.000 C 
BRANCH  24  26
ATOM     25  C   UNL     1       6.408   1.081  10.989  0.00  0.00    +0.000 C 
ATOM     26  C   UNL     1       5.472   2.111  11.595  0.00  0.00    +0.000 C 
ENDBRANCH  24  26
ENDBRANCH  23  24
ENDBRANCH  22  23
ENDBRANCH  21  22
ENDBRANCH  20  21
ENDBRANCH  19  20
ENDBRANCH  18  19
ENDBRANCH  17  18
ENDBRANCH  16  17
ENDBRANCH  15  16
ENDBRANCH   1  15
TORSDOF 15
ENDMDL
MODEL 8
REMARK VINA RESULT:      -5.6      3.253      5.781
REMARK  Name = 
REMARK  17 active torsions:
REMARK  status: ('A' for Active; 'I' for Inactive)
REMARK    1  A    between atoms: C_1  and  C_2
REMARK    2  A    between atoms: C_2  and  C_3
REMARK    3  A    between atoms: C_3  and  C_4
REMARK    4  A    between atoms: C_4  and  C_5
REMARK    5  A    between atoms: C_5  and  C_6
REMARK    6  A    between atoms: C_6  and  C_7
REMARK    7  A    between atoms: C_7  and  C_8
REMARK    8  A    between atoms: C_8  and  C_9
REMARK    9  A    between atoms: C_9  and  C_10
REMARK   10  A    between atoms: C_10  and  C_11
REMARK   11  A    between atoms: C_11  and  C_12
REMARK   12  A    between atoms: C_12  and  C_13
REMARK   13  A    between atoms: C_13  and  C_14
REMARK   14  A    between atoms: C_16  and  O_17
REMARK   15  A    between atoms: C_19  and  O_20
REMARK   16  A    between atoms: C_21  and  C_22
REMARK   17  A    between atoms: C_22  and  C_23
REMARK                            x       y       z     vdW  Elec       q    Type
REMARK                         _______ _______ _______ _____ _____    ______ ____
ROOT
ATOM      1  C   UNL     1       3.058   6.203  18.983  0.00  0.00    +0.000 C 
ENDROOT
BRANCH   1   2
ATOM      2  C   UNL     1       2.789   4.713  18.936  0.00  0.00    +0.000 A 
ATOM      3  C   UNL     1       1.495   4.300  19.350  0.00  0.00    +0.000 A 
ATOM      4  C   UNL     1       1.170   2.952  19.382  0.00  0.00    +0.000 A 
ATOM      5  C   UNL     1       2.107   1.989  19.051  0.00  0.00    +0.000 A 
ATOM      6  C   UNL     1       3.375   2.381  18.601  0.00  0.00    +0.000 A 
ATOM      7  C   UNL     1       3.724   3.739  18.490  0.00  0.00    +0.000 A 
BRANCH   7   8
ATOM      8  C   UNL     1       5.047   4.166  17.898  0.00  0.00    +0.000 C 
ATOM      9  C   UNL     1       5.134   4.714  16.488  0.00  0.00    +0.000 C 
ATOM     10  O   UNL     1       6.077   4.104  18.555  0.00  0.00    +0.000 OA
ENDBRANCH   7   8
BRANCH   4  11
ATOM     11  O   UNL     1      -0.082   2.530  19.728  0.00  0.00    +0.000 OA
ATOM     12  H   UNL     1      -0.084   2.285  20.668  0.00  0.00    +0.000 HD
ENDBRANCH   4  11
BRANCH   6  13
ATOM     13  O   UNL     1       4.265   1.387  18.282  0.00  0.00    +0.000 OA
ATOM     14  H   UNL     1       4.877   1.248  19.026  0.00  0.00    +0.000 HD
ENDBRANCH   6  13
ENDBRANCH   1   2
BRANCH   1  15
ATOM     15  C   UNL     1       2.324   6.966  17.887  0.00  0.00    +0.000 C 
BRANCH  15  16
ATOM     16  C   UNL     1       2.711   8.443  17.903  0.00  0.00    +0.000 C 
BRANCH  16  17
ATOM     17  C   UNL     1       1.472   9.298  18.126  0.00  0.00    +0.000 C 
BRANCH  17  18
ATOM     18  C   UNL     1       1.077   9.309  19.595  0.00  0.00    +0.000 C 
BRANCH  18  19
ATOM     19  C   UNL     1       0.601  10.697  19.996  0.00  0.00    +0.000 C 
BRANCH  19  20
ATOM     20  C   UNL     1      -0.914  10.782  19.903  0.00  0.00    +0.000 C 
BRANCH  20  21
ATOM     21  C   UNL     1      -1.333  12.092  19.253  0.00  0.00    +0.000 C 
BRANCH  21  22
ATOM     22  C   UNL     1      -1.699  11.861  17.795  0.00  0.00    +0.000 C 
BRANCH  22  23
ATOM     23  C   UNL     1      -2.084  10.406  17.563  0.00  0.00    +0.000 C 
BRANCH  23  24
ATOM     24  C   UNL     1      -3.574  10.292  17.264  0.00  0.00    +0.000 C 
BRANCH  24  26
ATOM     25  C   UNL     1      -2.903  10.110  14.857  0.00  0.00    +0.000 C 
ATOM     26  C   UNL     1      -3.879  10.735  15.837  0.00  0.00    +0.000 C 
ENDBRANCH  24  26
ENDBRANCH  23  24
ENDBRANCH  22  23
ENDBRANCH  21  22
ENDBRANCH  20  21
ENDBRANCH  19  20
ENDBRANCH  18  19
ENDBRANCH  17  18
ENDBRANCH  16  17
ENDBRANCH  15  16
ENDBRANCH   1  15
TORSDOF 15
ENDMDL
MODEL 9
REMARK VINA RESULT:      -5.6      1.608      3.580
REMARK  Name = 
REMARK  17 active torsions:
REMARK  status: ('A' for Active; 'I' for Inactive)
REMARK    1  A    between atoms: C_1  and  C_2
REMARK    2  A    between atoms: C_2  and  C_3
REMARK    3  A    between atoms: C_3  and  C_4
REMARK    4  A    between atoms: C_4  and  C_5
REMARK    5  A    between atoms: C_5  and  C_6
REMARK    6  A    between atoms: C_6  and  C_7
REMARK    7  A    between atoms: C_7  and  C_8
REMARK    8  A    between atoms: C_8  and  C_9
REMARK    9  A    between atoms: C_9  and  C_10
REMARK   10  A    between atoms: C_10  and  C_11
REMARK   11  A    between atoms: C_11  and  C_12
REMARK   12  A    between atoms: C_12  and  C_13
REMARK   13  A    between atoms: C_13  and  C_14
REMARK   14  A    between atoms: C_16  and  O_17
REMARK   15  A    between atoms: C_19  and  O_20
REMARK   16  A    between atoms: C_21  and  C_22
REMARK   17  A    between atoms: C_22  and  C_23
REMARK                            x       y       z     vdW  Elec       q    Type
REMARK                         _______ _______ _______ _____ _____    ______ ____
ROOT
ATOM      1  C   UNL     1       4.917   3.610  16.721  0.00  0.00    +0.000 C 
ENDROOT
BRANCH   1   2
ATOM      2  C   UNL     1       5.603   3.977  15.422  0.00  0.00    +0.000 A 
ATOM      3  C   UNL     1       5.057   3.400  14.245  0.00  0.00    +0.000 A 
ATOM      4  C   UNL     1       5.645   3.643  13.012  0.00  0.00    +0.000 A 
ATOM      5  C   UNL     1       6.789   4.414  12.912  0.00  0.00    +0.000 A 
ATOM      6  C   UNL     1       7.318   5.023  14.058  0.00  0.00    +0.000 A 
ATOM      7  C   UNL     1       6.714   4.858  15.318  0.00  0.00    +0.000 A 
BRANCH   7   8
ATOM      8  C   UNL     1       7.213   5.605  16.533  0.00  0.00    +0.000 C 
ATOM      9  C   UNL     1       7.657   4.866  17.780  0.00  0.00    +0.000 C 
ATOM     10  O   UNL     1       7.297   6.825  16.528  0.00  0.00    +0.000 OA
ENDBRANCH   7   8
BRANCH   4  11
ATOM     11  O   UNL     1       5.111   3.142  11.859  0.00  0.00    +0.000 OA
ATOM     12  H   UNL     1       5.208   2.176  11.860  0.00  0.00    +0.000 HD
ENDBRANCH   4  11
BRANCH   6  13
ATOM     13  O   UNL     1       8.450   5.781  13.903  0.00  0.00    +0.000 OA
ATOM     14  H   UNL     1       8.494   6.115  12.990  0.00  0.00    +0.000 HD
ENDBRANCH   6  13
ENDBRANCH   1   2
BRANCH   1  15
ATOM     15  C   UNL     1       3.666   4.442  16.979  0.00  0.00    +0.000 C 
BRANCH  15  16
ATOM     16  C   UNL     1       2.432   3.549  17.074  0.00  0.00    +0.000 C 
BRANCH  16  17
ATOM     17  C   UNL     1       2.828   2.175  17.596  0.00  0.00    +0.000 C 
BRANCH  17  18
ATOM     18  C   UNL     1       2.402   2.001  19.046  0.00  0.00    +0.000 C 
BRANCH  18  19
ATOM     19  C   UNL     1       1.231   2.920  19.359  0.00  0.00    +0.000 C 
BRANCH  19  20
ATOM     20  C   UNL     1       1.054   3.053  20.863  0.00  0.00    +0.000 C 
BRANCH  20  21
ATOM     21  C   UNL     1       2.143   3.941  21.448  0.00  0.00    +0.000 C 
BRANCH  21  22
ATOM     22  C   UNL     1       2.699   4.865  20.375  0.00  0.00    +0.000 C 
BRANCH  22  23
ATOM     23  C   UNL     1       1.961   6.196  20.379  0.00  0.00    +0.000 C 
BRANCH  23  24
ATOM     24  C   UNL     1       2.443   7.075  19.231  0.00  0.00    +0.000 C 
BRANCH  24  26
ATOM     25  C   UNL     1       1.791   9.079  17.876  0.00  0.00    +0.000 C 
ATOM     26  C   UNL     1       1.739   8.427  19.246  0.00  0.00    +0.000 C 
ENDBRANCH  24  26
ENDBRANCH  23  24
ENDBRANCH  22  23
ENDBRANCH  21  22
ENDBRANCH  20  21
ENDBRANCH  19  20
ENDBRANCH  18  19
ENDBRANCH  17  18
ENDBRANCH  16  17
ENDBRANCH  15  16
ENDBRANCH   1  15
TORSDOF 15
ENDMDL
