MODEL 1
REMARK VINA RESULT:      -8.0      0.000      0.000
REMARK  Name = 
REMARK  10 active torsions:
REMARK  status: ('A' for Active; 'I' for Inactive)
REMARK    1  A    between atoms: C_1  and  C_2
REMARK    2  A    between atoms: C_2  and  S_3
REMARK    3  A    between atoms: S_3  and  C_6
REMARK    4  A    between atoms: C_7  and  C_8
REMARK    5  A    between atoms: C_8  and  O_10
REMARK    6  A    between atoms: C_14  and  N_15
REMARK    7  A    between atoms: C_16  and  C_18
REMARK    8  A    between atoms: C_18  and  C_22
REMARK    9  A    between atoms: N_19  and  O_20
REMARK   10  A    between atoms: O_20  and  C_21
REMARK                            x       y       z     vdW  Elec       q    Type
REMARK                         _______ _______ _______ _____ _____    ______ ____
ROOT
ATOM      1  C   UNL     1       0.939  10.399  19.449  0.00  0.00    +0.000 C 
ATOM      2  C   UNL     1       0.929   9.315  20.247  0.00  0.00    +0.000 C 
ATOM      3  N   UNL     1       1.546   8.315  19.547  0.00  0.00    +0.000 N 
ATOM      4  C   UNL     1       2.177   7.135  19.882  0.00  0.00    +0.000 C 
ATOM      5  O   UNL     1       2.142   6.560  20.964  0.00  0.00    +0.000 OA
ATOM      6  C   UNL     1       2.845   6.678  18.586  0.00  0.00    +0.000 C 
ATOM      7  C   UNL     1       2.954   7.991  17.788  0.00  0.00    +0.000 C 
ATOM      8  N   UNL     1       1.758   8.683  18.217  0.00  0.00    +0.000 NA
ATOM      9  C   UNL     1       1.709  10.142  18.192  0.00  0.00    +0.000 C 
ENDROOT
BRANCH   6  10
ATOM     10  N   UNL     1       2.017   5.653  17.950  0.00  0.00    +0.000 N 
ATOM     11  C   UNL     1       2.115   4.276  17.973  0.00  0.00    +0.000 C 
ATOM     12  O   UNL     1       1.235   3.610  17.440  0.00  0.00    +0.000 OA
ATOM     13  H   UNL     1       1.175   5.964  17.479  0.00  0.00    +0.000 HD
BRANCH  11  14
ATOM     14  C   UNL     1       3.337   3.606  18.624  0.00  0.00    +0.000 C 
ATOM     15  N   UNL     1       3.268   2.779  19.630  0.00  0.00    +0.000 NA
BRANCH  14  16
ATOM     16  C   UNL     1       4.675   3.808  18.074  0.00  0.00    +0.000 A 
ATOM     17  C   UNL     1       4.943   3.881  16.718  0.00  0.00    +0.000 A 
ATOM     18  S   UNL     1       6.535   4.464  16.464  0.00  0.00    +0.000 S 
ATOM     19  C   UNL     1       6.763   4.564  18.161  0.00  0.00    +0.000 A 
ATOM     20  N   UNL     1       7.848   5.140  18.696  0.00  0.00    +0.000 N 
ATOM     21  N   UNL     1       5.754   4.149  18.886  0.00  0.00    +0.000 NA
ATOM     22  H   UNL     1       8.418   5.743  18.117  0.00  0.00    +0.000 HD
ATOM     23  H   UNL     1       7.757   5.456  19.659  0.00  0.00    +0.000 HD
ENDBRANCH  14  16
BRANCH  15  24
ATOM     24  O   UNL     1       1.968   2.614  20.119  0.00  0.00    +0.000 OA
ATOM     25  C   UNL     1       1.967   2.999  21.492  0.00  0.00    +0.000 C 
ENDBRANCH  15  24
ENDBRANCH  11  14
ENDBRANCH   6  10
BRANCH   1  26
ATOM     26  S   UNL     1       0.138  11.880  19.663  0.00  0.00    +0.000 S 
ATOM     27  O   UNL     1       0.488  12.716  18.526  0.00  0.00    +0.000 OA
ATOM     28  O   UNL     1       0.368  12.389  20.998  0.00  0.00    +0.000 OA
BRANCH  26  30
ATOM     29  C   UNL     1      -1.789  10.629  18.170  0.00  0.00    +0.000 C 
ATOM     30  C   UNL     1      -1.579  11.417  19.443  0.00  0.00    +0.000 C 
ENDBRANCH  26  30
ENDBRANCH   1  26
BRANCH   2  31
ATOM     31  C   UNL     1       0.309   9.167  21.586  0.00  0.00    +0.000 C 
ATOM     32  O   UNL     1      -0.645   8.431  21.781  0.00  0.00    +0.000 OA
BRANCH  31  33
ATOM     33  O   UNL     1       0.885   9.810  22.616  0.00  0.00    +0.000 OA
ATOM     34  H   UNL     1       0.349  10.437  23.150  0.00  0.00    +0.000 HD
ENDBRANCH  31  33
ENDBRANCH   2  31
TORSDOF 8
ENDMDL
MODEL 2
REMARK VINA RESULT:      -7.9      0.896      1.110
REMARK  Name = 
REMARK  10 active torsions:
REMARK  status: ('A' for Active; 'I' for Inactive)
REMARK    1  A    between atoms: C_1  and  C_2
REMARK    2  A    between atoms: C_2  and  S_3
REMARK    3  A    between atoms: S_3  and  C_6
REMARK    4  A    between atoms: C_7  and  C_8
REMARK    5  A    between atoms: C_8  and  O_10
REMARK    6  A    between atoms: C_14  and  N_15
REMARK    7  A    between atoms: C_16  and  C_18
REMARK    8  A    between atoms: C_18  and  C_22
REMARK    9  A    between atoms: N_19  and  O_20
REMARK   10  A    between atoms: O_20  and  C_21
REMARK                            x       y       z     vdW  Elec       q    Type
REMARK                         _______ _______ _______ _____ _____    ______ ____
ROOT
ATOM      1  C   UNL     1       0.778  10.426  19.701  0.00  0.00    +0.000 C 
ATOM      2  C   UNL     1       0.804   9.294  20.430  0.00  0.00    +0.000 C 
ATOM      3  N   UNL     1       1.451   8.360  19.667  0.00  0.00    +0.000 N 
ATOM      4  C   UNL     1       2.120   7.182  19.926  0.00  0.00    +0.000 C 
ATOM      5  O   UNL     1       2.106   6.539  20.970  0.00  0.00    +0.000 OA
ATOM      6  C   UNL     1       2.799   6.829  18.604  0.00  0.00    +0.000 C 
ATOM      7  C   UNL     1       2.863   8.193  17.890  0.00  0.00    +0.000 C 
ATOM      8  N   UNL     1       1.647   8.818  18.363  0.00  0.00    +0.000 NA
ATOM      9  C   UNL     1       1.552  10.273  18.430  0.00  0.00    +0.000 C 
ENDROOT
BRANCH   6  10
ATOM     10  N   UNL     1       2.002   5.820  17.905  0.00  0.00    +0.000 N 
ATOM     11  C   UNL     1       2.103   4.443  17.894  0.00  0.00    +0.000 C 
ATOM     12  O   UNL     1       1.249   3.791  17.306  0.00  0.00    +0.000 OA
ATOM     13  H   UNL     1       1.180   6.143  17.407  0.00  0.00    +0.000 HD
BRANCH  11  14
ATOM     14  C   UNL     1       3.299   3.759  18.578  0.00  0.00    +0.000 C 
ATOM     15  N   UNL     1       3.195   2.955  19.600  0.00  0.00    +0.000 NA
BRANCH  14  16
ATOM     16  C   UNL     1       4.649   3.916  18.044  0.00  0.00    +0.000 A 
ATOM     17  C   UNL     1       4.932   4.019  16.693  0.00  0.00    +0.000 A 
ATOM     18  S   UNL     1       6.551   4.535  16.470  0.00  0.00    +0.000 S 
ATOM     19  C   UNL     1       6.769   4.572  18.171  0.00  0.00    +0.000 A 
ATOM     20  N   UNL     1       7.875   5.080  18.732  0.00  0.00    +0.000 N 
ATOM     21  N   UNL     1       5.736   4.181  18.875  0.00  0.00    +0.000 NA
ATOM     22  H   UNL     1       8.477   5.675  18.176  0.00  0.00    +0.000 HD
ATOM     23  H   UNL     1       7.790   5.370  19.703  0.00  0.00    +0.000 HD
ENDBRANCH  14  16
BRANCH  15  24
ATOM     24  O   UNL     1       1.884   2.833  20.073  0.00  0.00    +0.000 OA
ATOM     25  C   UNL     1       1.905   3.063  21.481  0.00  0.00    +0.000 C 
ENDBRANCH  15  24
ENDBRANCH  11  14
ENDBRANCH   6  10
BRANCH   1  26
ATOM     26  S   UNL     1      -0.070  11.865  20.009  0.00  0.00    +0.000 S 
ATOM     27  O   UNL     1       0.479  12.422  21.234  0.00  0.00    +0.000 OA
ATOM     28  O   UNL     1      -1.496  11.637  19.925  0.00  0.00    +0.000 OA
BRANCH  26  30
ATOM     29  C   UNL     1      -0.191  14.274  18.709  0.00  0.00    +0.000 C 
ATOM     30  C   UNL     1       0.488  12.924  18.676  0.00  0.00    +0.000 C 
ENDBRANCH  26  30
ENDBRANCH   1  26
BRANCH   2  31
ATOM     31  C   UNL     1       0.193   9.042  21.757  0.00  0.00    +0.000 C 
ATOM     32  O   UNL     1      -0.700   8.226  21.915  0.00  0.00    +0.000 OA
BRANCH  31  33
ATOM     33  O   UNL     1       0.713   9.686  22.816  0.00  0.00    +0.000 OA
ATOM     34  H   UNL     1       0.258   9.623  23.686  0.00  0.00    +0.000 HD
ENDBRANCH  31  33
ENDBRANCH   2  31
TORSDOF 8
ENDMDL
MODEL 3
REMARK VINA RESULT:      -7.6      0.897      1.463
REMARK  Name = 
REMARK  10 active torsions:
REMARK  status: ('A' for Active; 'I' for Inactive)
REMARK    1  A    between atoms: C_1  and  C_2
REMARK    2  A    between atoms: C_2  and  S_3
REMARK    3  A    between atoms: S_3  and  C_6
REMARK    4  A    between atoms: C_7  and  C_8
REMARK    5  A    between atoms: C_8  and  O_10
REMARK    6  A    between atoms: C_14  and  N_15
REMARK    7  A    between atoms: C_16  and  C_18
REMARK    8  A    between atoms: C_18  and  C_22
REMARK    9  A    between atoms: N_19  and  O_20
REMARK   10  A    between atoms: O_20  and  C_21
REMARK                            x       y       z     vdW  Elec       q    Type
REMARK                         _______ _______ _______ _____ _____    ______ ____
ROOT
ATOM      1  C   UNL     1       0.789  10.440  19.582  0.00  0.00    +0.000 C 
ATOM      2  C   UNL     1       0.842   9.331  20.343  0.00  0.00    +0.000 C 
ATOM      3  N   UNL     1       1.484   8.381  19.596  0.00  0.00    +0.000 N 
ATOM      4  C   UNL     1       2.170   7.219  19.876  0.00  0.00    +0.000 C 
ATOM      5  O   UNL     1       2.184   6.607  20.939  0.00  0.00    +0.000 OA
ATOM      6  C   UNL     1       2.827   6.833  18.552  0.00  0.00    +0.000 C 
ATOM      7  C   UNL     1       2.862   8.175  17.796  0.00  0.00    +0.000 C 
ATOM      8  N   UNL     1       1.649   8.801  18.275  0.00  0.00    +0.000 NA
ATOM      9  C   UNL     1       1.539  10.257  18.300  0.00  0.00    +0.000 C 
ENDROOT
BRANCH   6  10
ATOM     10  N   UNL     1       2.027   5.795  17.900  0.00  0.00    +0.000 N 
ATOM     11  C   UNL     1       2.139   4.419  17.932  0.00  0.00    +0.000 C 
ATOM     12  O   UNL     1       1.281   3.741  17.380  0.00  0.00    +0.000 OA
ATOM     13  H   UNL     1       1.194   6.095  17.404  0.00  0.00    +0.000 HD
BRANCH  11  14
ATOM     14  C   UNL     1       3.352   3.767  18.619  0.00  0.00    +0.000 C 
ATOM     15  N   UNL     1       3.272   3.008  19.677  0.00  0.00    +0.000 NA
BRANCH  14  16
ATOM     16  C   UNL     1       4.689   3.904  18.050  0.00  0.00    +0.000 A 
ATOM     17  C   UNL     1       4.942   3.962  16.690  0.00  0.00    +0.000 A 
ATOM     18  S   UNL     1       6.556   4.467  16.413  0.00  0.00    +0.000 S 
ATOM     19  C   UNL     1       6.812   4.559  18.107  0.00  0.00    +0.000 A 
ATOM     20  N   UNL     1       7.932   5.082  18.625  0.00  0.00    +0.000 N 
ATOM     21  N   UNL     1       5.795   4.193  18.846  0.00  0.00    +0.000 NA
ATOM     22  H   UNL     1       8.522   5.657  18.037  0.00  0.00    +0.000 HD
ATOM     23  H   UNL     1       7.869   5.403  19.589  0.00  0.00    +0.000 HD
ENDBRANCH  14  16
BRANCH  15  24
ATOM     24  O   UNL     1       1.972   2.904  20.183  0.00  0.00    +0.000 OA
ATOM     25  C   UNL     1       2.049   2.993  21.604  0.00  0.00    +0.000 C 
ENDBRANCH  15  24
ENDBRANCH  11  14
ENDBRANCH   6  10
BRANCH   1  26
ATOM     26  S   UNL     1      -0.068  11.878  19.863  0.00  0.00    +0.000 S 
ATOM     27  O   UNL     1      -1.270  11.515  20.595  0.00  0.00    +0.000 OA
ATOM     28  O   UNL     1      -0.201  12.634  18.636  0.00  0.00    +0.000 OA
BRANCH  26  30
ATOM     29  C   UNL     1       2.145  13.424  20.332  0.00  0.00    +0.000 C 
ATOM     30  C   UNL     1       0.995  12.730  21.026  0.00  0.00    +0.000 C 
ENDBRANCH  26  30
ENDBRANCH   1  26
BRANCH   2  31
ATOM     31  C   UNL     1       0.260   9.113  21.690  0.00  0.00    +0.000 C 
ATOM     32  O   UNL     1       0.670   9.702  22.676  0.00  0.00    +0.000 OA
BRANCH  31  33
ATOM     33  O   UNL     1      -0.803   8.297  21.785  0.00  0.00    +0.000 OA
ATOM     34  H   UNL     1      -0.662   7.349  22.004  0.00  0.00    +0.000 HD
ENDBRANCH  31  33
ENDBRANCH   2  31
TORSDOF 8
ENDMDL
MODEL 4
REMARK VINA RESULT:      -7.5      1.470      1.719
REMARK  Name = 
REMARK  10 active torsions:
REMARK  status: ('A' for Active; 'I' for Inactive)
REMARK    1  A    between atoms: C_1  and  C_2
REMARK    2  A    between atoms: C_2  and  S_3
REMARK    3  A    between atoms: S_3  and  C_6
REMARK    4  A    between atoms: C_7  and  C_8
REMARK    5  A    between atoms: C_8  and  O_10
REMARK    6  A    between atoms: C_14  and  N_15
REMARK    7  A    between atoms: C_16  and  C_18
REMARK    8  A    between atoms: C_18  and  C_22
REMARK    9  A    between atoms: N_19  and  O_20
REMARK   10  A    between atoms: O_20  and  C_21
REMARK                            x       y       z     vdW  Elec       q    Type
REMARK                         _______ _______ _______ _____ _____    ______ ____
ROOT
ATOM      1  C   UNL     1       0.884  10.478  19.494  0.00  0.00    +0.000 C 
ATOM      2  C   UNL     1       0.852   9.391  20.288  0.00  0.00    +0.000 C 
ATOM      3  N   UNL     1       1.476   8.389  19.595  0.00  0.00    +0.000 N 
ATOM      4  C   UNL     1       2.093   7.204  19.936  0.00  0.00    +0.000 C 
ATOM      5  O   UNL     1       2.035   6.625  21.016  0.00  0.00    +0.000 OA
ATOM      6  C   UNL     1       2.783   6.748  18.652  0.00  0.00    +0.000 C 
ATOM      7  C   UNL     1       2.914   8.063  17.861  0.00  0.00    +0.000 C 
ATOM      8  N   UNL     1       1.715   8.761  18.271  0.00  0.00    +0.000 NA
ATOM      9  C   UNL     1       1.675  10.220  18.250  0.00  0.00    +0.000 C 
ENDROOT
BRANCH   6  10
ATOM     10  N   UNL     1       1.960   5.730  17.996  0.00  0.00    +0.000 N 
ATOM     11  C   UNL     1       2.187   4.384  17.794  0.00  0.00    +0.000 C 
ATOM     12  O   UNL     1       1.297   3.700  17.302  0.00  0.00    +0.000 OA
ATOM     13  H   UNL     1       1.027   6.004  17.708  0.00  0.00    +0.000 HD
BRANCH  11  14
ATOM     14  C   UNL     1       3.557   3.777  18.147  0.00  0.00    +0.000 C 
ATOM     15  N   UNL     1       3.736   2.854  19.050  0.00  0.00    +0.000 NA
BRANCH  14  16
ATOM     16  C   UNL     1       4.752   4.161  17.402  0.00  0.00    +0.000 A 
ATOM     17  C   UNL     1       5.933   4.565  18.001  0.00  0.00    +0.000 A 
ATOM     18  S   UNL     1       7.199   4.594  16.847  0.00  0.00    +0.000 S 
ATOM     19  C   UNL     1       6.097   4.086  15.634  0.00  0.00    +0.000 A 
ATOM     20  N   UNL     1       6.507   3.742  14.405  0.00  0.00    +0.000 N 
ATOM     21  N   UNL     1       4.856   3.947  16.029  0.00  0.00    +0.000 NA
ATOM     22  H   UNL     1       7.486   3.534  14.257  0.00  0.00    +0.000 HD
ATOM     23  H   UNL     1       5.872   3.151  13.873  0.00  0.00    +0.000 HD
ENDBRANCH  14  16
BRANCH  15  24
ATOM     24  O   UNL     1       2.563   2.517  19.734  0.00  0.00    +0.000 OA
ATOM     25  C   UNL     1       2.755   2.830  21.112  0.00  0.00    +0.000 C 
ENDBRANCH  15  24
ENDBRANCH  11  14
ENDBRANCH   6  10
BRANCH   1  26
ATOM     26  S   UNL     1       0.088  11.963  19.699  0.00  0.00    +0.000 S 
ATOM     27  O   UNL     1       0.482  12.474  21.001  0.00  0.00    +0.000 OA
ATOM     28  O   UNL     1      -1.322  11.824  19.402  0.00  0.00    +0.000 OA
BRANCH  26  30
ATOM     29  C   UNL     1       0.875  14.455  18.878  0.00  0.00    +0.000 C 
ATOM     30  C   UNL     1       0.898  12.997  18.481  0.00  0.00    +0.000 C 
ENDBRANCH  26  30
ENDBRANCH   1  26
BRANCH   2  31
ATOM     31  C   UNL     1       0.207   9.241  21.615  0.00  0.00    +0.000 C 
ATOM     32  O   UNL     1      -0.721   8.470  21.801  0.00  0.00    +0.000 OA
BRANCH  31  33
ATOM     33  O   UNL     1       0.732   9.926  22.644  0.00  0.00    +0.000 OA
ATOM     34  H   UNL     1       0.139  10.235  23.366  0.00  0.00    +0.000 HD
ENDBRANCH  31  33
ENDBRANCH   2  31
TORSDOF 8
ENDMDL
MODEL 5
REMARK VINA RESULT:      -7.5      0.994      1.073
REMARK  Name = 
REMARK  10 active torsions:
REMARK  status: ('A' for Active; 'I' for Inactive)
REMARK    1  A    between atoms: C_1  and  C_2
REMARK    2  A    between atoms: C_2  and  S_3
REMARK    3  A    between atoms: S_3  and  C_6
REMARK    4  A    between atoms: C_7  and  C_8
REMARK    5  A    between atoms: C_8  and  O_10
REMARK    6  A    between atoms: C_14  and  N_15
REMARK    7  A    between atoms: C_16  and  C_18
REMARK    8  A    between atoms: C_18  and  C_22
REMARK    9  A    between atoms: N_19  and  O_20
REMARK   10  A    between atoms: O_20  and  C_21
REMARK                            x       y       z     vdW  Elec       q    Type
REMARK                         _______ _______ _______ _____ _____    ______ ____
ROOT
ATOM      1  C   UNL     1       0.843  10.409  19.483  0.00  0.00    +0.000 C 
ATOM      2  C   UNL     1       0.828   9.306  20.256  0.00  0.00    +0.000 C 
ATOM      3  N   UNL     1       1.510   8.343  19.564  0.00  0.00    +0.000 N 
ATOM      4  C   UNL     1       2.160   7.175  19.903  0.00  0.00    +0.000 C 
ATOM      5  O   UNL     1       2.090   6.572  20.969  0.00  0.00    +0.000 OA
ATOM      6  C   UNL     1       2.906   6.770  18.632  0.00  0.00    +0.000 C 
ATOM      7  C   UNL     1       3.012   8.104  17.871  0.00  0.00    +0.000 C 
ATOM      8  N   UNL     1       1.775   8.749  18.255  0.00  0.00    +0.000 NA
ATOM      9  C   UNL     1       1.681  10.206  18.261  0.00  0.00    +0.000 C 
ENDROOT
BRANCH   6  10
ATOM     10  N   UNL     1       2.143   5.736  17.932  0.00  0.00    +0.000 N 
ATOM     11  C   UNL     1       2.375   4.381  17.800  0.00  0.00    +0.000 C 
ATOM     12  O   UNL     1       1.532   3.687  17.244  0.00  0.00    +0.000 OA
ATOM     13  H   UNL     1       1.247   6.005  17.542  0.00  0.00    +0.000 HD
BRANCH  11  14
ATOM     14  C   UNL     1       3.696   3.778  18.309  0.00  0.00    +0.000 C 
ATOM     15  N   UNL     1       3.770   2.743  19.100  0.00  0.00    +0.000 NA
BRANCH  14  16
ATOM     16  C   UNL     1       4.978   4.303  17.848  0.00  0.00    +0.000 A 
ATOM     17  C   UNL     1       6.049   4.559  18.687  0.00  0.00    +0.000 A 
ATOM     18  S   UNL     1       7.468   4.825  17.765  0.00  0.00    +0.000 S 
ATOM     19  C   UNL     1       6.567   4.598  16.323  0.00  0.00    +0.000 A 
ATOM     20  N   UNL     1       7.160   4.522  15.123  0.00  0.00    +0.000 N 
ATOM     21  N   UNL     1       5.286   4.388  16.491  0.00  0.00    +0.000 NA
ATOM     22  H   UNL     1       8.155   4.343  15.079  0.00  0.00    +0.000 HD
ATOM     23  H   UNL     1       6.624   4.065  14.389  0.00  0.00    +0.000 HD
ENDBRANCH  14  16
BRANCH  15  24
ATOM     24  O   UNL     1       2.518   2.274  19.511  0.00  0.00    +0.000 OA
ATOM     25  C   UNL     1       2.326   2.674  20.867  0.00  0.00    +0.000 C 
ENDBRANCH  15  24
ENDBRANCH  11  14
ENDBRANCH   6  10
BRANCH   1  26
ATOM     26  S   UNL     1      -0.015  11.860  19.691  0.00  0.00    +0.000 S 
ATOM     27  O   UNL     1       0.342  12.722  18.576  0.00  0.00    +0.000 OA
ATOM     28  O   UNL     1       0.157  12.358  21.039  0.00  0.00    +0.000 OA
BRANCH  26  30
ATOM     29  C   UNL     1      -1.873  10.668  18.068  0.00  0.00    +0.000 C 
ATOM     30  C   UNL     1      -1.706  11.342  19.411  0.00  0.00    +0.000 C 
ENDBRANCH  26  30
ENDBRANCH   1  26
BRANCH   2  31
ATOM     31  C   UNL     1       0.148   9.106  21.558  0.00  0.00    +0.000 C 
ATOM     32  O   UNL     1      -0.719   8.262  21.714  0.00  0.00    +0.000 OA
BRANCH  31  33
ATOM     33  O   UNL     1       0.575   9.835  22.603  0.00  0.00    +0.000 OA
ATOM     34  H   UNL     1       0.746  10.795  22.480  0.00  0.00    +0.000 HD
ENDBRANCH  31  33
ENDBRANCH   2  31
TORSDOF 8
ENDMDL
MODEL 6
REMARK VINA RESULT:      -7.4      2.105      3.051
REMARK  Name = 
REMARK  10 active torsions:
REMARK  status: ('A' for Active; 'I' for Inactive)
REMARK    1  A    between atoms: C_1  and  C_2
REMARK    2  A    between atoms: C_2  and  S_3
REMARK    3  A    between atoms: S_3  and  C_6
REMARK    4  A    between atoms: C_7  and  C_8
REMARK    5  A    between atoms: C_8  and  O_10
REMARK    6  A    between atoms: C_14  and  N_15
REMARK    7  A    between atoms: C_16  and  C_18
REMARK    8  A    between atoms: C_18  and  C_22
REMARK    9  A    between atoms: N_19  and  O_20
REMARK   10  A    between atoms: O_20  and  C_21
REMARK                            x       y       z     vdW  Elec       q    Type
REMARK                         _______ _______ _______ _____ _____    ______ ____
ROOT
ATOM      1  C   UNL     1       0.746   9.495  20.569  0.00  0.00    +0.000 C 
ATOM      2  C   UNL     1       1.485   9.342  19.454  0.00  0.00    +0.000 C 
ATOM      3  N   UNL     1       2.045   8.097  19.530  0.00  0.00    +0.000 N 
ATOM      4  C   UNL     1       2.568   7.204  18.618  0.00  0.00    +0.000 C 
ATOM      5  O   UNL     1       2.867   7.431  17.450  0.00  0.00    +0.000 OA
ATOM      6  C   UNL     1       2.764   5.915  19.414  0.00  0.00    +0.000 C 
ATOM      7  C   UNL     1       1.786   6.099  20.589  0.00  0.00    +0.000 C 
ATOM      8  N   UNL     1       1.851   7.530  20.791  0.00  0.00    +0.000 NA
ATOM      9  C   UNL     1       0.718   8.238  21.379  0.00  0.00    +0.000 C 
ENDROOT
BRANCH   6  10
ATOM     10  N   UNL     1       4.168   5.800  19.810  0.00  0.00    +0.000 N 
ATOM     11  C   UNL     1       5.182   5.008  19.311  0.00  0.00    +0.000 C 
ATOM     12  O   UNL     1       6.320   5.158  19.742  0.00  0.00    +0.000 OA
ATOM     13  H   UNL     1       4.508   6.456  20.505  0.00  0.00    +0.000 HD
BRANCH  11  14
ATOM     14  C   UNL     1       4.863   3.929  18.261  0.00  0.00    +0.000 C 
ATOM     15  N   UNL     1       4.069   2.916  18.472  0.00  0.00    +0.000 NA
BRANCH  14  16
ATOM     16  C   UNL     1       5.387   4.038  16.902  0.00  0.00    +0.000 A 
ATOM     17  C   UNL     1       4.631   3.795  15.768  0.00  0.00    +0.000 A 
ATOM     18  S   UNL     1       5.463   4.353  14.377  0.00  0.00    +0.000 S 
ATOM     19  C   UNL     1       6.767   4.862  15.369  0.00  0.00    +0.000 A 
ATOM     20  N   UNL     1       7.786   5.584  14.881  0.00  0.00    +0.000 N 
ATOM     21  N   UNL     1       6.636   4.598  16.645  0.00  0.00    +0.000 NA
ATOM     22  H   UNL     1       7.673   6.051  13.990  0.00  0.00    +0.000 HD
ATOM     23  H   UNL     1       8.321   6.117  15.563  0.00  0.00    +0.000 HD
ENDBRANCH  14  16
BRANCH  15  24
ATOM     24  O   UNL     1       3.590   2.856  19.785  0.00  0.00    +0.000 OA
ATOM     25  C   UNL     1       2.280   2.295  19.746  0.00  0.00    +0.000 C 
ENDBRANCH  15  24
ENDBRANCH  11  14
ENDBRANCH   6  10
BRANCH   1  26
ATOM     26  S   UNL     1      -0.011  10.897  21.155  0.00  0.00    +0.000 S 
ATOM     27  O   UNL     1      -1.110  11.191  20.250  0.00  0.00    +0.000 OA
ATOM     28  O   UNL     1       0.971  11.928  21.416  0.00  0.00    +0.000 OA
BRANCH  26  30
ATOM     29  C   UNL     1      -1.687  11.344  23.276  0.00  0.00    +0.000 C 
ATOM     30  C   UNL     1      -0.751  10.318  22.680  0.00  0.00    +0.000 C 
ENDBRANCH  26  30
ENDBRANCH   1  26
BRANCH   2  31
ATOM     31  C   UNL     1       1.737  10.331  18.377  0.00  0.00    +0.000 C 
ATOM     32  O   UNL     1       2.089  11.474  18.616  0.00  0.00    +0.000 OA
BRANCH  31  33
ATOM     33  O   UNL     1       1.647   9.905  17.106  0.00  0.00    +0.000 OA
ATOM     34  H   UNL     1       2.438   9.963  16.524  0.00  0.00    +0.000 HD
ENDBRANCH  31  33
ENDBRANCH   2  31
TORSDOF 8
ENDMDL
MODEL 7
REMARK VINA RESULT:      -7.2      1.263      1.547
REMARK  Name = 
REMARK  10 active torsions:
REMARK  status: ('A' for Active; 'I' for Inactive)
REMARK    1  A    between atoms: C_1  and  C_2
REMARK    2  A    between atoms: C_2  and  S_3
REMARK    3  A    between atoms: S_3  and  C_6
REMARK    4  A    between atoms: C_7  and  C_8
REMARK    5  A    between atoms: C_8  and  O_10
REMARK    6  A    between atoms: C_14  and  N_15
REMARK    7  A    between atoms: C_16  and  C_18
REMARK    8  A    between atoms: C_18  and  C_22
REMARK    9  A    between atoms: N_19  and  O_20
REMARK   10  A    between atoms: O_20  and  C_21
REMARK                            x       y       z     vdW  Elec       q    Type
REMARK                         _______ _______ _______ _____ _____    ______ ____
ROOT
ATOM      1  C   UNL     1       0.511  10.721  19.830  0.00  0.00    +0.000 C 
ATOM      2  C   UNL     1       0.636   9.601  20.567  0.00  0.00    +0.000 C 
ATOM      3  N   UNL     1       1.292   8.694  19.780  0.00  0.00    +0.000 N 
ATOM      4  C   UNL     1       2.035   7.557  20.013  0.00  0.00    +0.000 C 
ATOM      5  O   UNL     1       2.111   6.926  21.063  0.00  0.00    +0.000 OA
ATOM      6  C   UNL     1       2.663   7.225  18.660  0.00  0.00    +0.000 C 
ATOM      7  C   UNL     1       2.616   8.581  17.932  0.00  0.00    +0.000 C 
ATOM      8  N   UNL     1       1.395   9.146  18.463  0.00  0.00    +0.000 NA
ATOM      9  C   UNL     1       1.225  10.595  18.522  0.00  0.00    +0.000 C 
ENDROOT
BRANCH   6  10
ATOM     10  N   UNL     1       1.886   6.167  18.014  0.00  0.00    +0.000 N 
ATOM     11  C   UNL     1       2.124   4.811  17.911  0.00  0.00    +0.000 C 
ATOM     12  O   UNL     1       1.269   4.095  17.402  0.00  0.00    +0.000 OA
ATOM     13  H   UNL     1       0.976   6.420  17.645  0.00  0.00    +0.000 HD
BRANCH  11  14
ATOM     14  C   UNL     1       3.464   4.231  18.395  0.00  0.00    +0.000 C 
ATOM     15  N   UNL     1       3.599   3.494  19.463  0.00  0.00    +0.000 NA
BRANCH  14  16
ATOM     16  C   UNL     1       4.680   4.414  17.608  0.00  0.00    +0.000 A 
ATOM     17  C   UNL     1       5.908   4.741  18.157  0.00  0.00    +0.000 A 
ATOM     18  S   UNL     1       7.148   4.531  16.994  0.00  0.00    +0.000 S 
ATOM     19  C   UNL     1       5.976   4.037  15.842  0.00  0.00    +0.000 A 
ATOM     20  N   UNL     1       6.324   3.541  14.647  0.00  0.00    +0.000 N 
ATOM     21  N   UNL     1       4.735   4.069  16.259  0.00  0.00    +0.000 NA
ATOM     22  H   UNL     1       7.273   3.217  14.509  0.00  0.00    +0.000 HD
ATOM     23  H   UNL     1       5.621   2.977  14.176  0.00  0.00    +0.000 HD
ENDBRANCH  14  16
BRANCH  15  24
ATOM     24  O   UNL     1       2.408   3.343  20.181  0.00  0.00    +0.000 OA
ATOM     25  C   UNL     1       2.706   2.620  21.374  0.00  0.00    +0.000 C 
ENDBRANCH  15  24
ENDBRANCH  11  14
ENDBRANCH   6  10
BRANCH   1  26
ATOM     26  S   UNL     1      -0.395  12.116  20.169  0.00  0.00    +0.000 S 
ATOM     27  O   UNL     1       0.529  13.095  20.718  0.00  0.00    +0.000 OA
ATOM     28  O   UNL     1      -1.580  11.775  20.928  0.00  0.00    +0.000 OA
BRANCH  26  30
ATOM     29  C   UNL     1      -2.018  11.946  17.968  0.00  0.00    +0.000 C 
ATOM     30  C   UNL     1      -0.830  12.692  18.530  0.00  0.00    +0.000 C 
ENDBRANCH  26  30
ENDBRANCH   1  26
BRANCH   2  31
ATOM     31  C   UNL     1       0.110   9.333  21.927  0.00  0.00    +0.000 C 
ATOM     32  O   UNL     1       0.383  10.044  22.880  0.00  0.00    +0.000 OA
BRANCH  31  33
ATOM     33  O   UNL     1      -0.758   8.317  22.071  0.00  0.00    +0.000 OA
ATOM     34  H   UNL     1      -0.691   7.541  21.470  0.00  0.00    +0.000 HD
ENDBRANCH  31  33
ENDBRANCH   2  31
TORSDOF 8
ENDMDL
MODEL 8
REMARK VINA RESULT:      -7.0      1.979      2.906
REMARK  Name = 
REMARK  10 active torsions:
REMARK  status: ('A' for Active; 'I' for Inactive)
REMARK    1  A    between atoms: C_1  and  C_2
REMARK    2  A    between atoms: C_2  and  S_3
REMARK    3  A    between atoms: S_3  and  C_6
REMARK    4  A    between atoms: C_7  and  C_8
REMARK    5  A    between atoms: C_8  and  O_10
REMARK    6  A    between atoms: C_14  and  N_15
REMARK    7  A    between atoms: C_16  and  C_18
REMARK    8  A    between atoms: C_18  and  C_22
REMARK    9  A    between atoms: N_19  and  O_20
REMARK   10  A    between atoms: O_20  and  C_21
REMARK                            x       y       z     vdW  Elec       q    Type
REMARK                         _______ _______ _______ _____ _____    ______ ____
ROOT
ATOM      1  C   UNL     1       0.625   9.456  20.682  0.00  0.00    +0.000 C 
ATOM      2  C   UNL     1       1.395   9.373  19.581  0.00  0.00    +0.000 C 
ATOM      3  N   UNL     1       1.978   8.135  19.611  0.00  0.00    +0.000 N 
ATOM      4  C   UNL     1       2.542   7.299  18.671  0.00  0.00    +0.000 C 
ATOM      5  O   UNL     1       2.866   7.588  17.524  0.00  0.00    +0.000 OA
ATOM      6  C   UNL     1       2.743   5.975  19.408  0.00  0.00    +0.000 C 
ATOM      7  C   UNL     1       1.731   6.083  20.564  0.00  0.00    +0.000 C 
ATOM      8  N   UNL     1       1.763   7.503  20.837  0.00  0.00    +0.000 NA
ATOM      9  C   UNL     1       0.601   8.160  21.429  0.00  0.00    +0.000 C 
ENDROOT
BRANCH   6  10
ATOM     10  N   UNL     1       4.138   5.867  19.836  0.00  0.00    +0.000 N 
ATOM     11  C   UNL     1       5.160   5.059  19.378  0.00  0.00    +0.000 C 
ATOM     12  O   UNL     1       6.288   5.218  19.828  0.00  0.00    +0.000 OA
ATOM     13  H   UNL     1       4.466   6.541  20.520  0.00  0.00    +0.000 HD
BRANCH  11  14
ATOM     14  C   UNL     1       4.858   3.954  18.351  0.00  0.00    +0.000 C 
ATOM     15  N   UNL     1       4.114   2.911  18.597  0.00  0.00    +0.000 NA
BRANCH  14  16
ATOM     16  C   UNL     1       5.339   4.067  16.977  0.00  0.00    +0.000 A 
ATOM     17  C   UNL     1       4.543   3.850  15.866  0.00  0.00    +0.000 A 
ATOM     18  S   UNL     1       5.340   4.406  14.454  0.00  0.00    +0.000 S 
ATOM     19  C   UNL     1       6.686   4.880  15.407  0.00  0.00    +0.000 A 
ATOM     20  N   UNL     1       7.702   5.587  14.894  0.00  0.00    +0.000 N 
ATOM     21  N   UNL     1       6.590   4.605  16.684  0.00  0.00    +0.000 NA
ATOM     22  H   UNL     1       7.569   6.065  14.011  0.00  0.00    +0.000 HD
ATOM     23  H   UNL     1       8.269   6.102  15.563  0.00  0.00    +0.000 HD
ENDBRANCH  14  16
BRANCH  15  24
ATOM     24  O   UNL     1       3.674   2.849  19.923  0.00  0.00    +0.000 OA
ATOM     25  C   UNL     1       2.323   2.392  19.913  0.00  0.00    +0.000 C 
ENDBRANCH  15  24
ENDBRANCH  11  14
ENDBRANCH   6  10
BRANCH   1  26
ATOM     26  S   UNL     1      -0.174  10.813  21.315  0.00  0.00    +0.000 S 
ATOM     27  O   UNL     1       0.831  11.849  21.492  0.00  0.00    +0.000 OA
ATOM     28  O   UNL     1      -0.990  10.434  22.449  0.00  0.00    +0.000 OA
BRANCH  26  30
ATOM     29  C   UNL     1      -2.237  12.340  20.355  0.00  0.00    +0.000 C 
ATOM     30  C   UNL     1      -1.196  11.327  19.936  0.00  0.00    +0.000 C 
ENDBRANCH  26  30
ENDBRANCH   1  26
BRANCH   2  31
ATOM     31  C   UNL     1       1.655  10.417  18.561  0.00  0.00    +0.000 C 
ATOM     32  O   UNL     1       2.075  11.524  18.859  0.00  0.00    +0.000 OA
BRANCH  31  33
ATOM     33  O   UNL     1       1.495  10.082  17.270  0.00  0.00    +0.000 OA
ATOM     34  H   UNL     1       1.326  10.791  16.608  0.00  0.00    +0.000 HD
ENDBRANCH  31  33
ENDBRANCH   2  31
TORSDOF 8
ENDMDL
MODEL 9
REMARK VINA RESULT:      -7.0      2.122      3.089
REMARK  Name = 
REMARK  10 active torsions:
REMARK  status: ('A' for Active; 'I' for Inactive)
REMARK    1  A    between atoms: C_1  and  C_2
REMARK    2  A    between atoms: C_2  and  S_3
REMARK    3  A    between atoms: S_3  and  C_6
REMARK    4  A    between atoms: C_7  and  C_8
REMARK    5  A    between atoms: C_8  and  O_10
REMARK    6  A    between atoms: C_14  and  N_15
REMARK    7  A    between atoms: C_16  and  C_18
REMARK    8  A    between atoms: C_18  and  C_22
REMARK    9  A    between atoms: N_19  and  O_20
REMARK   10  A    between atoms: O_20  and  C_21
REMARK                            x       y       z     vdW  Elec       q    Type
REMARK                         _______ _______ _______ _____ _____    ______ ____
ROOT
ATOM      1  C   UNL     1       0.550   9.387  20.535  0.00  0.00    +0.000 C 
ATOM      2  C   UNL     1       1.256   9.206  19.403  0.00  0.00    +0.000 C 
ATOM      3  N   UNL     1       1.896   8.005  19.537  0.00  0.00    +0.000 N 
ATOM      4  C   UNL     1       2.442   7.087  18.664  0.00  0.00    +0.000 C 
ATOM      5  O   UNL     1       2.684   7.254  17.473  0.00  0.00    +0.000 OA
ATOM      6  C   UNL     1       2.748   5.868  19.532  0.00  0.00    +0.000 C 
ATOM      7  C   UNL     1       1.802   6.069  20.731  0.00  0.00    +0.000 C 
ATOM      8  N   UNL     1       1.784   7.512  20.838  0.00  0.00    +0.000 NA
ATOM      9  C   UNL     1       0.630   8.187  21.425  0.00  0.00    +0.000 C 
ENDROOT
BRANCH   6  10
ATOM     10  N   UNL     1       4.169   5.865  19.879  0.00  0.00    +0.000 N 
ATOM     11  C   UNL     1       5.219   5.127  19.369  0.00  0.00    +0.000 C 
ATOM     12  O   UNL     1       6.357   5.372  19.751  0.00  0.00    +0.000 OA
ATOM     13  H   UNL     1       4.487   6.569  20.537  0.00  0.00    +0.000 HD
BRANCH  11  14
ATOM     14  C   UNL     1       4.940   3.991  18.370  0.00  0.00    +0.000 C 
ATOM     15  N   UNL     1       4.237   2.928  18.650  0.00  0.00    +0.000 NA
BRANCH  14  16
ATOM     16  C   UNL     1       5.393   4.091  16.986  0.00  0.00    +0.000 A 
ATOM     17  C   UNL     1       4.573   3.872  15.892  0.00  0.00    +0.000 A 
ATOM     18  S   UNL     1       5.344   4.414  14.461  0.00  0.00    +0.000 S 
ATOM     19  C   UNL     1       6.712   4.886  15.383  0.00  0.00    +0.000 A 
ATOM     20  N   UNL     1       7.722   5.583  14.844  0.00  0.00    +0.000 N 
ATOM     21  N   UNL     1       6.641   4.620  16.663  0.00  0.00    +0.000 NA
ATOM     22  H   UNL     1       7.573   6.056  13.961  0.00  0.00    +0.000 HD
ATOM     23  H   UNL     1       8.305   6.099  15.498  0.00  0.00    +0.000 HD
ENDBRANCH  14  16
BRANCH  15  24
ATOM     24  O   UNL     1       3.822   2.878  19.985  0.00  0.00    +0.000 OA
ATOM     25  C   UNL     1       2.564   2.207  20.025  0.00  0.00    +0.000 C 
ENDBRANCH  15  24
ENDBRANCH  11  14
ENDBRANCH   6  10
BRANCH   1  26
ATOM     26  S   UNL     1      -0.273  10.776  21.060  0.00  0.00    +0.000 S 
ATOM     27  O   UNL     1      -0.649  10.544  22.445  0.00  0.00    +0.000 OA
ATOM     28  O   UNL     1      -1.303  11.140  20.111  0.00  0.00    +0.000 OA
BRANCH  26  30
ATOM     29  C   UNL     1       0.694  13.203  20.234  0.00  0.00    +0.000 C 
ATOM     30  C   UNL     1       1.033  12.002  21.087  0.00  0.00    +0.000 C 
ENDBRANCH  26  30
ENDBRANCH   1  26
BRANCH   2  31
ATOM     31  C   UNL     1       1.406  10.134  18.257  0.00  0.00    +0.000 C 
ATOM     32  O   UNL     1       2.494  10.564  17.909  0.00  0.00    +0.000 OA
BRANCH  31  33
ATOM     33  O   UNL     1       0.306  10.431  17.545  0.00  0.00    +0.000 OA
ATOM     34  H   UNL     1      -0.110   9.732  16.992  0.00  0.00    +0.000 HD
ENDBRANCH  31  33
ENDBRANCH   2  31
TORSDOF 8
ENDMDL
