MODEL 1
REMARK VINA RESULT:      -9.0      0.000      0.000
REMARK  Name = 
REMARK  5 active torsions:
REMARK  status: ('A' for Active; 'I' for Inactive)
REMARK    1  A    between atoms: C_1  and  O_2
REMARK    2  A    between atoms: O_2  and  C_3
REMARK    3  A    between atoms: C_6  and  C_7
REMARK    4  A    between atoms: C_7  and  N_8
REMARK    5  A    between atoms: C_15  and  C_16
REMARK                            x       y       z     vdW  Elec       q    Type
REMARK                         _______ _______ _______ _____ _____    ______ ____
ROOT
ATOM      1  N   UNL     1       1.645  10.203  17.912  0.00  0.00    +0.000 N 
ATOM      2  C   UNL     1       2.081   8.996  18.331  0.00  0.00    +0.000 A 
ATOM      3  N   UNL     1       1.590   8.258  19.298  0.00  0.00    +0.000 NA
ATOM      4  C   UNL     1       2.200   7.015  19.301  0.00  0.00    +0.000 A 
ATOM      5  N   UNL     1       1.819   6.063  20.183  0.00  0.00    +0.000 NA
ATOM      6  C   UNL     1       2.440   4.870  20.100  0.00  0.00    +0.000 A 
ATOM      7  C   UNL     1       3.417   4.550  19.136  0.00  0.00    +0.000 A 
ATOM      8  C   UNL     1       3.852   5.551  18.213  0.00  0.00    +0.000 A 
ATOM      9  C   UNL     1       3.198   6.807  18.347  0.00  0.00    +0.000 A 
ATOM     10  S   UNL     1       3.411   8.300  17.504  0.00  0.00    +0.000 S 
ATOM     11  C   UNL     1       4.040   3.163  19.146  0.00  0.00    +0.000 C 
ATOM     12  C   UNL     1       3.237   2.082  19.844  0.00  0.00    +0.000 C 
ATOM     13  C   UNL     1       2.818   2.620  21.176  0.00  0.00    +0.000 C 
ATOM     14  O   UNL     1       3.070   2.028  22.225  0.00  0.00    +0.000 OA
ATOM     15  C   UNL     1       1.974   3.865  21.131  0.00  0.00    +0.000 C 
ATOM     16  H   UNL     1       2.165  10.655  17.168  0.00  0.00    +0.000 HD
ENDROOT
BRANCH   8  17
ATOM     17  C   UNL     1       4.893   5.337  17.160  0.00  0.00    +0.000 A 
ATOM     18  C   UNL     1       4.617   4.637  15.968  0.00  0.00    +0.000 A 
ATOM     19  C   UNL     1       5.589   4.432  14.981  0.00  0.00    +0.000 A 
ATOM     20  C   UNL     1       6.895   4.848  15.195  0.00  0.00    +0.000 A 
ATOM     21  C   UNL     1       7.210   5.525  16.365  0.00  0.00    +0.000 A 
ATOM     22  C   UNL     1       6.211   5.808  17.303  0.00  0.00    +0.000 A 
ENDBRANCH   8  17
BRANCH   1  23
ATOM     23  C   UNL     1       0.962  11.119  18.795  0.00  0.00    +0.000 C 
BRANCH  23  27
ATOM     24  C   UNL     1      -3.285  10.894  17.944  0.00  0.00    +0.000 A 
ATOM     25  C   UNL     1      -2.392   9.990  17.369  0.00  0.00    +0.000 A 
ATOM     26  C   UNL     1      -1.027  10.059  17.655  0.00  0.00    +0.000 A 
ATOM     27  C   UNL     1      -0.527  11.047  18.516  0.00  0.00    +0.000 A 
ATOM     28  C   UNL     1      -1.423  11.966  19.077  0.00  0.00    +0.000 A 
ATOM     29  C   UNL     1      -2.794  11.888  18.795  0.00  0.00    +0.000 A 
BRANCH  24  31
ATOM     30  C   UNL     1      -5.315  11.930  17.296  0.00  0.00    +0.000 C 
ATOM     31  O   UNL     1      -4.592  10.736  17.572  0.00  0.00    +0.000 OA
ENDBRANCH  24  31
ENDBRANCH  23  27
ENDBRANCH   1  23
TORSDOF 4
ENDMDL
MODEL 2
REMARK VINA RESULT:      -9.0      0.139      1.246
REMARK  Name = 
REMARK  5 active torsions:
REMARK  status: ('A' for Active; 'I' for Inactive)
REMARK    1  A    between atoms: C_1  and  O_2
REMARK    2  A    between atoms: O_2  and  C_3
REMARK    3  A    between atoms: C_6  and  C_7
REMARK    4  A    between atoms: C_7  and  N_8
REMARK    5  A    between atoms: C_15  and  C_16
REMARK                            x       y       z     vdW  Elec       q    Type
REMARK                         _______ _______ _______ _____ _____    ______ ____
ROOT
ATOM      1  N   UNL     1       1.691  10.209  17.884  0.00  0.00    +0.000 N 
ATOM      2  C   UNL     1       2.108   8.999  18.312  0.00  0.00    +0.000 A 
ATOM      3  N   UNL     1       1.610   8.279  19.288  0.00  0.00    +0.000 NA
ATOM      4  C   UNL     1       2.198   7.025  19.300  0.00  0.00    +0.000 A 
ATOM      5  N   UNL     1       1.805   6.088  20.193  0.00  0.00    +0.000 NA
ATOM      6  C   UNL     1       2.405   4.884  20.117  0.00  0.00    +0.000 A 
ATOM      7  C   UNL     1       3.371   4.538  19.151  0.00  0.00    +0.000 A 
ATOM      8  C   UNL     1       3.818   5.523  18.216  0.00  0.00    +0.000 A 
ATOM      9  C   UNL     1       3.187   6.791  18.342  0.00  0.00    +0.000 A 
ATOM     10  S   UNL     1       3.421   8.272  17.485  0.00  0.00    +0.000 S 
ATOM     11  C   UNL     1       3.970   3.140  19.171  0.00  0.00    +0.000 C 
ATOM     12  C   UNL     1       3.151   2.080  19.883  0.00  0.00    +0.000 C 
ATOM     13  C   UNL     1       2.749   2.638  21.212  0.00  0.00    +0.000 C 
ATOM     14  O   UNL     1       2.996   2.051  22.266  0.00  0.00    +0.000 OA
ATOM     15  C   UNL     1       1.927   3.897  21.161  0.00  0.00    +0.000 C 
ATOM     16  H   UNL     1       2.214  10.645  17.133  0.00  0.00    +0.000 HD
ENDROOT
BRANCH   8  17
ATOM     17  C   UNL     1       4.849   5.281  17.160  0.00  0.00    +0.000 A 
ATOM     18  C   UNL     1       6.162   5.781  17.270  0.00  0.00    +0.000 A 
ATOM     19  C   UNL     1       7.130   5.559  16.283  0.00  0.00    +0.000 A 
ATOM     20  C   UNL     1       6.789   4.901  15.110  0.00  0.00    +0.000 A 
ATOM     21  C   UNL     1       5.500   4.409  14.957  0.00  0.00    +0.000 A 
ATOM     22  C   UNL     1       4.566   4.554  15.989  0.00  0.00    +0.000 A 
ENDBRANCH   8  17
BRANCH   1  23
ATOM     23  C   UNL     1       1.029  11.145  18.762  0.00  0.00    +0.000 C 
BRANCH  23  27
ATOM     24  C   UNL     1      -3.254  10.962  18.099  0.00  0.00    +0.000 A 
ATOM     25  C   UNL     1      -2.706  11.890  18.984  0.00  0.00    +0.000 A 
ATOM     26  C   UNL     1      -1.326  11.954  19.186  0.00  0.00    +0.000 A 
ATOM     27  C   UNL     1      -0.465  11.075  18.512  0.00  0.00    +0.000 A 
ATOM     28  C   UNL     1      -1.019  10.130  17.637  0.00  0.00    +0.000 A 
ATOM     29  C   UNL     1      -2.404  10.076  17.430  0.00  0.00    +0.000 A 
BRANCH  24  31
ATOM     30  C   UNL     1      -5.164  11.866  17.026  0.00  0.00    +0.000 C 
ATOM     31  O   UNL     1      -4.618  10.985  18.001  0.00  0.00    +0.000 OA
ENDBRANCH  24  31
ENDBRANCH  23  27
ENDBRANCH   1  23
TORSDOF 4
ENDMDL
MODEL 3
REMARK VINA RESULT:      -8.4      2.157      4.201
REMARK  Name = 
REMARK  5 active torsions:
REMARK  status: ('A' for Active; 'I' for Inactive)
REMARK    1  A    between atoms: C_1  and  O_2
REMARK    2  A    between atoms: O_2  and  C_3
REMARK    3  A    between atoms: C_6  and  C_7
REMARK    4  A    between atoms: C_7  and  N_8
REMARK    5  A    between atoms: C_15  and  C_16
REMARK                            x       y       z     vdW  Elec       q    Type
REMARK                         _______ _______ _______ _____ _____    ______ ____
ROOT
ATOM      1  N   UNL     1       0.517  10.230  19.989  0.00  0.00    +0.000 N 
ATOM      2  C   UNL     1       1.168   9.228  19.361  0.00  0.00    +0.000 A 
ATOM      3  N   UNL     1       2.010   9.322  18.360  0.00  0.00    +0.000 NA
ATOM      4  C   UNL     1       2.598   8.092  18.118  0.00  0.00    +0.000 A 
ATOM      5  N   UNL     1       3.542   7.957  17.159  0.00  0.00    +0.000 NA
ATOM      6  C   UNL     1       4.087   6.734  17.007  0.00  0.00    +0.000 A 
ATOM      7  C   UNL     1       3.766   5.618  17.806  0.00  0.00    +0.000 A 
ATOM      8  C   UNL     1       2.752   5.735  18.808  0.00  0.00    +0.000 A 
ATOM      9  C   UNL     1       2.176   7.030  18.921  0.00  0.00    +0.000 A 
ATOM     10  S   UNL     1       0.914   7.633  19.935  0.00  0.00    +0.000 S 
ATOM     11  C   UNL     1       4.458   4.291  17.536  0.00  0.00    +0.000 C 
ATOM     12  C   UNL     1       5.773   4.372  16.785  0.00  0.00    +0.000 C 
ATOM     13  C   UNL     1       5.560   5.252  15.595  0.00  0.00    +0.000 C 
ATOM     14  O   UNL     1       5.820   4.875  14.452  0.00  0.00    +0.000 OA
ATOM     15  C   UNL     1       5.119   6.657  15.902  0.00  0.00    +0.000 C 
ATOM     16  H   UNL     1      -0.129   9.977  20.728  0.00  0.00    +0.000 HD
ENDROOT
BRANCH   8  17
ATOM     17  C   UNL     1       2.313   4.619  19.702  0.00  0.00    +0.000 A 
ATOM     18  C   UNL     1       1.324   3.694  19.310  0.00  0.00    +0.000 A 
ATOM     19  C   UNL     1       0.908   2.649  20.145  0.00  0.00    +0.000 A 
ATOM     20  C   UNL     1       1.407   2.549  21.436  0.00  0.00    +0.000 A 
ATOM     21  C   UNL     1       2.370   3.453  21.864  0.00  0.00    +0.000 A 
ATOM     22  C   UNL     1       2.848   4.437  20.990  0.00  0.00    +0.000 A 
ENDBRANCH   8  17
BRANCH   1  23
ATOM     23  C   UNL     1       0.193  11.469  19.321  0.00  0.00    +0.000 C 
BRANCH  23  27
ATOM     24  C   UNL     1      -3.828  11.166  17.722  0.00  0.00    +0.000 A 
ATOM     25  C   UNL     1      -3.553  11.984  18.818  0.00  0.00    +0.000 A 
ATOM     26  C   UNL     1      -2.255  12.087  19.322  0.00  0.00    +0.000 A 
ATOM     27  C   UNL     1      -1.205  11.360  18.744  0.00  0.00    +0.000 A 
ATOM     28  C   UNL     1      -1.486  10.524  17.655  0.00  0.00    +0.000 A 
ATOM     29  C   UNL     1      -2.788  10.430  17.145  0.00  0.00    +0.000 A 
BRANCH  24  31
ATOM     30  C   UNL     1      -5.786  12.394  17.202  0.00  0.00    +0.000 C 
ATOM     31  O   UNL     1      -5.139  11.134  17.333  0.00  0.00    +0.000 OA
ENDBRANCH  24  31
ENDBRANCH  23  27
ENDBRANCH   1  23
TORSDOF 4
ENDMDL
MODEL 4
REMARK VINA RESULT:      -8.4      2.673      3.741
REMARK  Name = 
REMARK  5 active torsions:
REMARK  status: ('A' for Active; 'I' for Inactive)
REMARK    1  A    between atoms: C_1  and  O_2
REMARK    2  A    between atoms: O_2  and  C_3
REMARK    3  A    between atoms: C_6  and  C_7
REMARK    4  A    between atoms: C_7  and  N_8
REMARK    5  A    between atoms: C_15  and  C_16
REMARK                            x       y       z     vdW  Elec       q    Type
REMARK                         _______ _______ _______ _____ _____    ______ ____
ROOT
ATOM      1  N   UNL     1       1.551  10.285  17.880  0.00  0.00    +0.000 N 
ATOM      2  C   UNL     1       1.982   9.081  18.314  0.00  0.00    +0.000 A 
ATOM      3  N   UNL     1       1.479   8.349  19.278  0.00  0.00    +0.000 NA
ATOM      4  C   UNL     1       2.090   7.107  19.298  0.00  0.00    +0.000 A 
ATOM      5  N   UNL     1       1.696   6.160  20.181  0.00  0.00    +0.000 NA
ATOM      6  C   UNL     1       2.320   4.968  20.115  0.00  0.00    +0.000 A 
ATOM      7  C   UNL     1       3.311   4.642  19.167  0.00  0.00    +0.000 A 
ATOM      8  C   UNL     1       3.758   5.638  18.243  0.00  0.00    +0.000 A 
ATOM      9  C   UNL     1       3.101   6.893  18.360  0.00  0.00    +0.000 A 
ATOM     10  S   UNL     1       3.324   8.381  17.511  0.00  0.00    +0.000 S 
ATOM     11  C   UNL     1       3.936   3.256  19.195  0.00  0.00    +0.000 C 
ATOM     12  C   UNL     1       3.123   2.179  19.888  0.00  0.00    +0.000 C 
ATOM     13  C   UNL     1       2.685   2.725  21.210  0.00  0.00    +0.000 C 
ATOM     14  O   UNL     1       2.922   2.140  22.267  0.00  0.00    +0.000 OA
ATOM     15  C   UNL     1       1.840   3.969  21.146  0.00  0.00    +0.000 C 
ATOM     16  H   UNL     1       2.081  10.732  17.141  0.00  0.00    +0.000 HD
ENDROOT
BRANCH   8  17
ATOM     17  C   UNL     1       4.814   5.418  17.207  0.00  0.00    +0.000 A 
ATOM     18  C   UNL     1       4.568   4.673  16.036  0.00  0.00    +0.000 A 
ATOM     19  C   UNL     1       5.554   4.462  15.064  0.00  0.00    +0.000 A 
ATOM     20  C   UNL     1       6.847   4.919  15.276  0.00  0.00    +0.000 A 
ATOM     21  C   UNL     1       7.133   5.642  16.425  0.00  0.00    +0.000 A 
ATOM     22  C   UNL     1       6.118   5.928  17.346  0.00  0.00    +0.000 A 
ENDBRANCH   8  17
BRANCH   1  23
ATOM     23  C   UNL     1       0.854  11.206  18.748  0.00  0.00    +0.000 C 
BRANCH  23  27
ATOM     24  C   UNL     1       3.534  14.499  19.637  0.00  0.00    +0.000 A 
ATOM     25  C   UNL     1       3.463  13.962  18.352  0.00  0.00    +0.000 A 
ATOM     26  C   UNL     1       2.590  12.909  18.067  0.00  0.00    +0.000 A 
ATOM     27  C   UNL     1       1.778  12.363  19.072  0.00  0.00    +0.000 A 
ATOM     28  C   UNL     1       1.865  12.891  20.368  0.00  0.00    +0.000 A 
ATOM     29  C   UNL     1       2.735  13.954  20.647  0.00  0.00    +0.000 A 
BRANCH  24  31
ATOM     30  C   UNL     1       4.222  16.676  19.006  0.00  0.00    +0.000 C 
ATOM     31  O   UNL     1       4.438  15.513  19.795  0.00  0.00    +0.000 OA
ENDBRANCH  24  31
ENDBRANCH  23  27
ENDBRANCH   1  23
TORSDOF 4
ENDMDL
MODEL 5
REMARK VINA RESULT:      -8.3      2.559      3.620
REMARK  Name = 
REMARK  5 active torsions:
REMARK  status: ('A' for Active; 'I' for Inactive)
REMARK    1  A    between atoms: C_1  and  O_2
REMARK    2  A    between atoms: O_2  and  C_3
REMARK    3  A    between atoms: C_6  and  C_7
REMARK    4  A    between atoms: C_7  and  N_8
REMARK    5  A    between atoms: C_15  and  C_16
REMARK                            x       y       z     vdW  Elec       q    Type
REMARK                         _______ _______ _______ _____ _____    ______ ____
ROOT
ATOM      1  N   UNL     1       1.469  10.316  17.933  0.00  0.00    +0.000 N 
ATOM      2  C   UNL     1       1.912   9.117  18.368  0.00  0.00    +0.000 A 
ATOM      3  N   UNL     1       1.394   8.365  19.309  0.00  0.00    +0.000 NA
ATOM      4  C   UNL     1       2.031   7.136  19.336  0.00  0.00    +0.000 A 
ATOM      5  N   UNL     1       1.631   6.172  20.197  0.00  0.00    +0.000 NA
ATOM      6  C   UNL     1       2.281   4.993  20.138  0.00  0.00    +0.000 A 
ATOM      7  C   UNL     1       3.307   4.698  19.219  0.00  0.00    +0.000 A 
ATOM      8  C   UNL     1       3.761   5.712  18.319  0.00  0.00    +0.000 A 
ATOM      9  C   UNL     1       3.075   6.953  18.427  0.00  0.00    +0.000 A 
ATOM     10  S   UNL     1       3.292   8.454  17.599  0.00  0.00    +0.000 S 
ATOM     11  C   UNL     1       3.960   3.325  19.253  0.00  0.00    +0.000 C 
ATOM     12  C   UNL     1       3.150   2.224  19.911  0.00  0.00    +0.000 C 
ATOM     13  C   UNL     1       2.660   2.748  21.224  0.00  0.00    +0.000 C 
ATOM     14  O   UNL     1       2.877   2.157  22.282  0.00  0.00    +0.000 OA
ATOM     15  C   UNL     1       1.791   3.974  21.145  0.00  0.00    +0.000 C 
ATOM     16  H   UNL     1       2.011  10.782  17.214  0.00  0.00    +0.000 HD
ENDROOT
BRANCH   8  17
ATOM     17  C   UNL     1       4.853   5.525  17.314  0.00  0.00    +0.000 A 
ATOM     18  C   UNL     1       6.153   6.030  17.520  0.00  0.00    +0.000 A 
ATOM     19  C   UNL     1       7.177   5.859  16.580  0.00  0.00    +0.000 A 
ATOM     20  C   UNL     1       6.909   5.251  15.362  0.00  0.00    +0.000 A 
ATOM     21  C   UNL     1       5.637   4.756  15.115  0.00  0.00    +0.000 A 
ATOM     22  C   UNL     1       4.644   4.848  16.098  0.00  0.00    +0.000 A 
ENDBRANCH   8  17
BRANCH   1  23
ATOM     23  C   UNL     1       0.727  11.213  18.787  0.00  0.00    +0.000 C 
BRANCH  23  27
ATOM     24  C   UNL     1       2.459  15.174  18.438  0.00  0.00    +0.000 A 
ATOM     25  C   UNL     1       3.218  14.035  18.171  0.00  0.00    +0.000 A 
ATOM     26  C   UNL     1       2.653  12.763  18.273  0.00  0.00    +0.000 A 
ATOM     27  C   UNL     1       1.315  12.605  18.660  0.00  0.00    +0.000 A 
ATOM     28  C   UNL     1       0.559  13.750  18.947  0.00  0.00    +0.000 A 
ATOM     29  C   UNL     1       1.127  15.026  18.834  0.00  0.00    +0.000 A 
BRANCH  24  31
ATOM     30  C   UNL     1       4.543  16.301  18.466  0.00  0.00    +0.000 C 
ATOM     31  O   UNL     1       3.129  16.361  18.322  0.00  0.00    +0.000 OA
ENDBRANCH  24  31
ENDBRANCH  23  27
ENDBRANCH   1  23
TORSDOF 4
ENDMDL
MODEL 6
REMARK VINA RESULT:      -8.3      2.175      4.202
REMARK  Name = 
REMARK  5 active torsions:
REMARK  status: ('A' for Active; 'I' for Inactive)
REMARK    1  A    between atoms: C_1  and  O_2
REMARK    2  A    between atoms: O_2  and  C_3
REMARK    3  A    between atoms: C_6  and  C_7
REMARK    4  A    between atoms: C_7  and  N_8
REMARK    5  A    between atoms: C_15  and  C_16
REMARK                            x       y       z     vdW  Elec       q    Type
REMARK                         _______ _______ _______ _____ _____    ______ ____
ROOT
ATOM      1  N   UNL     1       0.565  10.293  20.043  0.00  0.00    +0.000 N 
ATOM      2  C   UNL     1       1.195   9.285  19.402  0.00  0.00    +0.000 A 
ATOM      3  N   UNL     1       2.032   9.374  18.397  0.00  0.00    +0.000 NA
ATOM      4  C   UNL     1       2.597   8.137  18.140  0.00  0.00    +0.000 A 
ATOM      5  N   UNL     1       3.533   7.994  17.173  0.00  0.00    +0.000 NA
ATOM      6  C   UNL     1       4.056   6.764  17.008  0.00  0.00    +0.000 A 
ATOM      7  C   UNL     1       3.722   5.646  17.799  0.00  0.00    +0.000 A 
ATOM      8  C   UNL     1       2.716   5.771  18.807  0.00  0.00    +0.000 A 
ATOM      9  C   UNL     1       2.163   7.075  18.936  0.00  0.00    +0.000 A 
ATOM     10  S   UNL     1       0.917   7.690  19.963  0.00  0.00    +0.000 S 
ATOM     11  C   UNL     1       4.389   4.310  17.512  0.00  0.00    +0.000 C 
ATOM     12  C   UNL     1       5.701   4.375  16.754  0.00  0.00    +0.000 C 
ATOM     13  C   UNL     1       5.495   5.269  15.572  0.00  0.00    +0.000 C 
ATOM     14  O   UNL     1       5.742   4.899  14.425  0.00  0.00    +0.000 OA
ATOM     15  C   UNL     1       5.079   6.679  15.896  0.00  0.00    +0.000 C 
ATOM     16  H   UNL     1      -0.081  10.044  20.784  0.00  0.00    +0.000 HD
ENDROOT
BRANCH   8  17
ATOM     17  C   UNL     1       2.263   4.655  19.694  0.00  0.00    +0.000 A 
ATOM     18  C   UNL     1       2.731   4.515  21.017  0.00  0.00    +0.000 A 
ATOM     19  C   UNL     1       2.311   3.471  21.850  0.00  0.00    +0.000 A 
ATOM     20  C   UNL     1       1.474   2.480  21.355  0.00  0.00    +0.000 A 
ATOM     21  C   UNL     1       1.007   2.574  20.052  0.00  0.00    +0.000 A 
ATOM     22  C   UNL     1       1.357   3.672  19.257  0.00  0.00    +0.000 A 
ENDBRANCH   8  17
BRANCH   1  23
ATOM     23  C   UNL     1       0.258  11.543  19.388  0.00  0.00    +0.000 C 
BRANCH  23  27
ATOM     24  C   UNL     1      -3.781  11.358  17.816  0.00  0.00    +0.000 A 
ATOM     25  C   UNL     1      -2.729  10.717  17.162  0.00  0.00    +0.000 A 
ATOM     26  C   UNL     1      -1.432  10.770  17.678  0.00  0.00    +0.000 A 
ATOM     27  C   UNL     1      -1.161  11.479  18.857  0.00  0.00    +0.000 A 
ATOM     28  C   UNL     1      -2.216  12.138  19.502  0.00  0.00    +0.000 A 
ATOM     29  C   UNL     1      -3.518  12.075  18.987  0.00  0.00    +0.000 A 
BRANCH  24  31
ATOM     30  C   UNL     1      -6.131  11.190  18.063  0.00  0.00    +0.000 C 
ATOM     31  O   UNL     1      -4.999  11.250  17.204  0.00  0.00    +0.000 OA
ENDBRANCH  24  31
ENDBRANCH  23  27
ENDBRANCH   1  23
TORSDOF 4
ENDMDL
MODEL 7
REMARK VINA RESULT:      -8.3      2.693      3.955
REMARK  Name = 
REMARK  5 active torsions:
REMARK  status: ('A' for Active; 'I' for Inactive)
REMARK    1  A    between atoms: C_1  and  O_2
REMARK    2  A    between atoms: O_2  and  C_3
REMARK    3  A    between atoms: C_6  and  C_7
REMARK    4  A    between atoms: C_7  and  N_8
REMARK    5  A    between atoms: C_15  and  C_16
REMARK                            x       y       z     vdW  Elec       q    Type
REMARK                         _______ _______ _______ _____ _____    ______ ____
ROOT
ATOM      1  N   UNL     1       1.627  10.297  17.968  0.00  0.00    +0.000 N 
ATOM      2  C   UNL     1       2.047   9.084  18.387  0.00  0.00    +0.000 A 
ATOM      3  N   UNL     1       1.537   8.347  19.343  0.00  0.00    +0.000 NA
ATOM      4  C   UNL     1       2.135   7.098  19.349  0.00  0.00    +0.000 A 
ATOM      5  N   UNL     1       1.733   6.146  20.222  0.00  0.00    +0.000 NA
ATOM      6  C   UNL     1       2.345   4.948  20.141  0.00  0.00    +0.000 A 
ATOM      7  C   UNL     1       3.333   4.623  19.189  0.00  0.00    +0.000 A 
ATOM      8  C   UNL     1       3.789   5.625  18.277  0.00  0.00    +0.000 A 
ATOM      9  C   UNL     1       3.144   6.886  18.408  0.00  0.00    +0.000 A 
ATOM     10  S   UNL     1       3.382   8.381  17.575  0.00  0.00    +0.000 S 
ATOM     11  C   UNL     1       3.944   3.231  19.201  0.00  0.00    +0.000 C 
ATOM     12  C   UNL     1       3.121   2.154  19.883  0.00  0.00    +0.000 C 
ATOM     13  C   UNL     1       2.689   2.689  21.211  0.00  0.00    +0.000 C 
ATOM     14  O   UNL     1       2.921   2.090  22.262  0.00  0.00    +0.000 OA
ATOM     15  C   UNL     1       1.856   3.942  21.161  0.00  0.00    +0.000 C 
ATOM     16  H   UNL     1       2.161  10.748  17.233  0.00  0.00    +0.000 HD
ENDROOT
BRANCH   8  17
ATOM     17  C   UNL     1       4.842   5.406  17.238  0.00  0.00    +0.000 A 
ATOM     18  C   UNL     1       6.158   5.885  17.396  0.00  0.00    +0.000 A 
ATOM     19  C   UNL     1       7.147   5.685  16.424  0.00  0.00    +0.000 A 
ATOM     20  C   UNL     1       6.826   5.073  15.221  0.00  0.00    +0.000 A 
ATOM     21  C   UNL     1       5.536   4.603  15.021  0.00  0.00    +0.000 A 
ATOM     22  C   UNL     1       4.578   4.724  16.035  0.00  0.00    +0.000 A 
ENDBRANCH   8  17
BRANCH   1  23
ATOM     23  C   UNL     1       0.940  11.215  18.846  0.00  0.00    +0.000 C 
BRANCH  23  27
ATOM     24  C   UNL     1       3.441  14.689  19.551  0.00  0.00    +0.000 A 
ATOM     25  C   UNL     1       2.661  14.149  20.574  0.00  0.00    +0.000 A 
ATOM     26  C   UNL     1       1.866  13.024  20.346  0.00  0.00    +0.000 A 
ATOM     27  C   UNL     1       1.827  12.423  19.079  0.00  0.00    +0.000 A 
ATOM     28  C   UNL     1       2.596  12.978  18.048  0.00  0.00    +0.000 A 
ATOM     29  C   UNL     1       3.400  14.102  18.283  0.00  0.00    +0.000 A 
BRANCH  24  31
ATOM     30  C   UNL     1       5.050  16.302  18.903  0.00  0.00    +0.000 C 
ATOM     31  O   UNL     1       4.160  15.801  19.893  0.00  0.00    +0.000 OA
ENDBRANCH  24  31
ENDBRANCH  23  27
ENDBRANCH   1  23
TORSDOF 4
ENDMDL
MODEL 8
REMARK VINA RESULT:      -8.2      2.657     10.295
REMARK  Name = 
REMARK  5 active torsions:
REMARK  status: ('A' for Active; 'I' for Inactive)
REMARK    1  A    between atoms: C_1  and  O_2
REMARK    2  A    between atoms: O_2  and  C_3
REMARK    3  A    between atoms: C_6  and  C_7
REMARK    4  A    between atoms: C_7  and  N_8
REMARK    5  A    between atoms: C_15  and  C_16
REMARK                            x       y       z     vdW  Elec       q    Type
REMARK                         _______ _______ _______ _____ _____    ______ ____
ROOT
ATOM      1  N   UNL     1       1.519   9.282  18.893  0.00  0.00    +0.000 N 
ATOM      2  C   UNL     1       0.376   9.998  18.839  0.00  0.00    +0.000 A 
ATOM      3  N   UNL     1      -0.587   9.902  17.954  0.00  0.00    +0.000 NA
ATOM      4  C   UNL     1      -1.666  10.679  18.343  0.00  0.00    +0.000 A 
ATOM      5  N   UNL     1      -2.801  10.699  17.607  0.00  0.00    +0.000 NA
ATOM      6  C   UNL     1      -3.815  11.455  18.071  0.00  0.00    +0.000 A 
ATOM      7  C   UNL     1      -3.777  12.180  19.279  0.00  0.00    +0.000 A 
ATOM      8  C   UNL     1      -2.577  12.192  20.056  0.00  0.00    +0.000 A 
ATOM      9  C   UNL     1      -1.516  11.408  19.524  0.00  0.00    +0.000 A 
ATOM     10  S   UNL     1       0.102  11.153  20.074  0.00  0.00    +0.000 S 
ATOM     11  C   UNL     1      -4.992  12.994  19.693  0.00  0.00    +0.000 C 
ATOM     12  C   UNL     1      -6.309  12.584  19.061  0.00  0.00    +0.000 C 
ATOM     13  C   UNL     1      -6.081  12.453  17.588  0.00  0.00    +0.000 C 
ATOM     14  O   UNL     1      -6.765  13.063  16.767  0.00  0.00    +0.000 OA
ATOM     15  C   UNL     1      -5.042  11.443  17.184  0.00  0.00    +0.000 C 
ATOM     16  H   UNL     1       2.177   9.509  19.631  0.00  0.00    +0.000 HD
ENDROOT
BRANCH   8  17
ATOM     17  C   UNL     1      -2.409  12.937  21.342  0.00  0.00    +0.000 A 
ATOM     18  C   UNL     1      -2.800  12.389  22.580  0.00  0.00    +0.000 A 
ATOM     19  C   UNL     1      -2.647  13.084  23.786  0.00  0.00    +0.000 A 
ATOM     20  C   UNL     1      -2.175  14.389  23.781  0.00  0.00    +0.000 A 
ATOM     21  C   UNL     1      -1.796  14.971  22.579  0.00  0.00    +0.000 A 
ATOM     22  C   UNL     1      -1.865  14.234  21.391  0.00  0.00    +0.000 A 
ENDBRANCH   8  17
BRANCH   1  23
ATOM     23  C   UNL     1       2.129   8.722  17.710  0.00  0.00    +0.000 C 
BRANCH  23  27
ATOM     24  C   UNL     1       4.355   5.191  18.890  0.00  0.00    +0.000 A 
ATOM     25  C   UNL     1       3.268   5.636  19.643  0.00  0.00    +0.000 A 
ATOM     26  C   UNL     1       2.547   6.767  19.253  0.00  0.00    +0.000 A 
ATOM     27  C   UNL     1       2.911   7.484  18.104  0.00  0.00    +0.000 A 
ATOM     28  C   UNL     1       4.015   7.046  17.360  0.00  0.00    +0.000 A 
ATOM     29  C   UNL     1       4.731   5.906  17.749  0.00  0.00    +0.000 A 
BRANCH  24  31
ATOM     30  C   UNL     1       4.207   2.903  19.487  0.00  0.00    +0.000 C 
ATOM     31  O   UNL     1       4.991   4.086  19.384  0.00  0.00    +0.000 OA
ENDBRANCH  24  31
ENDBRANCH  23  27
ENDBRANCH   1  23
TORSDOF 4
ENDMDL
MODEL 9
REMARK VINA RESULT:      -8.1      3.452      5.682
REMARK  Name = 
REMARK  5 active torsions:
REMARK  status: ('A' for Active; 'I' for Inactive)
REMARK    1  A    between atoms: C_1  and  O_2
REMARK    2  A    between atoms: O_2  and  C_3
REMARK    3  A    between atoms: C_6  and  C_7
REMARK    4  A    between atoms: C_7  and  N_8
REMARK    5  A    between atoms: C_15  and  C_16
REMARK                            x       y       z     vdW  Elec       q    Type
REMARK                         _______ _______ _______ _____ _____    ______ ____
ROOT
ATOM      1  N   UNL     1       0.786  10.492  19.600  0.00  0.00    +0.000 N 
ATOM      2  C   UNL     1       1.391   9.433  19.021  0.00  0.00    +0.000 A 
ATOM      3  N   UNL     1       2.256   9.444  18.035  0.00  0.00    +0.000 NA
ATOM      4  C   UNL     1       2.777   8.175  17.848  0.00  0.00    +0.000 A 
ATOM      5  N   UNL     1       3.730   7.953  16.915  0.00  0.00    +0.000 NA
ATOM      6  C   UNL     1       4.207   6.696  16.817  0.00  0.00    +0.000 A 
ATOM      7  C   UNL     1       3.808   5.629  17.647  0.00  0.00    +0.000 A 
ATOM      8  C   UNL     1       2.783   5.839  18.622  0.00  0.00    +0.000 A 
ATOM      9  C   UNL     1       2.280   7.168  18.678  0.00  0.00    +0.000 A 
ATOM     10  S   UNL     1       1.035   7.877  19.643  0.00  0.00    +0.000 S 
ATOM     11  C   UNL     1       4.427   4.257  17.438  0.00  0.00    +0.000 C 
ATOM     12  C   UNL     1       5.760   4.236  16.713  0.00  0.00    +0.000 C 
ATOM     13  C   UNL     1       5.621   5.084  15.488  0.00  0.00    +0.000 C 
ATOM     14  O   UNL     1       5.881   4.653  14.365  0.00  0.00    +0.000 OA
ATOM     15  C   UNL     1       5.254   6.522  15.738  0.00  0.00    +0.000 C 
ATOM     16  H   UNL     1       0.112  10.302  20.333  0.00  0.00    +0.000 HD
ENDROOT
BRANCH   8  17
ATOM     17  C   UNL     1       2.263   4.783  19.544  0.00  0.00    +0.000 A 
ATOM     18  C   UNL     1       2.746   4.636  20.860  0.00  0.00    +0.000 A 
ATOM     19  C   UNL     1       2.264   3.647  21.726  0.00  0.00    +0.000 A 
ATOM     20  C   UNL     1       1.342   2.715  21.272  0.00  0.00    +0.000 A 
ATOM     21  C   UNL     1       0.855   2.815  19.976  0.00  0.00    +0.000 A 
ATOM     22  C   UNL     1       1.273   3.864  19.149  0.00  0.00    +0.000 A 
ENDBRANCH   8  17
BRANCH   1  23
ATOM     23  C   UNL     1       0.546  11.723  18.882  0.00  0.00    +0.000 C 
BRANCH  23  27
ATOM     24  C   UNL     1       3.784  14.483  19.726  0.00  0.00    +0.000 A 
ATOM     25  C   UNL     1       3.492  14.102  18.416  0.00  0.00    +0.000 A 
ATOM     26  C   UNL     1       2.442  13.222  18.148  0.00  0.00    +0.000 A 
ATOM     27  C   UNL     1       1.668  12.695  19.193  0.00  0.00    +0.000 A 
ATOM     28  C   UNL     1       1.975  13.064  20.509  0.00  0.00    +0.000 A 
ATOM     29  C   UNL     1       3.025  13.955  20.774  0.00  0.00    +0.000 A 
BRANCH  24  31
ATOM     30  C   UNL     1       4.630  16.680  19.455  0.00  0.00    +0.000 C 
ATOM     31  O   UNL     1       4.847  15.334  19.861  0.00  0.00    +0.000 OA
ENDBRANCH  24  31
ENDBRANCH  23  27
ENDBRANCH   1  23
TORSDOF 4
ENDMDL
