MODEL 1
REMARK VINA RESULT:      -8.4      0.000      0.000
REMARK  Name = 
REMARK  3 active torsions:
REMARK  status: ('A' for Active; 'I' for Inactive)
REMARK    1  A    between atoms: C_2  and  C_3
REMARK    2  A    between atoms: C_4  and  C_5
REMARK    3  A    between atoms: C_12  and  C_13
REMARK                            x       y       z     vdW  Elec       q    Type
REMARK                         _______ _______ _______ _____ _____    ______ ____
ROOT
ATOM      1  C   UNL     1       1.805   8.611  19.111  0.00  0.00    +0.000 A 
ATOM      2  C   UNL     1       1.216   8.171  20.335  0.00  0.00    +0.000 A 
ATOM      3  C   UNL     1       1.326   6.774  20.731  0.00  0.00    +0.000 A 
ATOM      4  C   UNL     1       1.965   5.732  20.008  0.00  0.00    +0.000 A 
ATOM      5  C   UNL     1       2.542   6.254  18.857  0.00  0.00    +0.000 A 
ATOM      6  C   UNL     1       3.284   5.546  17.954  0.00  0.00    +0.000 A 
ATOM      7  N   UNL     1       3.832   6.513  17.153  0.00  0.00    +0.000 N 
ATOM      8  N   UNL     1       3.264   7.731  17.277  0.00  0.00    +0.000 NA
ATOM      9  C   UNL     1       2.517   7.630  18.396  0.00  0.00    +0.000 A 
ATOM     10  C   UNL     1       5.089   6.295  16.445  0.00  0.00    +0.000 C 
ATOM     11  O   UNL     1       6.111   6.744  17.355  0.00  0.00    +0.000 OA
ATOM     12  C   UNL     1       7.450   6.325  17.153  0.00  0.00    +0.000 C 
ATOM     13  C   UNL     1       7.615   5.304  16.049  0.00  0.00    +0.000 C 
ATOM     14  C   UNL     1       6.579   4.226  16.298  0.00  0.00    +0.000 C 
ATOM     15  C   UNL     1       5.213   4.820  15.965  0.00  0.00    +0.000 C 
ATOM     16  C   UNL     1       4.077   3.895  16.432  0.00  0.00    +0.000 C 
ATOM     17  N   UNL     1       3.627   4.248  17.772  0.00  0.00    +0.000 N 
ATOM     18  H   UNL     1       3.059   3.519  18.210  0.00  0.00    +0.000 HD
ENDROOT
BRANCH   2  19
ATOM     19  C   UNL     1       0.511   9.089  21.273  0.00  0.00    +0.000 A 
ATOM     20  C   UNL     1      -0.314  10.123  20.786  0.00  0.00    +0.000 A 
ATOM     21  C   UNL     1      -1.046  10.944  21.648  0.00  0.00    +0.000 A 
ATOM     22  C   UNL     1      -0.937  10.780  23.023  0.00  0.00    +0.000 A 
ATOM     23  C   UNL     1      -0.111   9.781  23.533  0.00  0.00    +0.000 A 
ATOM     24  C   UNL     1       0.583   8.933  22.667  0.00  0.00    +0.000 A 
ENDBRANCH   2  19
BRANCH   4  25
ATOM     25  C   UNL     1       2.046   4.323  20.499  0.00  0.00    +0.000 C 
ATOM     26  F   UNL     1       1.507   4.158  21.742  0.00  0.00    +0.000 F 
ATOM     27  F   UNL     1       1.381   3.444  19.695  0.00  0.00    +0.000 F 
ATOM     28  F   UNL     1       3.318   3.853  20.592  0.00  0.00    +0.000 F 
ENDBRANCH   4  25
BRANCH   1  30
ATOM     29  N   UNL     1       1.719  11.010  18.146  0.00  0.00    +0.000 NA
ATOM     30  C   UNL     1       1.754   9.929  18.561  0.00  0.00    +0.000 C 
ENDBRANCH   1  30
TORSDOF 3
ENDMDL
MODEL 2
REMARK VINA RESULT:      -7.3      4.744      9.059
REMARK  Name = 
REMARK  3 active torsions:
REMARK  status: ('A' for Active; 'I' for Inactive)
REMARK    1  A    between atoms: C_2  and  C_3
REMARK    2  A    between atoms: C_4  and  C_5
REMARK    3  A    between atoms: C_12  and  C_13
REMARK                            x       y       z     vdW  Elec       q    Type
REMARK                         _______ _______ _______ _____ _____    ______ ____
ROOT
ATOM      1  C   UNL     1       0.520   9.879  20.644  0.00  0.00    +0.000 A 
ATOM      2  C   UNL     1       0.671   9.282  19.356  0.00  0.00    +0.000 A 
ATOM      3  C   UNL     1      -0.236   9.646  18.277  0.00  0.00    +0.000 A 
ATOM      4  C   UNL     1      -1.322  10.557  18.349  0.00  0.00    +0.000 A 
ATOM      5  C   UNL     1      -1.371  11.119  19.619  0.00  0.00    +0.000 A 
ATOM      6  C   UNL     1      -2.255  12.077  20.027  0.00  0.00    +0.000 A 
ATOM      7  N   UNL     1      -1.763  12.483  21.239  0.00  0.00    +0.000 N 
ATOM      8  N   UNL     1      -0.832  11.662  21.768  0.00  0.00    +0.000 NA
ATOM      9  C   UNL     1      -0.495  10.848  20.745  0.00  0.00    +0.000 A 
ATOM     10  C   UNL     1      -2.025  13.820  21.761  0.00  0.00    +0.000 C 
ATOM     11  O   UNL     1      -0.943  14.632  21.268  0.00  0.00    +0.000 OA
ATOM     12  C   UNL     1      -1.083  16.042  21.257  0.00  0.00    +0.000 C 
ATOM     13  C   UNL     1      -2.464  16.525  21.646  0.00  0.00    +0.000 C 
ATOM     14  C   UNL     1      -3.451  15.721  20.824  0.00  0.00    +0.000 C 
ATOM     15  C   UNL     1      -3.456  14.299  21.379  0.00  0.00    +0.000 C 
ATOM     16  C   UNL     1      -4.227  13.345  20.452  0.00  0.00    +0.000 C 
ATOM     17  N   UNL     1      -3.334  12.704  19.496  0.00  0.00    +0.000 N 
ATOM     18  H   UNL     1      -3.829  12.263  18.717  0.00  0.00    +0.000 HD
ENDROOT
BRANCH   2  19
ATOM     19  C   UNL     1       1.755   8.311  19.034  0.00  0.00    +0.000 A 
ATOM     20  C   UNL     1       1.995   7.197  19.863  0.00  0.00    +0.000 A 
ATOM     21  C   UNL     1       2.953   6.233  19.536  0.00  0.00    +0.000 A 
ATOM     22  C   UNL     1       3.727   6.383  18.393  0.00  0.00    +0.000 A 
ATOM     23  C   UNL     1       3.528   7.486  17.567  0.00  0.00    +0.000 A 
ATOM     24  C   UNL     1       2.538   8.423  17.873  0.00  0.00    +0.000 A 
ENDBRANCH   2  19
BRANCH   4  25
ATOM     25  C   UNL     1      -2.196  10.887  17.183  0.00  0.00    +0.000 C 
ATOM     26  F   UNL     1      -2.038  12.169  16.743  0.00  0.00    +0.000 F 
ATOM     27  F   UNL     1      -1.950  10.097  16.098  0.00  0.00    +0.000 F 
ATOM     28  F   UNL     1      -3.523  10.755  17.445  0.00  0.00    +0.000 F 
ENDBRANCH   4  25
BRANCH   1  30
ATOM     29  N   UNL     1       1.904   9.403  22.778  0.00  0.00    +0.000 NA
ATOM     30  C   UNL     1       1.295   9.604  21.813  0.00  0.00    +0.000 C 
ENDBRANCH   1  30
TORSDOF 3
ENDMDL
MODEL 3
REMARK VINA RESULT:      -7.2      5.094      7.544
REMARK  Name = 
REMARK  3 active torsions:
REMARK  status: ('A' for Active; 'I' for Inactive)
REMARK    1  A    between atoms: C_2  and  C_3
REMARK    2  A    between atoms: C_4  and  C_5
REMARK    3  A    between atoms: C_12  and  C_13
REMARK                            x       y       z     vdW  Elec       q    Type
REMARK                         _______ _______ _______ _____ _____    ______ ____
ROOT
ATOM      1  C   UNL     1      -2.999  12.685  20.871  0.00  0.00    +0.000 A 
ATOM      2  C   UNL     1      -4.192  12.684  20.088  0.00  0.00    +0.000 A 
ATOM      3  C   UNL     1      -4.210  12.015  18.795  0.00  0.00    +0.000 A 
ATOM      4  C   UNL     1      -3.128  11.341  18.170  0.00  0.00    +0.000 A 
ATOM      5  C   UNL     1      -2.025  11.356  19.014  0.00  0.00    +0.000 A 
ATOM      6  C   UNL     1      -0.826  10.753  18.759  0.00  0.00    +0.000 A 
ATOM      7  N   UNL     1      -0.162  10.825  19.956  0.00  0.00    +0.000 N 
ATOM      8  N   UNL     1      -0.705  11.681  20.846  0.00  0.00    +0.000 NA
ATOM      9  C   UNL     1      -1.920  11.962  20.329  0.00  0.00    +0.000 A 
ATOM     10  C   UNL     1       0.868   9.856  20.317  0.00  0.00    +0.000 C 
ATOM     11  O   UNL     1       0.162   8.798  20.993  0.00  0.00    +0.000 OA
ATOM     12  C   UNL     1       0.783   7.532  21.134  0.00  0.00    +0.000 C 
ATOM     13  C   UNL     1       2.101   7.408  20.400  0.00  0.00    +0.000 C 
ATOM     14  C   UNL     1       1.861   7.912  18.991  0.00  0.00    +0.000 C 
ATOM     15  C   UNL     1       1.695   9.427  19.071  0.00  0.00    +0.000 C 
ATOM     16  C   UNL     1       1.189  10.000  17.736  0.00  0.00    +0.000 C 
ATOM     17  N   UNL     1      -0.265  10.091  17.718  0.00  0.00    +0.000 N 
ATOM     18  H   UNL     1      -0.648  10.227  16.780  0.00  0.00    +0.000 HD
ENDROOT
BRANCH   2  19
ATOM     19  C   UNL     1      -5.464  13.310  20.547  0.00  0.00    +0.000 A 
ATOM     20  C   UNL     1      -5.719  14.677  20.318  0.00  0.00    +0.000 A 
ATOM     21  C   UNL     1      -6.938  15.264  20.669  0.00  0.00    +0.000 A 
ATOM     22  C   UNL     1      -7.917  14.508  21.300  0.00  0.00    +0.000 A 
ATOM     23  C   UNL     1      -7.684  13.161  21.560  0.00  0.00    +0.000 A 
ATOM     24  C   UNL     1      -6.483  12.566  21.166  0.00  0.00    +0.000 A 
ENDBRANCH   2  19
BRANCH   4  25
ATOM     25  C   UNL     1      -3.239  10.665  16.843  0.00  0.00    +0.000 C 
ATOM     26  F   UNL     1      -3.018   9.320  16.908  0.00  0.00    +0.000 F 
ATOM     27  F   UNL     1      -4.475  10.803  16.281  0.00  0.00    +0.000 F 
ATOM     28  F   UNL     1      -2.357  11.133  15.920  0.00  0.00    +0.000 F 
ENDBRANCH   4  25
BRANCH   1  30
ATOM     29  N   UNL     1      -2.633  13.813  23.171  0.00  0.00    +0.000 NA
ATOM     30  C   UNL     1      -2.803  13.325  22.135  0.00  0.00    +0.000 C 
ENDBRANCH   1  30
TORSDOF 3
ENDMDL
MODEL 4
REMARK VINA RESULT:      -7.1      4.495      6.835
REMARK  Name = 
REMARK  3 active torsions:
REMARK  status: ('A' for Active; 'I' for Inactive)
REMARK    1  A    between atoms: C_2  and  C_3
REMARK    2  A    between atoms: C_4  and  C_5
REMARK    3  A    between atoms: C_12  and  C_13
REMARK                            x       y       z     vdW  Elec       q    Type
REMARK                         _______ _______ _______ _____ _____    ______ ____
ROOT
ATOM      1  C   UNL     1      -1.658  12.537  21.336  0.00  0.00    +0.000 A 
ATOM      2  C   UNL     1      -2.931  12.762  20.730  0.00  0.00    +0.000 A 
ATOM      3  C   UNL     1      -3.229  12.174  19.432  0.00  0.00    +0.000 A 
ATOM      4  C   UNL     1      -2.363  11.376  18.639  0.00  0.00    +0.000 A 
ATOM      5  C   UNL     1      -1.169  11.175  19.320  0.00  0.00    +0.000 A 
ATOM      6  C   UNL     1      -0.127  10.408  18.879  0.00  0.00    +0.000 A 
ATOM      7  N   UNL     1       0.694  10.313  19.971  0.00  0.00    +0.000 N 
ATOM      8  N   UNL     1       0.420  11.193  20.956  0.00  0.00    +0.000 NA
ATOM      9  C   UNL     1      -0.792  11.686  20.625  0.00  0.00    +0.000 A 
ATOM     10  C   UNL     1       1.594   9.178  20.153  0.00  0.00    +0.000 C 
ATOM     11  O   UNL     1       0.825   8.207  20.888  0.00  0.00    +0.000 OA
ATOM     12  C   UNL     1       1.248   6.855  20.900  0.00  0.00    +0.000 C 
ATOM     13  C   UNL     1       2.418   6.568  19.985  0.00  0.00    +0.000 C 
ATOM     14  C   UNL     1       2.075   7.178  18.640  0.00  0.00    +0.000 C 
ATOM     15  C   UNL     1       2.166   8.694  18.789  0.00  0.00    +0.000 C 
ATOM     16  C   UNL     1       1.585   9.408  17.558  0.00  0.00    +0.000 C 
ATOM     17  N   UNL     1       0.175   9.723  17.749  0.00  0.00    +0.000 N 
ATOM     18  H   UNL     1      -0.304   9.968  16.879  0.00  0.00    +0.000 HD
ENDROOT
BRANCH   2  19
ATOM     19  C   UNL     1      -4.013  13.552  21.383  0.00  0.00    +0.000 A 
ATOM     20  C   UNL     1      -4.958  12.927  22.220  0.00  0.00    +0.000 A 
ATOM     21  C   UNL     1      -5.931  13.662  22.904  0.00  0.00    +0.000 A 
ATOM     22  C   UNL     1      -6.010  15.037  22.732  0.00  0.00    +0.000 A 
ATOM     23  C   UNL     1      -5.104  15.679  21.892  0.00  0.00    +0.000 A 
ATOM     24  C   UNL     1      -4.105  14.947  21.247  0.00  0.00    +0.000 A 
ENDBRANCH   2  19
BRANCH   4  25
ATOM     25  C   UNL     1      -2.759  10.797  17.320  0.00  0.00    +0.000 C 
ATOM     26  F   UNL     1      -4.015  11.163  16.931  0.00  0.00    +0.000 F 
ATOM     27  F   UNL     1      -1.936  11.184  16.304  0.00  0.00    +0.000 F 
ATOM     28  F   UNL     1      -2.757   9.437  17.303  0.00  0.00    +0.000 F 
ENDBRANCH   4  25
BRANCH   1  30
ATOM     29  N   UNL     1      -0.824  13.534  23.573  0.00  0.00    +0.000 NA
ATOM     30  C   UNL     1      -1.194  13.071  22.579  0.00  0.00    +0.000 C 
ENDBRANCH   1  30
TORSDOF 3
ENDMDL
MODEL 5
REMARK VINA RESULT:      -7.1      4.737      8.997
REMARK  Name = 
REMARK  3 active torsions:
REMARK  status: ('A' for Active; 'I' for Inactive)
REMARK    1  A    between atoms: C_2  and  C_3
REMARK    2  A    between atoms: C_4  and  C_5
REMARK    3  A    between atoms: C_12  and  C_13
REMARK                            x       y       z     vdW  Elec       q    Type
REMARK                         _______ _______ _______ _____ _____    ______ ____
ROOT
ATOM      1  C   UNL     1       0.544   9.859  20.638  0.00  0.00    +0.000 A 
ATOM      2  C   UNL     1       0.661   9.252  19.352  0.00  0.00    +0.000 A 
ATOM      3  C   UNL     1      -0.250   9.637  18.283  0.00  0.00    +0.000 A 
ATOM      4  C   UNL     1      -1.309  10.578  18.366  0.00  0.00    +0.000 A 
ATOM      5  C   UNL     1      -1.325  11.147  19.633  0.00  0.00    +0.000 A 
ATOM      6  C   UNL     1      -2.177  12.132  20.048  0.00  0.00    +0.000 A 
ATOM      7  N   UNL     1      -1.656  12.529  21.252  0.00  0.00    +0.000 N 
ATOM      8  N   UNL     1      -0.742  11.683  21.772  0.00  0.00    +0.000 NA
ATOM      9  C   UNL     1      -0.442  10.856  20.749  0.00  0.00    +0.000 A 
ATOM     10  C   UNL     1      -1.874  13.875  21.771  0.00  0.00    +0.000 C 
ATOM     11  O   UNL     1      -0.776  14.654  21.259  0.00  0.00    +0.000 OA
ATOM     12  C   UNL     1      -0.877  16.067  21.244  0.00  0.00    +0.000 C 
ATOM     13  C   UNL     1      -2.238  16.591  21.649  0.00  0.00    +0.000 C 
ATOM     14  C   UNL     1      -3.259  15.811  20.844  0.00  0.00    +0.000 C 
ATOM     15  C   UNL     1      -3.296  14.392  21.406  0.00  0.00    +0.000 C 
ATOM     16  C   UNL     1      -4.105  13.457  20.494  0.00  0.00    +0.000 C 
ATOM     17  N   UNL     1      -3.244  12.786  19.529  0.00  0.00    +0.000 N 
ATOM     18  H   UNL     1      -3.761  12.356  18.759  0.00  0.00    +0.000 HD
ENDROOT
BRANCH   2  19
ATOM     19  C   UNL     1       1.712   8.250  19.020  0.00  0.00    +0.000 A 
ATOM     20  C   UNL     1       2.517   8.401  17.873  0.00  0.00    +0.000 A 
ATOM     21  C   UNL     1       3.560   7.515  17.588  0.00  0.00    +0.000 A 
ATOM     22  C   UNL     1       3.796   6.429  18.419  0.00  0.00    +0.000 A 
ATOM     23  C   UNL     1       3.002   6.241  19.547  0.00  0.00    +0.000 A 
ATOM     24  C   UNL     1       1.990   7.154  19.854  0.00  0.00    +0.000 A 
ENDBRANCH   2  19
BRANCH   4  25
ATOM     25  C   UNL     1      -2.189  10.927  17.210  0.00  0.00    +0.000 C 
ATOM     26  F   UNL     1      -3.518  10.818  17.497  0.00  0.00    +0.000 F 
ATOM     27  F   UNL     1      -2.014  12.211  16.781  0.00  0.00    +0.000 F 
ATOM     28  F   UNL     1      -1.988  10.141  16.119  0.00  0.00    +0.000 F 
ENDBRANCH   4  25
BRANCH   1  30
ATOM     29  N   UNL     1       1.932   9.331  22.757  0.00  0.00    +0.000 NA
ATOM     30  C   UNL     1       1.327   9.567  21.799  0.00  0.00    +0.000 C 
ENDBRANCH   1  30
TORSDOF 3
ENDMDL
MODEL 6
REMARK VINA RESULT:      -7.1      0.736      1.250
REMARK  Name = 
REMARK  3 active torsions:
REMARK  status: ('A' for Active; 'I' for Inactive)
REMARK    1  A    between atoms: C_2  and  C_3
REMARK    2  A    between atoms: C_4  and  C_5
REMARK    3  A    between atoms: C_12  and  C_13
REMARK                            x       y       z     vdW  Elec       q    Type
REMARK                         _______ _______ _______ _____ _____    ______ ____
ROOT
ATOM      1  C   UNL     1       1.915   8.015  19.227  0.00  0.00    +0.000 A 
ATOM      2  C   UNL     1       1.436   7.506  20.471  0.00  0.00    +0.000 A 
ATOM      3  C   UNL     1       1.636   6.103  20.806  0.00  0.00    +0.000 A 
ATOM      4  C   UNL     1       2.267   5.118  20.002  0.00  0.00    +0.000 A 
ATOM      5  C   UNL     1       2.736   5.705  18.834  0.00  0.00    +0.000 A 
ATOM      6  C   UNL     1       3.441   5.065  17.855  0.00  0.00    +0.000 A 
ATOM      7  N   UNL     1       3.887   6.083  17.053  0.00  0.00    +0.000 N 
ATOM      8  N   UNL     1       3.276   7.267  17.262  0.00  0.00    +0.000 NA
ATOM      9  C   UNL     1       2.617   7.094  18.427  0.00  0.00    +0.000 A 
ATOM     10  C   UNL     1       5.098   5.948  16.251  0.00  0.00    +0.000 C 
ATOM     11  O   UNL     1       6.163   6.414  17.103  0.00  0.00    +0.000 OA
ATOM     12  C   UNL     1       7.500   6.065  16.792  0.00  0.00    +0.000 C 
ATOM     13  C   UNL     1       7.631   5.091  15.642  0.00  0.00    +0.000 C 
ATOM     14  C   UNL     1       6.664   3.957  15.923  0.00  0.00    +0.000 C 
ATOM     15  C   UNL     1       5.253   4.498  15.709  0.00  0.00    +0.000 C 
ATOM     16  C   UNL     1       4.196   3.505  16.220  0.00  0.00    +0.000 C 
ATOM     17  N   UNL     1       3.828   3.791  17.600  0.00  0.00    +0.000 N 
ATOM     18  H   UNL     1       3.326   3.022  18.050  0.00  0.00    +0.000 HD
ENDROOT
BRANCH   2  19
ATOM     19  C   UNL     1       0.760   8.358  21.490  0.00  0.00    +0.000 A 
ATOM     20  C   UNL     1       1.489   8.932  22.550  0.00  0.00    +0.000 A 
ATOM     21  C   UNL     1       0.889   9.798  23.468  0.00  0.00    +0.000 A 
ATOM     22  C   UNL     1      -0.468  10.075  23.377  0.00  0.00    +0.000 A 
ATOM     23  C   UNL     1      -1.220   9.503  22.354  0.00  0.00    +0.000 A 
ATOM     24  C   UNL     1      -0.606   8.675  21.410  0.00  0.00    +0.000 A 
ENDBRANCH   2  19
BRANCH   4  25
ATOM     25  C   UNL     1       2.445   3.699  20.433  0.00  0.00    +0.000 C 
ATOM     26  F   UNL     1       1.807   2.808  19.619  0.00  0.00    +0.000 F 
ATOM     27  F   UNL     1       3.753   3.309  20.443  0.00  0.00    +0.000 F 
ATOM     28  F   UNL     1       1.974   3.448  21.684  0.00  0.00    +0.000 F 
ENDBRANCH   4  25
BRANCH   1  30
ATOM     29  N   UNL     1       1.639  10.414  18.297  0.00  0.00    +0.000 NA
ATOM     30  C   UNL     1       1.766   9.347  18.730  0.00  0.00    +0.000 C 
ENDBRANCH   1  30
TORSDOF 3
ENDMDL
MODEL 7
REMARK VINA RESULT:      -7.1      4.523      6.836
REMARK  Name = 
REMARK  3 active torsions:
REMARK  status: ('A' for Active; 'I' for Inactive)
REMARK    1  A    between atoms: C_2  and  C_3
REMARK    2  A    between atoms: C_4  and  C_5
REMARK    3  A    between atoms: C_12  and  C_13
REMARK                            x       y       z     vdW  Elec       q    Type
REMARK                         _______ _______ _______ _____ _____    ______ ____
ROOT
ATOM      1  C   UNL     1      -1.687  12.575  21.353  0.00  0.00    +0.000 A 
ATOM      2  C   UNL     1      -2.973  12.783  20.770  0.00  0.00    +0.000 A 
ATOM      3  C   UNL     1      -3.292  12.180  19.484  0.00  0.00    +0.000 A 
ATOM      4  C   UNL     1      -2.435  11.381  18.683  0.00  0.00    +0.000 A 
ATOM      5  C   UNL     1      -1.225  11.197  19.341  0.00  0.00    +0.000 A 
ATOM      6  C   UNL     1      -0.185  10.435  18.888  0.00  0.00    +0.000 A 
ATOM      7  N   UNL     1       0.657  10.358  19.965  0.00  0.00    +0.000 N 
ATOM      8  N   UNL     1       0.395  11.246  20.946  0.00  0.00    +0.000 NA
ATOM      9  C   UNL     1      -0.827  11.725  20.634  0.00  0.00    +0.000 A 
ATOM     10  C   UNL     1       1.571   9.233  20.140  0.00  0.00    +0.000 C 
ATOM     11  O   UNL     1       0.825   8.263  20.900  0.00  0.00    +0.000 OA
ATOM     12  C   UNL     1       1.260   6.914  20.917  0.00  0.00    +0.000 C 
ATOM     13  C   UNL     1       2.415   6.628  19.981  0.00  0.00    +0.000 C 
ATOM     14  C   UNL     1       2.040   7.221  18.638  0.00  0.00    +0.000 C 
ATOM     15  C   UNL     1       2.121   8.740  18.770  0.00  0.00    +0.000 C 
ATOM     16  C   UNL     1       1.509   9.436  17.544  0.00  0.00    +0.000 C 
ATOM     17  N   UNL     1       0.101   9.742  17.759  0.00  0.00    +0.000 N 
ATOM     18  H   UNL     1      -0.397   9.973  16.896  0.00  0.00    +0.000 HD
ENDROOT
BRANCH   2  19
ATOM     19  C   UNL     1      -4.049  13.571  21.436  0.00  0.00    +0.000 A 
ATOM     20  C   UNL     1      -4.204  14.946  21.173  0.00  0.00    +0.000 A 
ATOM     21  C   UNL     1      -5.255  15.684  21.726  0.00  0.00    +0.000 A 
ATOM     22  C   UNL     1      -6.151  15.074  22.593  0.00  0.00    +0.000 A 
ATOM     23  C   UNL     1      -6.008  13.721  22.890  0.00  0.00    +0.000 A 
ATOM     24  C   UNL     1      -4.984  12.976  22.299  0.00  0.00    +0.000 A 
ENDBRANCH   2  19
BRANCH   4  25
ATOM     25  C   UNL     1      -2.851  10.785  17.378  0.00  0.00    +0.000 C 
ATOM     26  F   UNL     1      -2.812   9.421  17.376  0.00  0.00    +0.000 F 
ATOM     27  F   UNL     1      -4.129  11.113  17.030  0.00  0.00    +0.000 F 
ATOM     28  F   UNL     1      -2.072  11.171  16.332  0.00  0.00    +0.000 F 
ENDBRANCH   4  25
BRANCH   1  30
ATOM     29  N   UNL     1      -0.815  13.540  23.590  0.00  0.00    +0.000 NA
ATOM     30  C   UNL     1      -1.204  13.125  22.581  0.00  0.00    +0.000 C 
ENDBRANCH   1  30
TORSDOF 3
ENDMDL
MODEL 8
REMARK VINA RESULT:      -6.9      3.085      4.634
REMARK  Name = 
REMARK  3 active torsions:
REMARK  status: ('A' for Active; 'I' for Inactive)
REMARK    1  A    between atoms: C_2  and  C_3
REMARK    2  A    between atoms: C_4  and  C_5
REMARK    3  A    between atoms: C_12  and  C_13
REMARK                            x       y       z     vdW  Elec       q    Type
REMARK                         _______ _______ _______ _____ _____    ______ ____
ROOT
ATOM      1  C   UNL     1       1.445   8.320  19.883  0.00  0.00    +0.000 A 
ATOM      2  C   UNL     1       1.796   9.185  18.803  0.00  0.00    +0.000 A 
ATOM      3  C   UNL     1       2.766   8.747  17.810  0.00  0.00    +0.000 A 
ATOM      4  C   UNL     1       3.460   7.509  17.786  0.00  0.00    +0.000 A 
ATOM      5  C   UNL     1       3.030   6.718  18.844  0.00  0.00    +0.000 A 
ATOM      6  C   UNL     1       3.445   5.440  19.095  0.00  0.00    +0.000 A 
ATOM      7  N   UNL     1       2.580   5.000  20.062  0.00  0.00    +0.000 N 
ATOM      8  N   UNL     1       1.862   5.976  20.656  0.00  0.00    +0.000 NA
ATOM      9  C   UNL     1       2.048   7.049  19.860  0.00  0.00    +0.000 A 
ATOM     10  C   UNL     1       2.277   3.583  20.227  0.00  0.00    +0.000 C 
ATOM     11  O   UNL     1       1.139   3.344  19.376  0.00  0.00    +0.000 OA
ATOM     12  C   UNL     1       0.824   2.016  18.998  0.00  0.00    +0.000 C 
ATOM     13  C   UNL     1       1.849   0.992  19.435  0.00  0.00    +0.000 C 
ATOM     14  C   UNL     1       3.204   1.531  19.021  0.00  0.00    +0.000 C 
ATOM     15  C   UNL     1       3.529   2.705  19.941  0.00  0.00    +0.000 C 
ATOM     16  C   UNL     1       4.756   3.481  19.437  0.00  0.00    +0.000 C 
ATOM     17  N   UNL     1       4.362   4.588  18.575  0.00  0.00    +0.000 N 
ATOM     18  H   UNL     1       5.138   4.969  18.029  0.00  0.00    +0.000 HD
ENDROOT
BRANCH   2  19
ATOM     19  C   UNL     1       1.182  10.529  18.607  0.00  0.00    +0.000 A 
ATOM     20  C   UNL     1      -0.209  10.668  18.431  0.00  0.00    +0.000 A 
ATOM     21  C   UNL     1      -0.812  11.925  18.326  0.00  0.00    +0.000 A 
ATOM     22  C   UNL     1      -0.032  13.073  18.349  0.00  0.00    +0.000 A 
ATOM     23  C   UNL     1       1.348  12.966  18.498  0.00  0.00    +0.000 A 
ATOM     24  C   UNL     1       1.942  11.710  18.650  0.00  0.00    +0.000 A 
ENDBRANCH   2  19
BRANCH   4  25
ATOM     25  C   UNL     1       4.431   7.133  16.714  0.00  0.00    +0.000 C 
ATOM     26  F   UNL     1       4.262   7.850  15.565  0.00  0.00    +0.000 F 
ATOM     27  F   UNL     1       5.729   7.336  17.082  0.00  0.00    +0.000 F 
ATOM     28  F   UNL     1       4.349   5.828  16.342  0.00  0.00    +0.000 F 
ENDBRANCH   4  25
BRANCH   1  30
ATOM     29  N   UNL     1      -0.206   8.844  21.805  0.00  0.00    +0.000 NA
ATOM     30  C   UNL     1       0.547   8.611  20.957  0.00  0.00    +0.000 C 
ENDBRANCH   1  30
TORSDOF 3
ENDMDL
MODEL 9
REMARK VINA RESULT:      -6.8      6.680     11.176
REMARK  Name = 
REMARK  3 active torsions:
REMARK  status: ('A' for Active; 'I' for Inactive)
REMARK    1  A    between atoms: C_2  and  C_3
REMARK    2  A    between atoms: C_4  and  C_5
REMARK    3  A    between atoms: C_12  and  C_13
REMARK                            x       y       z     vdW  Elec       q    Type
REMARK                         _______ _______ _______ _____ _____    ______ ____
ROOT
ATOM      1  C   UNL     1      -1.921  11.938  20.609  0.00  0.00    +0.000 A 
ATOM      2  C   UNL     1      -1.671  11.522  19.267  0.00  0.00    +0.000 A 
ATOM      3  C   UNL     1      -2.755  11.520  18.295  0.00  0.00    +0.000 A 
ATOM      4  C   UNL     1      -4.107  11.884  18.528  0.00  0.00    +0.000 A 
ATOM      5  C   UNL     1      -4.252  12.313  19.841  0.00  0.00    +0.000 A 
ATOM      6  C   UNL     1      -5.406  12.789  20.395  0.00  0.00    +0.000 A 
ATOM      7  N   UNL     1      -5.002  13.307  21.597  0.00  0.00    +0.000 N 
ATOM      8  N   UNL     1      -3.765  12.930  21.982  0.00  0.00    +0.000 NA
ATOM      9  C   UNL     1      -3.230  12.383  20.870  0.00  0.00    +0.000 A 
ATOM     10  C   UNL     1      -5.740  14.383  22.251  0.00  0.00    +0.000 C 
ATOM     11  O   UNL     1      -5.150  15.598  21.750  0.00  0.00    +0.000 OA
ATOM     12  C   UNL     1      -5.863  16.816  21.872  0.00  0.00    +0.000 C 
ATOM     13  C   UNL     1      -7.271  16.654  22.404  0.00  0.00    +0.000 C 
ATOM     14  C   UNL     1      -7.916  15.548  21.593  0.00  0.00    +0.000 C 
ATOM     15  C   UNL     1      -7.272  14.232  22.021  0.00  0.00    +0.000 C 
ATOM     16  C   UNL     1      -7.669  13.087  21.076  0.00  0.00    +0.000 C 
ATOM     17  N   UNL     1      -6.696  12.926  20.004  0.00  0.00    +0.000 N 
ATOM     18  H   UNL     1      -7.042  12.356  19.229  0.00  0.00    +0.000 HD
ENDROOT
BRANCH   2  19
ATOM     19  C   UNL     1      -0.323  11.114  18.782  0.00  0.00    +0.000 A 
ATOM     20  C   UNL     1       0.734  12.043  18.723  0.00  0.00    +0.000 A 
ATOM     21  C   UNL     1       2.026  11.663  18.346  0.00  0.00    +0.000 A 
ATOM     22  C   UNL     1       2.282  10.349  17.975  0.00  0.00    +0.000 A 
ATOM     23  C   UNL     1       1.251   9.414  18.001  0.00  0.00    +0.000 A 
ATOM     24  C   UNL     1      -0.027   9.788  18.423  0.00  0.00    +0.000 A 
ENDBRANCH   2  19
BRANCH   4  25
ATOM     25  C   UNL     1      -5.156  11.869  17.463  0.00  0.00    +0.000 C 
ATOM     26  F   UNL     1      -4.682  11.454  16.252  0.00  0.00    +0.000 F 
ATOM     27  F   UNL     1      -6.193  11.031  17.754  0.00  0.00    +0.000 F 
ATOM     28  F   UNL     1      -5.715  13.087  17.235  0.00  0.00    +0.000 F 
ENDBRANCH   4  25
BRANCH   1  30
ATOM     29  N   UNL     1      -0.232  11.945  22.569  0.00  0.00    +0.000 NA
ATOM     30  C   UNL     1      -0.984  11.960  21.689  0.00  0.00    +0.000 C 
ENDBRANCH   1  30
TORSDOF 3
ENDMDL
