MODEL 1
REMARK VINA RESULT:      -8.8      0.000      0.000
REMARK  Name = 
REMARK  3 active torsions:
REMARK  status: ('A' for Active; 'I' for Inactive)
REMARK    1  A    between atoms: C_1  and  C_2
REMARK    2  A    between atoms: C_8  and  C_9
REMARK    3  A    between atoms: N_14  and  C_15
REMARK                            x       y       z     vdW  Elec       q    Type
REMARK                         _______ _______ _______ _____ _____    ______ ____
ROOT
ATOM      1  C   UNL     1       3.537   6.979  17.908  0.00  0.00    +0.000 C 
ATOM      2  O   UNL     1       4.045   7.472  16.903  0.00  0.00    +0.000 OA
ATOM      3  N   UNL     1       2.544   7.662  18.636  0.00  0.00    +0.000 N 
ATOM      4  C   UNL     1       2.019   7.221  19.937  0.00  0.00    +0.000 C 
ATOM      5  C   UNL     1       1.755   8.391  20.884  0.00  0.00    +0.000 C 
ATOM      6  N   UNL     1       0.873   9.349  20.217  0.00  0.00    +0.000 N 
ATOM      7  C   UNL     1       1.429   9.889  18.959  0.00  0.00    +0.000 C 
ATOM      8  C   UNL     1       1.759   8.727  17.993  0.00  0.00    +0.000 C 
ENDROOT
BRANCH   1  16
ATOM      9  C   UNL     1       0.903   2.784  19.848  0.00  0.00    +0.000 C 
ATOM     10  C   UNL     1       1.495   2.612  18.444  0.00  0.00    +0.000 C 
ATOM     11  C   UNL     1       2.678   1.598  18.465  0.00  0.00    +0.000 C 
ATOM     12  C   UNL     1       3.899   2.098  19.257  0.00  0.00    +0.000 C 
ATOM     13  C   UNL     1       4.108   3.516  18.935  0.00  0.00    +0.000 A 
ATOM     14  O   UNL     1       5.234   4.127  19.330  0.00  0.00    +0.000 OA
ATOM     15  N   UNL     1       5.123   5.465  19.041  0.00  0.00    +0.000 NA
ATOM     16  C   UNL     1       3.955   5.643  18.388  0.00  0.00    +0.000 A 
ATOM     17  C   UNL     1       3.248   4.408  18.341  0.00  0.00    +0.000 A 
ATOM     18  C   UNL     1       1.913   3.989  17.838  0.00  0.00    +0.000 C 
ENDBRANCH   1  16
BRANCH   6  19
ATOM     19  C   UNL     1      -0.030  10.088  20.958  0.00  0.00    +0.000 A 
ATOM     20  C   UNL     1      -0.727  11.187  20.426  0.00  0.00    +0.000 A 
ATOM     21  C   UNL     1      -1.572  11.965  21.216  0.00  0.00    +0.000 A 
ATOM     22  C   UNL     1      -1.725  11.657  22.557  0.00  0.00    +0.000 A 
ATOM     23  F   UNL     1      -2.531  12.410  23.325  0.00  0.00    +0.000 F 
ATOM     24  C   UNL     1      -1.052  10.584  23.122  0.00  0.00    +0.000 A 
ATOM     25  C   UNL     1      -0.212   9.807  22.322  0.00  0.00    +0.000 A 
ENDBRANCH   6  19
TORSDOF 2
ENDMDL
MODEL 2
REMARK VINA RESULT:      -8.5      2.646      3.982
REMARK  Name = 
REMARK  3 active torsions:
REMARK  status: ('A' for Active; 'I' for Inactive)
REMARK    1  A    between atoms: C_1  and  C_2
REMARK    2  A    between atoms: C_8  and  C_9
REMARK    3  A    between atoms: N_14  and  C_15
REMARK                            x       y       z     vdW  Elec       q    Type
REMARK                         _______ _______ _______ _____ _____    ______ ____
ROOT
ATOM      1  C   UNL     1       2.684   5.747  19.497  0.00  0.00    +0.000 C 
ATOM      2  O   UNL     1       2.264   5.059  20.425  0.00  0.00    +0.000 OA
ATOM      3  N   UNL     1       2.344   7.109  19.384  0.00  0.00    +0.000 N 
ATOM      4  C   UNL     1       2.660   7.947  18.217  0.00  0.00    +0.000 C 
ATOM      5  C   UNL     1       1.533   8.924  17.883  0.00  0.00    +0.000 C 
ATOM      6  N   UNL     1       1.222   9.713  19.075  0.00  0.00    +0.000 N 
ATOM      7  C   UNL     1       0.798   8.896  20.232  0.00  0.00    +0.000 C 
ATOM      8  C   UNL     1       1.894   7.858  20.567  0.00  0.00    +0.000 C 
ENDROOT
BRANCH   1  16
ATOM      9  C   UNL     1       7.454   7.080  17.558  0.00  0.00    +0.000 C 
ATOM     10  C   UNL     1       7.414   5.817  18.427  0.00  0.00    +0.000 C 
ATOM     11  C   UNL     1       7.666   4.545  17.563  0.00  0.00    +0.000 C 
ATOM     12  C   UNL     1       6.543   4.261  16.551  0.00  0.00    +0.000 C 
ATOM     13  C   UNL     1       5.253   4.496  17.215  0.00  0.00    +0.000 A 
ATOM     14  O   UNL     1       4.117   4.113  16.614  0.00  0.00    +0.000 OA
ATOM     15  N   UNL     1       3.059   4.573  17.359  0.00  0.00    +0.000 NA
ATOM     16  C   UNL     1       3.566   5.163  18.463  0.00  0.00    +0.000 A 
ATOM     17  C   UNL     1       4.987   5.172  18.382  0.00  0.00    +0.000 A 
ATOM     18  C   UNL     1       6.076   5.728  19.227  0.00  0.00    +0.000 C 
ENDBRANCH   1  16
BRANCH   6  19
ATOM     19  C   UNL     1       0.793  11.020  18.946  0.00  0.00    +0.000 A 
ATOM     20  C   UNL     1      -0.569  11.371  18.917  0.00  0.00    +0.000 A 
ATOM     21  C   UNL     1      -0.977  12.687  18.705  0.00  0.00    +0.000 A 
ATOM     22  C   UNL     1      -0.024  13.673  18.510  0.00  0.00    +0.000 A 
ATOM     23  F   UNL     1      -0.414  14.941  18.296  0.00  0.00    +0.000 F 
ATOM     24  C   UNL     1       1.328  13.367  18.526  0.00  0.00    +0.000 A 
ATOM     25  C   UNL     1       1.728  12.048  18.744  0.00  0.00    +0.000 A 
ENDBRANCH   6  19
TORSDOF 2
ENDMDL
MODEL 3
REMARK VINA RESULT:      -7.8      3.851      5.105
REMARK  Name = 
REMARK  3 active torsions:
REMARK  status: ('A' for Active; 'I' for Inactive)
REMARK    1  A    between atoms: C_1  and  C_2
REMARK    2  A    between atoms: C_8  and  C_9
REMARK    3  A    between atoms: N_14  and  C_15
REMARK                            x       y       z     vdW  Elec       q    Type
REMARK                         _______ _______ _______ _____ _____    ______ ____
ROOT
ATOM      1  C   UNL     1       4.931   4.138  16.735  0.00  0.00    +0.000 C 
ATOM      2  O   UNL     1       4.622   2.955  16.864  0.00  0.00    +0.000 OA
ATOM      3  N   UNL     1       4.299   5.146  17.488  0.00  0.00    +0.000 N 
ATOM      4  C   UNL     1       4.486   6.587  17.264  0.00  0.00    +0.000 C 
ATOM      5  C   UNL     1       3.189   7.376  17.446  0.00  0.00    +0.000 C 
ATOM      6  N   UNL     1       2.636   7.079  18.767  0.00  0.00    +0.000 N 
ATOM      7  C   UNL     1       2.339   5.646  18.975  0.00  0.00    +0.000 C 
ATOM      8  C   UNL     1       3.619   4.809  18.748  0.00  0.00    +0.000 C 
ENDROOT
BRANCH   1  16
ATOM      9  C   UNL     1       6.554   2.232  12.042  0.00  0.00    +0.000 C 
ATOM     10  C   UNL     1       5.814   3.574  11.999  0.00  0.00    +0.000 C 
ATOM     11  C   UNL     1       6.787   4.729  11.615  0.00  0.00    +0.000 C 
ATOM     12  C   UNL     1       7.862   5.002  12.681  0.00  0.00    +0.000 C 
ATOM     13  C   UNL     1       7.227   4.941  14.003  0.00  0.00    +0.000 A 
ATOM     14  O   UNL     1       7.904   5.354  15.085  0.00  0.00    +0.000 OA
ATOM     15  N   UNL     1       7.157   5.059  16.200  0.00  0.00    +0.000 NA
ATOM     16  C   UNL     1       5.983   4.543  15.777  0.00  0.00    +0.000 A 
ATOM     17  C   UNL     1       6.011   4.408  14.360  0.00  0.00    +0.000 A 
ATOM     18  C   UNL     1       5.076   3.851  13.347  0.00  0.00    +0.000 C 
ENDBRANCH   1  16
BRANCH   6  19
ATOM     19  C   UNL     1       1.931   8.048  19.454  0.00  0.00    +0.000 A 
ATOM     20  C   UNL     1       1.555   7.900  20.801  0.00  0.00    +0.000 A 
ATOM     21  C   UNL     1       0.774   8.857  21.448  0.00  0.00    +0.000 A 
ATOM     22  C   UNL     1       0.350   9.976  20.751  0.00  0.00    +0.000 A 
ATOM     23  F   UNL     1      -0.410  10.895  21.368  0.00  0.00    +0.000 F 
ATOM     24  C   UNL     1       0.695  10.156  19.420  0.00  0.00    +0.000 A 
ATOM     25  C   UNL     1       1.481   9.196  18.782  0.00  0.00    +0.000 A 
ENDBRANCH   6  19
TORSDOF 2
ENDMDL
MODEL 4
REMARK VINA RESULT:      -7.7      2.456      3.727
REMARK  Name = 
REMARK  3 active torsions:
REMARK  status: ('A' for Active; 'I' for Inactive)
REMARK    1  A    between atoms: C_1  and  C_2
REMARK    2  A    between atoms: C_8  and  C_9
REMARK    3  A    between atoms: N_14  and  C_15
REMARK                            x       y       z     vdW  Elec       q    Type
REMARK                         _______ _______ _______ _____ _____    ______ ____
ROOT
ATOM      1  C   UNL     1       2.692   5.310  19.373  0.00  0.00    +0.000 C 
ATOM      2  O   UNL     1       2.195   4.491  20.144  0.00  0.00    +0.000 OA
ATOM      3  N   UNL     1       2.393   6.682  19.471  0.00  0.00    +0.000 N 
ATOM      4  C   UNL     1       2.805   7.693  18.485  0.00  0.00    +0.000 C 
ATOM      5  C   UNL     1       1.726   8.750  18.252  0.00  0.00    +0.000 C 
ATOM      6  N   UNL     1       1.355   9.339  19.538  0.00  0.00    +0.000 N 
ATOM      7  C   UNL     1       0.836   8.355  20.511  0.00  0.00    +0.000 C 
ATOM      8  C   UNL     1       1.882   7.238  20.733  0.00  0.00    +0.000 C 
ENDROOT
BRANCH   1  16
ATOM      9  C   UNL     1       7.454   7.034  17.746  0.00  0.00    +0.000 C 
ATOM     10  C   UNL     1       7.443   5.683  18.472  0.00  0.00    +0.000 C 
ATOM     11  C   UNL     1       7.774   4.523  17.486  0.00  0.00    +0.000 C 
ATOM     12  C   UNL     1       6.693   4.307  16.413  0.00  0.00    +0.000 C 
ATOM     13  C   UNL     1       5.376   4.417  17.055  0.00  0.00    +0.000 A 
ATOM     14  O   UNL     1       4.275   4.057  16.380  0.00  0.00    +0.000 OA
ATOM     15  N   UNL     1       3.177   4.391  17.135  0.00  0.00    +0.000 NA
ATOM     16  C   UNL     1       3.627   4.877  18.312  0.00  0.00    +0.000 A 
ATOM     17  C   UNL     1       5.048   4.951  18.279  0.00  0.00    +0.000 A 
ATOM     18  C   UNL     1       6.088   5.455  19.214  0.00  0.00    +0.000 C 
ENDBRANCH   1  16
BRANCH   6  19
ATOM     19  C   UNL     1       0.966  10.663  19.605  0.00  0.00    +0.000 A 
ATOM     20  C   UNL     1       1.200  11.575  18.561  0.00  0.00    +0.000 A 
ATOM     21  C   UNL     1       0.869  12.924  18.685  0.00  0.00    +0.000 A 
ATOM     22  C   UNL     1       0.305  13.382  19.864  0.00  0.00    +0.000 A 
ATOM     23  F   UNL     1      -0.006  14.683  19.991  0.00  0.00    +0.000 F 
ATOM     24  C   UNL     1       0.064  12.515  20.919  0.00  0.00    +0.000 A 
ATOM     25  C   UNL     1       0.392  11.166  20.784  0.00  0.00    +0.000 A 
ENDBRANCH   6  19
TORSDOF 2
ENDMDL
MODEL 5
REMARK VINA RESULT:      -7.3      4.180      8.426
REMARK  Name = 
REMARK  3 active torsions:
REMARK  status: ('A' for Active; 'I' for Inactive)
REMARK    1  A    between atoms: C_1  and  C_2
REMARK    2  A    between atoms: C_8  and  C_9
REMARK    3  A    between atoms: N_14  and  C_15
REMARK                            x       y       z     vdW  Elec       q    Type
REMARK                         _______ _______ _______ _____ _____    ______ ____
ROOT
ATOM      1  C   UNL     1       1.124   8.920  20.526  0.00  0.00    +0.000 C 
ATOM      2  O   UNL     1       1.049   8.611  21.713  0.00  0.00    +0.000 OA
ATOM      3  N   UNL     1       1.801   8.104  19.599  0.00  0.00    +0.000 N 
ATOM      4  C   UNL     1       2.084   8.489  18.208  0.00  0.00    +0.000 C 
ATOM      5  C   UNL     1       3.460   8.014  17.743  0.00  0.00    +0.000 C 
ATOM      6  N   UNL     1       3.559   6.570  17.958  0.00  0.00    +0.000 N 
ATOM      7  C   UNL     1       3.385   6.169  19.369  0.00  0.00    +0.000 C 
ATOM      8  C   UNL     1       2.022   6.680  19.893  0.00  0.00    +0.000 C 
ENDROOT
BRANCH   1  16
ATOM      9  C   UNL     1      -2.106  10.039  16.451  0.00  0.00    +0.000 C 
ATOM     10  C   UNL     1      -2.736  10.123  17.847  0.00  0.00    +0.000 C 
ATOM     11  C   UNL     1      -3.058  11.602  18.219  0.00  0.00    +0.000 C 
ATOM     12  C   UNL     1      -1.804  12.476  18.391  0.00  0.00    +0.000 C 
ATOM     13  C   UNL     1      -0.798  11.700  19.128  0.00  0.00    +0.000 A 
ATOM     14  O   UNL     1       0.302  12.310  19.593  0.00  0.00    +0.000 OA
ATOM     15  N   UNL     1       1.142  11.352  20.107  0.00  0.00    +0.000 NA
ATOM     16  C   UNL     1       0.501  10.166  20.029  0.00  0.00    +0.000 A 
ATOM     17  C   UNL     1      -0.742  10.346  19.358  0.00  0.00    +0.000 A 
ATOM     18  C   UNL     1      -1.829   9.433  18.914  0.00  0.00    +0.000 C 
ENDBRANCH   1  16
BRANCH   6  19
ATOM     19  C   UNL     1       4.310   5.794  17.097  0.00  0.00    +0.000 A 
ATOM     20  C   UNL     1       5.097   6.345  16.070  0.00  0.00    +0.000 A 
ATOM     21  C   UNL     1       5.783   5.537  15.164  0.00  0.00    +0.000 A 
ATOM     22  C   UNL     1       5.684   4.160  15.269  0.00  0.00    +0.000 A 
ATOM     23  F   UNL     1       6.335   3.378  14.393  0.00  0.00    +0.000 F 
ATOM     24  C   UNL     1       4.914   3.577  16.264  0.00  0.00    +0.000 A 
ATOM     25  C   UNL     1       4.235   4.393  17.170  0.00  0.00    +0.000 A 
ENDBRANCH   6  19
TORSDOF 2
ENDMDL
MODEL 6
REMARK VINA RESULT:      -7.2      4.173      8.922
REMARK  Name = 
REMARK  3 active torsions:
REMARK  status: ('A' for Active; 'I' for Inactive)
REMARK    1  A    between atoms: C_1  and  C_2
REMARK    2  A    between atoms: C_8  and  C_9
REMARK    3  A    between atoms: N_14  and  C_15
REMARK                            x       y       z     vdW  Elec       q    Type
REMARK                         _______ _______ _______ _____ _____    ______ ____
ROOT
ATOM      1  C   UNL     1       0.972   9.158  20.434  0.00  0.00    +0.000 C 
ATOM      2  O   UNL     1       0.947   8.952  21.646  0.00  0.00    +0.000 OA
ATOM      3  N   UNL     1       1.663   8.299  19.559  0.00  0.00    +0.000 N 
ATOM      4  C   UNL     1       1.885   8.574  18.132  0.00  0.00    +0.000 C 
ATOM      5  C   UNL     1       3.270   8.127  17.663  0.00  0.00    +0.000 C 
ATOM      6  N   UNL     1       3.449   6.715  17.998  0.00  0.00    +0.000 N 
ATOM      7  C   UNL     1       3.337   6.431  19.445  0.00  0.00    +0.000 C 
ATOM      8  C   UNL     1       1.966   6.918  19.967  0.00  0.00    +0.000 C 
ENDROOT
BRANCH   1  16
ATOM      9  C   UNL     1       0.641  14.292  21.786  0.00  0.00    +0.000 C 
ATOM     10  C   UNL     1       1.454  13.984  20.523  0.00  0.00    +0.000 C 
ATOM     11  C   UNL     1       0.716  14.501  19.251  0.00  0.00    +0.000 C 
ATOM     12  C   UNL     1      -0.600  13.756  18.963  0.00  0.00    +0.000 C 
ATOM     13  C   UNL     1      -0.379  12.323  19.193  0.00  0.00    +0.000 A 
ATOM     14  O   UNL     1      -1.308  11.437  18.806  0.00  0.00    +0.000 OA
ATOM     15  N   UNL     1      -0.937  10.195  19.262  0.00  0.00    +0.000 NA
ATOM     16  C   UNL     1       0.271  10.324  19.853  0.00  0.00    +0.000 A 
ATOM     17  C   UNL     1       0.643  11.698  19.868  0.00  0.00    +0.000 A 
ATOM     18  C   UNL     1       1.789  12.462  20.428  0.00  0.00    +0.000 C 
ENDBRANCH   1  16
BRANCH   6  19
ATOM     19  C   UNL     1       4.215   5.903  17.183  0.00  0.00    +0.000 A 
ATOM     20  C   UNL     1       5.011   6.411  16.141  0.00  0.00    +0.000 A 
ATOM     21  C   UNL     1       5.712   5.566  15.281  0.00  0.00    +0.000 A 
ATOM     22  C   UNL     1       5.618   4.194  15.449  0.00  0.00    +0.000 A 
ATOM     23  F   UNL     1       6.284   3.376  14.617  0.00  0.00    +0.000 F 
ATOM     24  C   UNL     1       4.839   3.654  16.461  0.00  0.00    +0.000 A 
ATOM     25  C   UNL     1       4.146   4.507  17.320  0.00  0.00    +0.000 A 
ENDBRANCH   6  19
TORSDOF 2
ENDMDL
MODEL 7
REMARK VINA RESULT:      -7.1      4.166      8.983
REMARK  Name = 
REMARK  3 active torsions:
REMARK  status: ('A' for Active; 'I' for Inactive)
REMARK    1  A    between atoms: C_1  and  C_2
REMARK    2  A    between atoms: C_8  and  C_9
REMARK    3  A    between atoms: N_14  and  C_15
REMARK                            x       y       z     vdW  Elec       q    Type
REMARK                         _______ _______ _______ _____ _____    ______ ____
ROOT
ATOM      1  C   UNL     1       0.826   9.487  20.528  0.00  0.00    +0.000 C 
ATOM      2  O   UNL     1       0.791   9.323  21.747  0.00  0.00    +0.000 OA
ATOM      3  N   UNL     1       1.457   8.555  19.683  0.00  0.00    +0.000 N 
ATOM      4  C   UNL     1       1.693   8.766  18.247  0.00  0.00    +0.000 C 
ATOM      5  C   UNL     1       3.045   8.213  17.794  0.00  0.00    +0.000 C 
ATOM      6  N   UNL     1       3.132   6.805  18.177  0.00  0.00    +0.000 N 
ATOM      7  C   UNL     1       3.005   6.578  19.632  0.00  0.00    +0.000 C 
ATOM      8  C   UNL     1       1.670   7.172  20.137  0.00  0.00    +0.000 C 
ENDROOT
BRANCH   1  16
ATOM      9  C   UNL     1       0.911  14.685  21.650  0.00  0.00    +0.000 C 
ATOM     10  C   UNL     1       1.670  14.261  20.387  0.00  0.00    +0.000 C 
ATOM     11  C   UNL     1       0.944  14.776  19.108  0.00  0.00    +0.000 C 
ATOM     12  C   UNL     1      -0.429  14.121  18.879  0.00  0.00    +0.000 C 
ATOM     13  C   UNL     1      -0.311  12.687  19.170  0.00  0.00    +0.000 A 
ATOM     14  O   UNL     1      -1.313  11.857  18.842  0.00  0.00    +0.000 OA
ATOM     15  N   UNL     1      -1.025  10.612  19.347  0.00  0.00    +0.000 NA
ATOM     16  C   UNL     1       0.201  10.676  19.908  0.00  0.00    +0.000 A 
ATOM     17  C   UNL     1       0.676  12.016  19.853  0.00  0.00    +0.000 A 
ATOM     18  C   UNL     1       1.888  12.715  20.356  0.00  0.00    +0.000 C 
ENDBRANCH   1  16
BRANCH   6  19
ATOM     19  C   UNL     1       3.841   5.918  17.389  0.00  0.00    +0.000 A 
ATOM     20  C   UNL     1       3.701   4.523  17.504  0.00  0.00    +0.000 A 
ATOM     21  C   UNL     1       4.486   3.648  16.754  0.00  0.00    +0.000 A 
ATOM     22  C   UNL     1       5.431   4.160  15.880  0.00  0.00    +0.000 A 
ATOM     23  F   UNL     1       6.196   3.320  15.162  0.00  0.00    +0.000 F 
ATOM     24  C   UNL     1       5.603   5.529  15.741  0.00  0.00    +0.000 A 
ATOM     25  C   UNL     1       4.809   6.397  16.492  0.00  0.00    +0.000 A 
ENDBRANCH   6  19
TORSDOF 2
ENDMDL
MODEL 8
REMARK VINA RESULT:      -6.9      4.207      9.042
REMARK  Name = 
REMARK  3 active torsions:
REMARK  status: ('A' for Active; 'I' for Inactive)
REMARK    1  A    between atoms: C_1  and  C_2
REMARK    2  A    between atoms: C_8  and  C_9
REMARK    3  A    between atoms: N_14  and  C_15
REMARK                            x       y       z     vdW  Elec       q    Type
REMARK                         _______ _______ _______ _____ _____    ______ ____
ROOT
ATOM      1  C   UNL     1       0.351  10.546  21.135  0.00  0.00    +0.000 C 
ATOM      2  O   UNL     1       0.333  10.497  22.363  0.00  0.00    +0.000 OA
ATOM      3  N   UNL     1       0.835   9.470  20.367  0.00  0.00    +0.000 N 
ATOM      4  C   UNL     1       1.052   9.521  18.914  0.00  0.00    +0.000 C 
ATOM      5  C   UNL     1       2.309   8.763  18.488  0.00  0.00    +0.000 C 
ATOM      6  N   UNL     1       2.231   7.394  18.997  0.00  0.00    +0.000 N 
ATOM      7  C   UNL     1       2.120   7.315  20.468  0.00  0.00    +0.000 C 
ATOM      8  C   UNL     1       0.886   8.117  20.942  0.00  0.00    +0.000 C 
ENDROOT
BRANCH   1  16
ATOM      9  C   UNL     1       1.537  15.724  21.411  0.00  0.00    +0.000 C 
ATOM     10  C   UNL     1       2.005  14.997  20.144  0.00  0.00    +0.000 C 
ATOM     11  C   UNL     1       1.195  15.476  18.902  0.00  0.00    +0.000 C 
ATOM     12  C   UNL     1      -0.292  15.085  18.953  0.00  0.00    +0.000 C 
ATOM     13  C   UNL     1      -0.389  13.705  19.448  0.00  0.00    +0.000 A 
ATOM     14  O   UNL     1      -1.562  13.057  19.382  0.00  0.00    +0.000 OA
ATOM     15  N   UNL     1      -1.428  11.856  20.034  0.00  0.00    +0.000 NA
ATOM     16  C   UNL     1      -0.138  11.745  20.420  0.00  0.00    +0.000 A 
ATOM     17  C   UNL     1       0.555  12.946  20.097  0.00  0.00    +0.000 A 
ATOM     18  C   UNL     1       1.935  13.448  20.328  0.00  0.00    +0.000 C 
ENDBRANCH   1  16
BRANCH   6  19
ATOM     19  C   UNL     1       2.799   6.358  18.280  0.00  0.00    +0.000 A 
ATOM     20  C   UNL     1       2.212   5.083  18.197  0.00  0.00    +0.000 A 
ATOM     21  C   UNL     1       2.844   4.031  17.535  0.00  0.00    +0.000 A 
ATOM     22  C   UNL     1       4.082   4.241  16.951  0.00  0.00    +0.000 A 
ATOM     23  F   UNL     1       4.699   3.228  16.320  0.00  0.00    +0.000 F 
ATOM     24  C   UNL     1       4.697   5.482  17.015  0.00  0.00    +0.000 A 
ATOM     25  C   UNL     1       4.054   6.530  17.675  0.00  0.00    +0.000 A 
ENDBRANCH   6  19
TORSDOF 2
ENDMDL
MODEL 9
REMARK VINA RESULT:      -6.9      3.664      8.603
REMARK  Name = 
REMARK  3 active torsions:
REMARK  status: ('A' for Active; 'I' for Inactive)
REMARK    1  A    between atoms: C_1  and  C_2
REMARK    2  A    between atoms: C_8  and  C_9
REMARK    3  A    between atoms: N_14  and  C_15
REMARK                            x       y       z     vdW  Elec       q    Type
REMARK                         _______ _______ _______ _____ _____    ______ ____
ROOT
ATOM      1  C   UNL     1       0.509  10.216  19.698  0.00  0.00    +0.000 C 
ATOM      2  O   UNL     1       0.363  10.778  18.614  0.00  0.00    +0.000 OA
ATOM      3  N   UNL     1       1.249   9.024  19.810  0.00  0.00    +0.000 N 
ATOM      4  C   UNL     1       1.320   8.205  21.031  0.00  0.00    +0.000 C 
ATOM      5  C   UNL     1       1.318   6.708  20.725  0.00  0.00    +0.000 C 
ATOM      6  N   UNL     1       2.402   6.415  19.788  0.00  0.00    +0.000 N 
ATOM      7  C   UNL     1       2.291   7.147  18.508  0.00  0.00    +0.000 C 
ATOM      8  C   UNL     1       2.237   8.668  18.781  0.00  0.00    +0.000 C 
ENDROOT
BRANCH   1  16
ATOM      9  C   UNL     1      -2.306  14.611  20.725  0.00  0.00    +0.000 C 
ATOM     10  C   UNL     1      -3.080  13.288  20.797  0.00  0.00    +0.000 C 
ATOM     11  C   UNL     1      -3.476  12.959  22.267  0.00  0.00    +0.000 C 
ATOM     12  C   UNL     1      -2.268  12.662  23.174  0.00  0.00    +0.000 C 
ATOM     13  C   UNL     1      -1.326  11.820  22.425  0.00  0.00    +0.000 A 
ATOM     14  O   UNL     1      -0.295  11.247  23.064  0.00  0.00    +0.000 OA
ATOM     15  N   UNL     1       0.510  10.643  22.129  0.00  0.00    +0.000 NA
ATOM     16  C   UNL     1      -0.090  10.781  20.927  0.00  0.00    +0.000 A 
ATOM     17  C   UNL     1      -1.260  11.579  21.073  0.00  0.00    +0.000 A 
ATOM     18  C   UNL     1      -2.272  12.129  20.133  0.00  0.00    +0.000 C 
ENDBRANCH   1  16
BRANCH   6  19
ATOM     19  C   UNL     1       3.054   5.198  19.844  0.00  0.00    +0.000 A 
ATOM     20  C   UNL     1       4.252   4.947  19.152  0.00  0.00    +0.000 A 
ATOM     21  C   UNL     1       4.848   3.686  19.161  0.00  0.00    +0.000 A 
ATOM     22  C   UNL     1       4.246   2.653  19.859  0.00  0.00    +0.000 A 
ATOM     23  F   UNL     1       4.812   1.435  19.862  0.00  0.00    +0.000 F 
ATOM     24  C   UNL     1       3.061   2.858  20.550  0.00  0.00    +0.000 A 
ATOM     25  C   UNL     1       2.475   4.124  20.540  0.00  0.00    +0.000 A 
ENDBRANCH   6  19
TORSDOF 2
ENDMDL
