MODEL 1
REMARK VINA RESULT:      -8.1      0.000      0.000
REMARK  Name = 
REMARK  10 active torsions:
REMARK  status: ('A' for Active; 'I' for Inactive)
REMARK    1  A    between atoms: C_1  and  C_2
REMARK    2  A    between atoms: C_2  and  C_3
REMARK    3  A    between atoms: C_3  and  C_4
REMARK    4  A    between atoms: C_4  and  C_5
REMARK    5  A    between atoms: C_5  and  O_6
REMARK    6  A    between atoms: O_6  and  C_7
REMARK    7  A    between atoms: C_7  and  C_8
REMARK    8  A    between atoms: C_13  and  N_14
REMARK    9  A    between atoms: C_21  and  C_22
REMARK   10  A    between atoms: C_22  and  O_24
REMARK                            x       y       z     vdW  Elec       q    Type
REMARK                         _______ _______ _______ _____ _____    ______ ____
ROOT
ATOM      1  C   UNL     1       6.113   4.336  16.478  0.00  0.00    +0.000 A 
ATOM      2  N   UNL     1       5.135   3.347  16.561  0.00  0.00    +0.000 N 
ATOM      3  C   UNL     1       4.306   3.186  17.663  0.00  0.00    +0.000 A 
ATOM      4  C   UNL     1       3.366   2.153  17.725  0.00  0.00    +0.000 A 
ATOM      5  C   UNL     1       2.587   1.971  18.870  0.00  0.00    +0.000 A 
ATOM      6  C   UNL     1       2.754   2.823  19.969  0.00  0.00    +0.000 A 
ATOM      7  C   UNL     1       3.697   3.857  19.930  0.00  0.00    +0.000 A 
ATOM      8  C   UNL     1       4.472   4.020  18.777  0.00  0.00    +0.000 A 
ATOM      9  C   UNL     1       5.495   5.085  18.706  0.00  0.00    +0.000 A 
ATOM     10  O   UNL     1       5.628   5.871  19.638  0.00  0.00    +0.000 OA
ATOM     11  C   UNL     1       6.351   5.211  17.486  0.00  0.00    +0.000 A 
ATOM     12  H   UNL     1       4.915   2.857  15.688  0.00  0.00    +0.000 HD
ENDROOT
BRANCH   6  13
ATOM     13  N   UNL     1       1.947   2.623  21.180  0.00  0.00    +0.000 N 
ATOM     14  O   UNL     1       0.725   2.817  21.090  0.00  0.00    +0.000 OA
ATOM     15  O   UNL     1       2.531   2.274  22.212  0.00  0.00    +0.000 OA
ENDBRANCH   6  13
BRANCH  11  16
ATOM     16  C   UNL     1       7.429   6.240  17.439  0.00  0.00    +0.000 C 
ATOM     17  O   UNL     1       7.678   6.941  16.461  0.00  0.00    +0.000 OA
BRANCH  16  18
ATOM     18  O   UNL     1       8.142   6.375  18.578  0.00  0.00    +0.000 OA
ATOM     19  H   UNL     1       9.094   6.609  18.436  0.00  0.00    +0.000 HD
ENDBRANCH  16  18
ENDBRANCH  11  16
BRANCH   1  20
ATOM     20  C   UNL     1       6.884   4.371  15.167  0.00  0.00    +0.000 C 
BRANCH  20  21
ATOM     21  O   UNL     1       6.257   3.465  14.245  0.00  0.00    +0.000 OA
BRANCH  21  22
ATOM     22  C   UNL     1       6.463   3.903  12.902  0.00  0.00    +0.000 C 
BRANCH  22  23
ATOM     23  C   UNL     1       5.651   3.029  11.955  0.00  0.00    +0.000 C 
BRANCH  23  24
ATOM     24  C   UNL     1       4.233   3.578  11.817  0.00  0.00    +0.000 C 
BRANCH  24  26
ATOM     25  C   UNL     1       3.043   4.206   9.700  0.00  0.00    +0.000 C 
ATOM     26  C   UNL     1       3.533   3.056  10.567  0.00  0.00    +0.000 C 
ENDBRANCH  24  26
ENDBRANCH  23  24
ENDBRANCH  22  23
ENDBRANCH  21  22
ENDBRANCH  20  21
ENDBRANCH   1  20
TORSDOF 9
ENDMDL
MODEL 2
REMARK VINA RESULT:      -7.9      1.272      1.689
REMARK  Name = 
REMARK  10 active torsions:
REMARK  status: ('A' for Active; 'I' for Inactive)
REMARK    1  A    between atoms: C_1  and  C_2
REMARK    2  A    between atoms: C_2  and  C_3
REMARK    3  A    between atoms: C_3  and  C_4
REMARK    4  A    between atoms: C_4  and  C_5
REMARK    5  A    between atoms: C_5  and  O_6
REMARK    6  A    between atoms: O_6  and  C_7
REMARK    7  A    between atoms: C_7  and  C_8
REMARK    8  A    between atoms: C_13  and  N_14
REMARK    9  A    between atoms: C_21  and  C_22
REMARK   10  A    between atoms: C_22  and  O_24
REMARK                            x       y       z     vdW  Elec       q    Type
REMARK                         _______ _______ _______ _____ _____    ______ ____
ROOT
ATOM      1  C   UNL     1       5.085   4.310  16.014  0.00  0.00    +0.000 A 
ATOM      2  N   UNL     1       3.824   3.767  16.260  0.00  0.00    +0.000 N 
ATOM      3  C   UNL     1       3.341   3.509  17.536  0.00  0.00    +0.000 A 
ATOM      4  C   UNL     1       2.088   2.923  17.737  0.00  0.00    +0.000 A 
ATOM      5  C   UNL     1       1.649   2.613  19.026  0.00  0.00    +0.000 A 
ATOM      6  C   UNL     1       2.473   2.883  20.126  0.00  0.00    +0.000 A 
ATOM      7  C   UNL     1       3.735   3.461  19.944  0.00  0.00    +0.000 A 
ATOM      8  C   UNL     1       4.159   3.758  18.645  0.00  0.00    +0.000 A 
ATOM      9  C   UNL     1       5.496   4.346  18.409  0.00  0.00    +0.000 A 
ATOM     10  O   UNL     1       6.216   4.633  19.359  0.00  0.00    +0.000 OA
ATOM     11  C   UNL     1       5.955   4.609  17.011  0.00  0.00    +0.000 A 
ATOM     12  H   UNL     1       3.181   3.744  15.462  0.00  0.00    +0.000 HD
ENDROOT
BRANCH   6  13
ATOM     13  N   UNL     1       2.020   2.544  21.481  0.00  0.00    +0.000 N 
ATOM     14  O   UNL     1       0.815   2.696  21.736  0.00  0.00    +0.000 OA
ATOM     15  O   UNL     1       2.862   2.127  22.285  0.00  0.00    +0.000 OA
ENDBRANCH   6  13
BRANCH  11  16
ATOM     16  C   UNL     1       7.326   5.138  16.766  0.00  0.00    +0.000 C 
ATOM     17  O   UNL     1       7.570   6.255  16.315  0.00  0.00    +0.000 OA
BRANCH  16  18
ATOM     18  O   UNL     1       8.332   4.295  17.089  0.00  0.00    +0.000 OA
ATOM     19  H   UNL     1       8.052   3.352  17.197  0.00  0.00    +0.000 HD
ENDBRANCH  16  18
ENDBRANCH  11  16
BRANCH   1  20
ATOM     20  C   UNL     1       5.405   4.557  14.548  0.00  0.00    +0.000 C 
BRANCH  20  21
ATOM     21  O   UNL     1       6.435   3.641  14.145  0.00  0.00    +0.000 OA
BRANCH  21  22
ATOM     22  C   UNL     1       6.558   3.627  12.723  0.00  0.00    +0.000 C 
BRANCH  22  23
ATOM     23  C   UNL     1       5.174   3.518  12.096  0.00  0.00    +0.000 C 
BRANCH  23  24
ATOM     24  C   UNL     1       5.050   2.210  11.320  0.00  0.00    +0.000 C 
BRANCH  24  26
ATOM     25  C   UNL     1       6.155  -0.042  11.288  0.00  0.00    +0.000 C 
ATOM     26  C   UNL     1       6.377   1.462  11.237  0.00  0.00    +0.000 C 
ENDBRANCH  24  26
ENDBRANCH  23  24
ENDBRANCH  22  23
ENDBRANCH  21  22
ENDBRANCH  20  21
ENDBRANCH   1  20
TORSDOF 9
ENDMDL
MODEL 3
REMARK VINA RESULT:      -7.8      3.366      4.482
REMARK  Name = 
REMARK  10 active torsions:
REMARK  status: ('A' for Active; 'I' for Inactive)
REMARK    1  A    between atoms: C_1  and  C_2
REMARK    2  A    between atoms: C_2  and  C_3
REMARK    3  A    between atoms: C_3  and  C_4
REMARK    4  A    between atoms: C_4  and  C_5
REMARK    5  A    between atoms: C_5  and  O_6
REMARK    6  A    between atoms: O_6  and  C_7
REMARK    7  A    between atoms: C_7  and  C_8
REMARK    8  A    between atoms: C_13  and  N_14
REMARK    9  A    between atoms: C_21  and  C_22
REMARK   10  A    between atoms: C_22  and  O_24
REMARK                            x       y       z     vdW  Elec       q    Type
REMARK                         _______ _______ _______ _____ _____    ______ ____
ROOT
ATOM      1  C   UNL     1       4.158   4.607  17.597  0.00  0.00    +0.000 A 
ATOM      2  N   UNL     1       3.817   5.932  17.328  0.00  0.00    +0.000 N 
ATOM      3  C   UNL     1       3.111   6.732  18.217  0.00  0.00    +0.000 A 
ATOM      4  C   UNL     1       2.751   8.043  17.892  0.00  0.00    +0.000 A 
ATOM      5  C   UNL     1       1.985   8.807  18.775  0.00  0.00    +0.000 A 
ATOM      6  C   UNL     1       1.567   8.255  19.992  0.00  0.00    +0.000 A 
ATOM      7  C   UNL     1       1.909   6.941  20.332  0.00  0.00    +0.000 A 
ATOM      8  C   UNL     1       2.671   6.189  19.432  0.00  0.00    +0.000 A 
ATOM      9  C   UNL     1       3.033   4.789  19.743  0.00  0.00    +0.000 A 
ATOM     10  O   UNL     1       2.717   4.299  20.822  0.00  0.00    +0.000 OA
ATOM     11  C   UNL     1       3.802   3.983  18.746  0.00  0.00    +0.000 A 
ATOM     12  H   UNL     1       4.280   6.362  16.521  0.00  0.00    +0.000 HD
ENDROOT
BRANCH   6  13
ATOM     13  N   UNL     1       0.749   9.053  20.915  0.00  0.00    +0.000 N 
ATOM     14  O   UNL     1       0.989  10.267  20.989  0.00  0.00    +0.000 OA
ATOM     15  O   UNL     1      -0.129   8.469  21.561  0.00  0.00    +0.000 OA
ENDBRANCH   6  13
BRANCH  11  16
ATOM     16  C   UNL     1       4.110   2.552  19.028  0.00  0.00    +0.000 C 
ATOM     17  O   UNL     1       3.541   1.601  18.497  0.00  0.00    +0.000 OA
BRANCH  16  18
ATOM     18  O   UNL     1       5.097   2.345  19.927  0.00  0.00    +0.000 OA
ATOM     19  H   UNL     1       4.784   2.002  20.802  0.00  0.00    +0.000 HD
ENDBRANCH  16  18
ENDBRANCH  11  16
BRANCH   1  20
ATOM     20  C   UNL     1       4.972   3.920  16.510  0.00  0.00    +0.000 C 
BRANCH  20  21
ATOM     21  O   UNL     1       6.236   4.591  16.393  0.00  0.00    +0.000 OA
BRANCH  21  22
ATOM     22  C   UNL     1       6.487   4.942  15.033  0.00  0.00    +0.000 C 
BRANCH  22  23
ATOM     23  C   UNL     1       5.699   4.015  14.116  0.00  0.00    +0.000 C 
BRANCH  23  24
ATOM     24  C   UNL     1       6.455   3.800  12.808  0.00  0.00    +0.000 C 
BRANCH  24  26
ATOM     25  C   UNL     1       4.377   3.269  11.507  0.00  0.00    +0.000 C 
ATOM     26  C   UNL     1       5.763   2.785  11.903  0.00  0.00    +0.000 C 
ENDBRANCH  24  26
ENDBRANCH  23  24
ENDBRANCH  22  23
ENDBRANCH  21  22
ENDBRANCH  20  21
ENDBRANCH   1  20
TORSDOF 9
ENDMDL
MODEL 4
REMARK VINA RESULT:      -7.7      1.099      1.387
REMARK  Name = 
REMARK  10 active torsions:
REMARK  status: ('A' for Active; 'I' for Inactive)
REMARK    1  A    between atoms: C_1  and  C_2
REMARK    2  A    between atoms: C_2  and  C_3
REMARK    3  A    between atoms: C_3  and  C_4
REMARK    4  A    between atoms: C_4  and  C_5
REMARK    5  A    between atoms: C_5  and  O_6
REMARK    6  A    between atoms: O_6  and  C_7
REMARK    7  A    between atoms: C_7  and  C_8
REMARK    8  A    between atoms: C_13  and  N_14
REMARK    9  A    between atoms: C_21  and  C_22
REMARK   10  A    between atoms: C_22  and  O_24
REMARK                            x       y       z     vdW  Elec       q    Type
REMARK                         _______ _______ _______ _____ _____    ______ ____
ROOT
ATOM      1  C   UNL     1       5.092   4.434  16.108  0.00  0.00    +0.000 A 
ATOM      2  N   UNL     1       3.792   3.985  16.334  0.00  0.00    +0.000 N 
ATOM      3  C   UNL     1       3.300   3.681  17.597  0.00  0.00    +0.000 A 
ATOM      4  C   UNL     1       2.002   3.193  17.776  0.00  0.00    +0.000 A 
ATOM      5  C   UNL     1       1.550   2.833  19.048  0.00  0.00    +0.000 A 
ATOM      6  C   UNL     1       2.405   2.954  20.151  0.00  0.00    +0.000 A 
ATOM      7  C   UNL     1       3.711   3.432  19.990  0.00  0.00    +0.000 A 
ATOM      8  C   UNL     1       4.147   3.781  18.708  0.00  0.00    +0.000 A 
ATOM      9  C   UNL     1       5.527   4.267  18.493  0.00  0.00    +0.000 A 
ATOM     10  O   UNL     1       6.278   4.424  19.449  0.00  0.00    +0.000 OA
ATOM     11  C   UNL     1       5.994   4.586  17.109  0.00  0.00    +0.000 A 
ATOM     12  H   UNL     1       3.141   4.073  15.547  0.00  0.00    +0.000 HD
ENDROOT
BRANCH   6  13
ATOM     13  N   UNL     1       1.936   2.561  21.487  0.00  0.00    +0.000 N 
ATOM     14  O   UNL     1       2.786   2.160  22.296  0.00  0.00    +0.000 OA
ATOM     15  O   UNL     1       0.727   2.655  21.724  0.00  0.00    +0.000 OA
ENDBRANCH   6  13
BRANCH  11  16
ATOM     16  C   UNL     1       7.404   5.011  16.880  0.00  0.00    +0.000 C 
ATOM     17  O   UNL     1       8.376   4.263  16.951  0.00  0.00    +0.000 OA
BRANCH  16  18
ATOM     18  O   UNL     1       7.565   6.316  16.567  0.00  0.00    +0.000 OA
ATOM     19  H   UNL     1       8.185   6.478  15.812  0.00  0.00    +0.000 HD
ENDBRANCH  16  18
ENDBRANCH  11  16
BRANCH   1  20
ATOM     20  C   UNL     1       5.419   4.753  14.657  0.00  0.00    +0.000 C 
BRANCH  20  21
ATOM     21  O   UNL     1       6.096   3.625  14.082  0.00  0.00    +0.000 OA
BRANCH  21  22
ATOM     22  C   UNL     1       6.392   3.872  12.707  0.00  0.00    +0.000 C 
BRANCH  22  23
ATOM     23  C   UNL     1       6.446   2.549  11.955  0.00  0.00    +0.000 C 
BRANCH  23  24
ATOM     24  C   UNL     1       5.078   2.223  11.363  0.00  0.00    +0.000 C 
BRANCH  24  26
ATOM     25  C   UNL     1       3.297   3.498  10.140  0.00  0.00    +0.000 C 
ATOM     26  C   UNL     1       4.132   3.419  11.409  0.00  0.00    +0.000 C 
ENDBRANCH  24  26
ENDBRANCH  23  24
ENDBRANCH  22  23
ENDBRANCH  21  22
ENDBRANCH  20  21
ENDBRANCH   1  20
TORSDOF 9
ENDMDL
MODEL 5
REMARK VINA RESULT:      -7.7      3.409      5.571
REMARK  Name = 
REMARK  10 active torsions:
REMARK  status: ('A' for Active; 'I' for Inactive)
REMARK    1  A    between atoms: C_1  and  C_2
REMARK    2  A    between atoms: C_2  and  C_3
REMARK    3  A    between atoms: C_3  and  C_4
REMARK    4  A    between atoms: C_4  and  C_5
REMARK    5  A    between atoms: C_5  and  O_6
REMARK    6  A    between atoms: O_6  and  C_7
REMARK    7  A    between atoms: C_7  and  C_8
REMARK    8  A    between atoms: C_13  and  N_14
REMARK    9  A    between atoms: C_21  and  C_22
REMARK   10  A    between atoms: C_22  and  O_24
REMARK                            x       y       z     vdW  Elec       q    Type
REMARK                         _______ _______ _______ _____ _____    ______ ____
ROOT
ATOM      1  C   UNL     1       3.967   4.653  17.734  0.00  0.00    +0.000 A 
ATOM      2  N   UNL     1       3.601   5.984  17.537  0.00  0.00    +0.000 N 
ATOM      3  C   UNL     1       2.919   6.734  18.485  0.00  0.00    +0.000 A 
ATOM      4  C   UNL     1       2.532   8.054  18.231  0.00  0.00    +0.000 A 
ATOM      5  C   UNL     1       1.790   8.769  19.173  0.00  0.00    +0.000 A 
ATOM      6  C   UNL     1       1.423   8.158  20.380  0.00  0.00    +0.000 A 
ATOM      7  C   UNL     1       1.793   6.835  20.649  0.00  0.00    +0.000 A 
ATOM      8  C   UNL     1       2.530   6.134  19.690  0.00  0.00    +0.000 A 
ATOM      9  C   UNL     1       2.919   4.727  19.926  0.00  0.00    +0.000 A 
ATOM     10  O   UNL     1       2.649   4.186  20.993  0.00  0.00    +0.000 OA
ATOM     11  C   UNL     1       3.661   3.975  18.868  0.00  0.00    +0.000 A 
ATOM     12  H   UNL     1       4.029   6.454  16.733  0.00  0.00    +0.000 HD
ENDROOT
BRANCH   6  13
ATOM     13  N   UNL     1       0.630   8.904  21.366  0.00  0.00    +0.000 N 
ATOM     14  O   UNL     1       1.138   9.925  21.854  0.00  0.00    +0.000 OA
ATOM     15  O   UNL     1      -0.493   8.473  21.649  0.00  0.00    +0.000 OA
ENDBRANCH   6  13
BRANCH  11  16
ATOM     16  C   UNL     1       3.996   2.537  19.075  0.00  0.00    +0.000 C 
ATOM     17  O   UNL     1       3.388   1.601  18.562  0.00  0.00    +0.000 OA
BRANCH  16  18
ATOM     18  O   UNL     1       5.054   2.306  19.882  0.00  0.00    +0.000 OA
ATOM     19  H   UNL     1       5.419   1.388  19.820  0.00  0.00    +0.000 HD
ENDBRANCH  16  18
ENDBRANCH  11  16
BRANCH   1  20
ATOM     20  C   UNL     1       4.748   4.024  16.590  0.00  0.00    +0.000 C 
BRANCH  20  21
ATOM     21  O   UNL     1       5.289   5.076  15.775  0.00  0.00    +0.000 OA
BRANCH  21  22
ATOM     22  C   UNL     1       6.713   5.093  15.869  0.00  0.00    +0.000 C 
BRANCH  22  23
ATOM     23  C   UNL     1       7.135   4.655  17.266  0.00  0.00    +0.000 C 
BRANCH  23  24
ATOM     24  C   UNL     1       7.596   5.862  18.078  0.00  0.00    +0.000 C 
BRANCH  24  26
ATOM     25  C   UNL     1       8.062   8.316  17.847  0.00  0.00    +0.000 C 
ATOM     26  C   UNL     1       7.125   7.180  17.470  0.00  0.00    +0.000 C 
ENDBRANCH  24  26
ENDBRANCH  23  24
ENDBRANCH  22  23
ENDBRANCH  21  22
ENDBRANCH  20  21
ENDBRANCH   1  20
TORSDOF 9
ENDMDL
MODEL 6
REMARK VINA RESULT:      -7.6      3.183      7.739
REMARK  Name = 
REMARK  10 active torsions:
REMARK  status: ('A' for Active; 'I' for Inactive)
REMARK    1  A    between atoms: C_1  and  C_2
REMARK    2  A    between atoms: C_2  and  C_3
REMARK    3  A    between atoms: C_3  and  C_4
REMARK    4  A    between atoms: C_4  and  C_5
REMARK    5  A    between atoms: C_5  and  O_6
REMARK    6  A    between atoms: O_6  and  C_7
REMARK    7  A    between atoms: C_7  and  C_8
REMARK    8  A    between atoms: C_13  and  N_14
REMARK    9  A    between atoms: C_21  and  C_22
REMARK   10  A    between atoms: C_22  and  O_24
REMARK                            x       y       z     vdW  Elec       q    Type
REMARK                         _______ _______ _______ _____ _____    ______ ____
ROOT
ATOM      1  C   UNL     1       6.979   5.972  16.978  0.00  0.00    +0.000 A 
ATOM      2  N   UNL     1       7.513   5.907  15.692  0.00  0.00    +0.000 N 
ATOM      3  C   UNL     1       6.954   5.146  14.673  0.00  0.00    +0.000 A 
ATOM      4  C   UNL     1       7.545   5.074  13.408  0.00  0.00    +0.000 A 
ATOM      5  C   UNL     1       7.002   4.252  12.418  0.00  0.00    +0.000 A 
ATOM      6  C   UNL     1       5.862   3.487  12.696  0.00  0.00    +0.000 A 
ATOM      7  C   UNL     1       5.262   3.539  13.959  0.00  0.00    +0.000 A 
ATOM      8  C   UNL     1       5.824   4.363  14.939  0.00  0.00    +0.000 A 
ATOM      9  C   UNL     1       5.234   4.426  16.294  0.00  0.00    +0.000 A 
ATOM     10  O   UNL     1       4.209   3.800  16.546  0.00  0.00    +0.000 OA
ATOM     11  C   UNL     1       5.878   5.271  17.345  0.00  0.00    +0.000 A 
ATOM     12  H   UNL     1       8.232   6.602  15.466  0.00  0.00    +0.000 HD
ENDROOT
BRANCH   6  13
ATOM     13  N   UNL     1       5.299   2.611  11.660  0.00  0.00    +0.000 N 
ATOM     14  O   UNL     1       5.939   1.590  11.365  0.00  0.00    +0.000 OA
ATOM     15  O   UNL     1       4.224   2.940  11.147  0.00  0.00    +0.000 OA
ENDBRANCH   6  13
BRANCH  11  16
ATOM     16  C   UNL     1       5.325   5.284  18.730  0.00  0.00    +0.000 C 
ATOM     17  O   UNL     1       5.893   4.809  19.710  0.00  0.00    +0.000 OA
BRANCH  16  18
ATOM     18  O   UNL     1       4.120   5.881  18.859  0.00  0.00    +0.000 OA
ATOM     19  H   UNL     1       3.518   5.753  18.083  0.00  0.00    +0.000 HD
ENDBRANCH  16  18
ENDBRANCH  11  16
BRANCH   1  20
ATOM     20  C   UNL     1       7.716   6.898  17.934  0.00  0.00    +0.000 C 
BRANCH  20  21
ATOM     21  O   UNL     1       8.185   8.037  17.196  0.00  0.00    +0.000 OA
BRANCH  21  22
ATOM     22  C   UNL     1       7.866   9.243  17.889  0.00  0.00    +0.000 C 
BRANCH  22  23
ATOM     23  C   UNL     1       8.989   9.581  18.861  0.00  0.00    +0.000 C 
BRANCH  23  24
ATOM     24  C   UNL     1       9.681  10.873  18.436  0.00  0.00    +0.000 C 
BRANCH  24  26
ATOM     25  C   UNL     1      11.959  11.582  19.213  0.00  0.00    +0.000 C 
ATOM     26  C   UNL     1      10.484  11.497  19.573  0.00  0.00    +0.000 C 
ENDBRANCH  24  26
ENDBRANCH  23  24
ENDBRANCH  22  23
ENDBRANCH  21  22
ENDBRANCH  20  21
ENDBRANCH   1  20
TORSDOF 9
ENDMDL
MODEL 7
REMARK VINA RESULT:      -7.5      3.144      7.604
REMARK  Name = 
REMARK  10 active torsions:
REMARK  status: ('A' for Active; 'I' for Inactive)
REMARK    1  A    between atoms: C_1  and  C_2
REMARK    2  A    between atoms: C_2  and  C_3
REMARK    3  A    between atoms: C_3  and  C_4
REMARK    4  A    between atoms: C_4  and  C_5
REMARK    5  A    between atoms: C_5  and  O_6
REMARK    6  A    between atoms: O_6  and  C_7
REMARK    7  A    between atoms: C_7  and  C_8
REMARK    8  A    between atoms: C_13  and  N_14
REMARK    9  A    between atoms: C_21  and  C_22
REMARK   10  A    between atoms: C_22  and  O_24
REMARK                            x       y       z     vdW  Elec       q    Type
REMARK                         _______ _______ _______ _____ _____    ______ ____
ROOT
ATOM      1  C   UNL     1       6.963   5.854  16.926  0.00  0.00    +0.000 A 
ATOM      2  N   UNL     1       7.453   5.880  15.621  0.00  0.00    +0.000 N 
ATOM      3  C   UNL     1       6.937   5.097  14.598  0.00  0.00    +0.000 A 
ATOM      4  C   UNL     1       7.485   5.121  13.313  0.00  0.00    +0.000 A 
ATOM      5  C   UNL     1       6.991   4.277  12.315  0.00  0.00    +0.000 A 
ATOM      6  C   UNL     1       5.944   3.394  12.606  0.00  0.00    +0.000 A 
ATOM      7  C   UNL     1       5.387   3.349  13.890  0.00  0.00    +0.000 A 
ATOM      8  C   UNL     1       5.900   4.197  14.877  0.00  0.00    +0.000 A 
ATOM      9  C   UNL     1       5.356   4.162  16.251  0.00  0.00    +0.000 A 
ATOM     10  O   UNL     1       4.409   3.430  16.518  0.00  0.00    +0.000 OA
ATOM     11  C   UNL     1       5.951   5.037  17.307  0.00  0.00    +0.000 A 
ATOM     12  H   UNL     1       8.091   6.650  15.395  0.00  0.00    +0.000 HD
ENDROOT
BRANCH   6  13
ATOM     13  N   UNL     1       5.433   2.495  11.562  0.00  0.00    +0.000 N 
ATOM     14  O   UNL     1       4.297   2.722  11.118  0.00  0.00    +0.000 OA
ATOM     15  O   UNL     1       6.163   1.570  11.189  0.00  0.00    +0.000 OA
ENDBRANCH   6  13
BRANCH  11  16
ATOM     16  C   UNL     1       5.450   4.955  18.709  0.00  0.00    +0.000 C 
ATOM     17  O   UNL     1       4.766   5.818  19.254  0.00  0.00    +0.000 OA
BRANCH  16  18
ATOM     18  O   UNL     1       5.793   3.831  19.375  0.00  0.00    +0.000 OA
ATOM     19  H   UNL     1       5.983   3.970  20.336  0.00  0.00    +0.000 HD
ENDBRANCH  16  18
ENDBRANCH  11  16
BRANCH   1  20
ATOM     20  C   UNL     1       7.639   6.822  17.886  0.00  0.00    +0.000 C 
BRANCH  20  21
ATOM     21  O   UNL     1       8.108   7.955  17.138  0.00  0.00    +0.000 OA
BRANCH  21  22
ATOM     22  C   UNL     1       7.906   9.157  17.881  0.00  0.00    +0.000 C 
BRANCH  22  23
ATOM     23  C   UNL     1       9.012   9.303  18.919  0.00  0.00    +0.000 C 
BRANCH  23  24
ATOM     24  C   UNL     1       9.160  10.766  19.327  0.00  0.00    +0.000 C 
BRANCH  24  26
ATOM     25  C   UNL     1      10.788  11.761  17.699  0.00  0.00    +0.000 C 
ATOM     26  C   UNL     1      10.583  11.279  19.126  0.00  0.00    +0.000 C 
ENDBRANCH  24  26
ENDBRANCH  23  24
ENDBRANCH  22  23
ENDBRANCH  21  22
ENDBRANCH  20  21
ENDBRANCH   1  20
TORSDOF 9
ENDMDL
MODEL 8
REMARK VINA RESULT:      -7.5      4.300      8.498
REMARK  Name = 
REMARK  10 active torsions:
REMARK  status: ('A' for Active; 'I' for Inactive)
REMARK    1  A    between atoms: C_1  and  C_2
REMARK    2  A    between atoms: C_2  and  C_3
REMARK    3  A    between atoms: C_3  and  C_4
REMARK    4  A    between atoms: C_4  and  C_5
REMARK    5  A    between atoms: C_5  and  O_6
REMARK    6  A    between atoms: O_6  and  C_7
REMARK    7  A    between atoms: C_7  and  C_8
REMARK    8  A    between atoms: C_13  and  N_14
REMARK    9  A    between atoms: C_21  and  C_22
REMARK   10  A    between atoms: C_22  and  O_24
REMARK                            x       y       z     vdW  Elec       q    Type
REMARK                         _______ _______ _______ _____ _____    ______ ____
ROOT
ATOM      1  C   UNL     1       2.268   5.829  19.937  0.00  0.00    +0.000 A 
ATOM      2  N   UNL     1       2.911   6.635  18.999  0.00  0.00    +0.000 N 
ATOM      3  C   UNL     1       3.716   6.131  17.987  0.00  0.00    +0.000 A 
ATOM      4  C   UNL     1       4.378   6.977  17.091  0.00  0.00    +0.000 A 
ATOM      5  C   UNL     1       5.235   6.451  16.121  0.00  0.00    +0.000 A 
ATOM      6  C   UNL     1       5.440   5.068  16.049  0.00  0.00    +0.000 A 
ATOM      7  C   UNL     1       4.794   4.206  16.943  0.00  0.00    +0.000 A 
ATOM      8  C   UNL     1       3.945   4.751  17.911  0.00  0.00    +0.000 A 
ATOM      9  C   UNL     1       3.263   3.876  18.889  0.00  0.00    +0.000 A 
ATOM     10  O   UNL     1       3.392   2.659  18.816  0.00  0.00    +0.000 OA
ATOM     11  C   UNL     1       2.401   4.480  19.950  0.00  0.00    +0.000 A 
ATOM     12  H   UNL     1       2.608   7.614  18.963  0.00  0.00    +0.000 HD
ENDROOT
BRANCH   6  13
ATOM     13  N   UNL     1       6.352   4.515  15.039  0.00  0.00    +0.000 N 
ATOM     14  O   UNL     1       5.851   3.858  14.114  0.00  0.00    +0.000 OA
ATOM     15  O   UNL     1       7.561   4.737  15.170  0.00  0.00    +0.000 OA
ENDBRANCH   6  13
BRANCH  11  16
ATOM     16  C   UNL     1       1.767   3.607  20.978  0.00  0.00    +0.000 C 
ATOM     17  O   UNL     1       2.214   3.424  22.108  0.00  0.00    +0.000 OA
BRANCH  16  18
ATOM     18  O   UNL     1       0.619   3.008  20.591  0.00  0.00    +0.000 OA
ATOM     19  H   UNL     1       0.737   2.087  20.248  0.00  0.00    +0.000 HD
ENDBRANCH  16  18
ENDBRANCH  11  16
BRANCH   1  20
ATOM     20  C   UNL     1       1.396   6.575  20.936  0.00  0.00    +0.000 C 
BRANCH  20  21
ATOM     21  O   UNL     1       1.446   7.977  20.628  0.00  0.00    +0.000 OA
BRANCH  21  22
ATOM     22  C   UNL     1       1.225   8.751  21.807  0.00  0.00    +0.000 C 
BRANCH  22  23
ATOM     23  C   UNL     1      -0.090   9.508  21.677  0.00  0.00    +0.000 C 
BRANCH  23  24
ATOM     24  C   UNL     1      -0.647   9.838  23.059  0.00  0.00    +0.000 C 
BRANCH  24  26
ATOM     25  C   UNL     1      -0.886  12.056  21.912  0.00  0.00    +0.000 C 
ATOM     26  C   UNL     1      -1.318  11.207  23.098  0.00  0.00    +0.000 C 
ENDBRANCH  24  26
ENDBRANCH  23  24
ENDBRANCH  22  23
ENDBRANCH  21  22
ENDBRANCH  20  21
ENDBRANCH   1  20
TORSDOF 9
ENDMDL
MODEL 9
REMARK VINA RESULT:      -7.5      3.640      7.643
REMARK  Name = 
REMARK  10 active torsions:
REMARK  status: ('A' for Active; 'I' for Inactive)
REMARK    1  A    between atoms: C_1  and  C_2
REMARK    2  A    between atoms: C_2  and  C_3
REMARK    3  A    between atoms: C_3  and  C_4
REMARK    4  A    between atoms: C_4  and  C_5
REMARK    5  A    between atoms: C_5  and  O_6
REMARK    6  A    between atoms: O_6  and  C_7
REMARK    7  A    between atoms: C_7  and  C_8
REMARK    8  A    between atoms: C_13  and  N_14
REMARK    9  A    between atoms: C_21  and  C_22
REMARK   10  A    between atoms: C_22  and  O_24
REMARK                            x       y       z     vdW  Elec       q    Type
REMARK                         _______ _______ _______ _____ _____    ______ ____
ROOT
ATOM      1  C   UNL     1       2.319   5.567  19.802  0.00  0.00    +0.000 A 
ATOM      2  N   UNL     1       3.098   6.445  19.049  0.00  0.00    +0.000 N 
ATOM      3  C   UNL     1       3.884   6.038  17.979  0.00  0.00    +0.000 A 
ATOM      4  C   UNL     1       4.685   6.944  17.276  0.00  0.00    +0.000 A 
ATOM      5  C   UNL     1       5.517   6.502  16.245  0.00  0.00    +0.000 A 
ATOM      6  C   UNL     1       5.556   5.142  15.917  0.00  0.00    +0.000 A 
ATOM      7  C   UNL     1       4.769   4.218  16.615  0.00  0.00    +0.000 A 
ATOM      8  C   UNL     1       3.947   4.679  17.648  0.00  0.00    +0.000 A 
ATOM      9  C   UNL     1       3.120   3.731  18.425  0.00  0.00    +0.000 A 
ATOM     10  O   UNL     1       3.104   2.542  18.126  0.00  0.00    +0.000 OA
ATOM     11  C   UNL     1       2.287   4.233  19.562  0.00  0.00    +0.000 A 
ATOM     12  H   UNL     1       2.918   7.444  19.193  0.00  0.00    +0.000 HD
ENDROOT
BRANCH   6  13
ATOM     13  N   UNL     1       6.442   4.674  14.842  0.00  0.00    +0.000 N 
ATOM     14  O   UNL     1       6.023   3.764  14.110  0.00  0.00    +0.000 OA
ATOM     15  O   UNL     1       7.549   5.213  14.730  0.00  0.00    +0.000 OA
ENDBRANCH   6  13
BRANCH  11  16
ATOM     16  C   UNL     1       1.504   3.272  20.390  0.00  0.00    +0.000 C 
ATOM     17  O   UNL     1       1.849   2.866  21.496  0.00  0.00    +0.000 OA
BRANCH  16  18
ATOM     18  O   UNL     1       0.339   2.861  19.841  0.00  0.00    +0.000 OA
ATOM     19  H   UNL     1      -0.131   2.163  20.363  0.00  0.00    +0.000 HD
ENDBRANCH  16  18
ENDBRANCH  11  16
BRANCH   1  20
ATOM     20  C   UNL     1       1.496   6.220  20.903  0.00  0.00    +0.000 C 
BRANCH  20  21
ATOM     21  O   UNL     1       1.505   7.641  20.697  0.00  0.00    +0.000 OA
BRANCH  21  22
ATOM     22  C   UNL     1       0.524   8.267  21.523  0.00  0.00    +0.000 C 
BRANCH  22  23
ATOM     23  C   UNL     1      -0.125   9.415  20.760  0.00  0.00    +0.000 C 
BRANCH  23  24
ATOM     24  C   UNL     1       0.916  10.134  19.907  0.00  0.00    +0.000 C 
BRANCH  24  26
ATOM     25  C   UNL     1       1.857   9.441  17.687  0.00  0.00    +0.000 C 
ATOM     26  C   UNL     1       0.638   9.987  18.414  0.00  0.00    +0.000 C 
ENDBRANCH  24  26
ENDBRANCH  23  24
ENDBRANCH  22  23
ENDBRANCH  21  22
ENDBRANCH  20  21
ENDBRANCH   1  20
TORSDOF 9
ENDMDL
