MODEL 1
REMARK VINA RESULT:      -7.3      0.000      0.000
REMARK  Name = 
REMARK  11 active torsions:
REMARK  status: ('A' for Active; 'I' for Inactive)
REMARK    1  A    between atoms: C_1  and  C_2
REMARK    2  A    between atoms: C_2  and  O_3
REMARK    3  A    between atoms: O_3  and  C_4
REMARK    4  A    between atoms: C_4  and  C_5
REMARK    5  A    between atoms: C_5  and  N_6
REMARK    6  A    between atoms: N_9  and  C_10
REMARK    7  A    between atoms: C_13  and  C_14
REMARK    8  A    between atoms: C_15  and  C_16
REMARK    9  A    between atoms: C_17  and  C_18
REMARK   10  A    between atoms: C_21  and  C_22
REMARK   11  A    between atoms: C_22  and  C_23
REMARK                            x       y       z     vdW  Elec       q    Type
REMARK                         _______ _______ _______ _____ _____    ______ ____
ROOT
ATOM      1  N   UNL     1       6.699   5.802  15.398  0.00  0.00    +0.000 NA
ATOM      2  C   UNL     1       5.235   5.532  15.408  0.00  0.00    +0.000 C 
ATOM      3  C   UNL     1       4.771   4.366  16.319  0.00  0.00    +0.000 C 
ATOM      4  N   UNL     1       5.282   4.625  17.670  0.00  0.00    +0.000 N 
ATOM      5  C   UNL     1       6.751   4.702  17.715  0.00  0.00    +0.000 C 
ATOM      6  C   UNL     1       7.222   5.885  16.796  0.00  0.00    +0.000 C 
ENDROOT
BRANCH   4   7
ATOM      7  C   UNL     1       4.527   4.233  18.756  0.00  0.00    +0.000 A 
ATOM      8  N   UNL     1       4.728   3.006  19.286  0.00  0.00    +0.000 NA
ATOM      9  N   UNL     1       3.932   2.507  20.302  0.00  0.00    +0.000 NA
ATOM     10  C   UNL     1       2.880   3.214  20.763  0.00  0.00    +0.000 A 
ATOM     11  C   UNL     1       2.054   2.572  21.829  0.00  0.00    +0.000 C 
ATOM     12  C   UNL     1       2.588   4.465  20.242  0.00  0.00    +0.000 A 
ATOM     13  C   UNL     1       1.361   5.247  20.652  0.00  0.00    +0.000 C 
ATOM     14  C   UNL     1       3.447   4.983  19.246  0.00  0.00    +0.000 A 
BRANCH  14  15
ATOM     15  C   UNL     1       3.113   6.273  18.724  0.00  0.00    +0.000 C 
ATOM     16  N   UNL     1       2.971   7.319  18.236  0.00  0.00    +0.000 NA
ENDBRANCH  14  15
ENDBRANCH   4   7
BRANCH   6  17
ATOM     17  C   UNL     1       6.817   7.220  17.466  0.00  0.00    +0.000 C 
ATOM     18  C   UNL     1       7.942   8.188  17.777  0.00  0.00    +0.000 C 
ENDBRANCH   6  17
BRANCH   1  19
ATOM     19  C   UNL     1       7.457   4.810  14.611  0.00  0.00    +0.000 C 
BRANCH  19  20
ATOM     20  C   UNL     1       6.862   4.566  13.217  0.00  0.00    +0.000 C 
BRANCH  20  21
ATOM     21  O   UNL     1       6.210   3.294  13.184  0.00  0.00    +0.000 OA
BRANCH  21  23
ATOM     22  C   UNL     1       5.787   1.791  11.376  0.00  0.00    +0.000 C 
ATOM     23  C   UNL     1       5.469   3.145  11.974  0.00  0.00    +0.000 C 
ENDBRANCH  21  23
ENDBRANCH  20  21
ENDBRANCH  19  20
ENDBRANCH   1  19
TORSDOF 7
ENDMDL
MODEL 2
REMARK VINA RESULT:      -6.1      2.151      4.240
REMARK  Name = 
REMARK  11 active torsions:
REMARK  status: ('A' for Active; 'I' for Inactive)
REMARK    1  A    between atoms: C_1  and  C_2
REMARK    2  A    between atoms: C_2  and  O_3
REMARK    3  A    between atoms: O_3  and  C_4
REMARK    4  A    between atoms: C_4  and  C_5
REMARK    5  A    between atoms: C_5  and  N_6
REMARK    6  A    between atoms: N_9  and  C_10
REMARK    7  A    between atoms: C_13  and  C_14
REMARK    8  A    between atoms: C_15  and  C_16
REMARK    9  A    between atoms: C_17  and  C_18
REMARK   10  A    between atoms: C_21  and  C_22
REMARK   11  A    between atoms: C_22  and  C_23
REMARK                            x       y       z     vdW  Elec       q    Type
REMARK                         _______ _______ _______ _____ _____    ______ ____
ROOT
ATOM      1  N   UNL     1       5.856   4.306  17.351  0.00  0.00    +0.000 NA
ATOM      2  C   UNL     1       6.160   5.736  17.627  0.00  0.00    +0.000 C 
ATOM      3  C   UNL     1       5.081   6.755  17.177  0.00  0.00    +0.000 C 
ATOM      4  N   UNL     1       3.806   6.346  17.779  0.00  0.00    +0.000 N 
ATOM      5  C   UNL     1       3.387   4.999  17.361  0.00  0.00    +0.000 C 
ATOM      6  C   UNL     1       4.477   3.968  17.819  0.00  0.00    +0.000 C 
ENDROOT
BRANCH   4   7
ATOM      7  C   UNL     1       2.903   7.320  18.154  0.00  0.00    +0.000 A 
ATOM      8  N   UNL     1       2.799   8.441  17.407  0.00  0.00    +0.000 NA
ATOM      9  N   UNL     1       1.997   9.503  17.786  0.00  0.00    +0.000 NA
ATOM     10  C   UNL     1       1.329   9.478  18.957  0.00  0.00    +0.000 A 
ATOM     11  C   UNL     1       0.526  10.690  19.299  0.00  0.00    +0.000 C 
ATOM     12  C   UNL     1       1.416   8.377  19.795  0.00  0.00    +0.000 A 
ATOM     13  C   UNL     1       0.772   8.347  21.161  0.00  0.00    +0.000 C 
ATOM     14  C   UNL     1       2.193   7.278  19.363  0.00  0.00    +0.000 A 
BRANCH  14  15
ATOM     15  C   UNL     1       2.269   6.161  20.256  0.00  0.00    +0.000 C 
ATOM     16  N   UNL     1       2.230   5.323  21.061  0.00  0.00    +0.000 NA
ENDBRANCH  14  15
ENDBRANCH   4   7
BRANCH   6  17
ATOM     17  C   UNL     1       4.425   3.847  19.361  0.00  0.00    +0.000 C 
ATOM     18  C   UNL     1       4.397   2.442  19.929  0.00  0.00    +0.000 C 
ENDBRANCH   6  17
BRANCH   1  19
ATOM     19  C   UNL     1       6.032   3.950  15.929  0.00  0.00    +0.000 C 
BRANCH  19  20
ATOM     20  C   UNL     1       7.114   4.783  15.229  0.00  0.00    +0.000 C 
BRANCH  20  21
ATOM     21  O   UNL     1       6.971   4.668  13.810  0.00  0.00    +0.000 OA
BRANCH  21  23
ATOM     22  C   UNL     1       6.104   3.252  12.094  0.00  0.00    +0.000 C 
ATOM     23  C   UNL     1       5.885   3.801  13.487  0.00  0.00    +0.000 C 
ENDBRANCH  21  23
ENDBRANCH  20  21
ENDBRANCH  19  20
ENDBRANCH   1  19
TORSDOF 7
ENDMDL
MODEL 3
REMARK VINA RESULT:      -6.0      2.527      4.756
REMARK  Name = 
REMARK  11 active torsions:
REMARK  status: ('A' for Active; 'I' for Inactive)
REMARK    1  A    between atoms: C_1  and  C_2
REMARK    2  A    between atoms: C_2  and  O_3
REMARK    3  A    between atoms: O_3  and  C_4
REMARK    4  A    between atoms: C_4  and  C_5
REMARK    5  A    between atoms: C_5  and  N_6
REMARK    6  A    between atoms: N_9  and  C_10
REMARK    7  A    between atoms: C_13  and  C_14
REMARK    8  A    between atoms: C_15  and  C_16
REMARK    9  A    between atoms: C_17  and  C_18
REMARK   10  A    between atoms: C_21  and  C_22
REMARK   11  A    between atoms: C_22  and  C_23
REMARK                            x       y       z     vdW  Elec       q    Type
REMARK                         _______ _______ _______ _____ _____    ______ ____
ROOT
ATOM      1  N   UNL     1       7.528   6.549  17.011  0.00  0.00    +0.000 NA
ATOM      2  C   UNL     1       7.502   5.738  18.259  0.00  0.00    +0.000 C 
ATOM      3  C   UNL     1       6.111   5.565  18.923  0.00  0.00    +0.000 C 
ATOM      4  N   UNL     1       5.198   5.027  17.908  0.00  0.00    +0.000 N 
ATOM      5  C   UNL     1       5.057   5.914  16.743  0.00  0.00    +0.000 C 
ATOM      6  C   UNL     1       6.464   6.086  16.069  0.00  0.00    +0.000 C 
ENDROOT
BRANCH   4   7
ATOM      7  C   UNL     1       4.200   4.157  18.303  0.00  0.00    +0.000 A 
ATOM      8  N   UNL     1       4.215   2.888  17.839  0.00  0.00    +0.000 NA
ATOM      9  N   UNL     1       3.189   2.000  18.104  0.00  0.00    +0.000 NA
ATOM     10  C   UNL     1       2.099   2.392  18.794  0.00  0.00    +0.000 A 
ATOM     11  C   UNL     1       1.024   1.373  18.990  0.00  0.00    +0.000 C 
ATOM     12  C   UNL     1       1.994   3.690  19.270  0.00  0.00    +0.000 A 
ATOM     13  C   UNL     1       0.750   4.204  19.955  0.00  0.00    +0.000 C 
ATOM     14  C   UNL     1       3.079   4.566  19.040  0.00  0.00    +0.000 A 
BRANCH  14  15
ATOM     15  C   UNL     1       2.936   5.902  19.537  0.00  0.00    +0.000 C 
ATOM     16  N   UNL     1       2.841   7.029  19.804  0.00  0.00    +0.000 NA
ENDBRANCH  14  15
ENDBRANCH   4   7
BRANCH   6  17
ATOM     17  C   UNL     1       6.855   4.748  15.398  0.00  0.00    +0.000 C 
ATOM     18  C   UNL     1       5.846   4.153  14.435  0.00  0.00    +0.000 C 
ENDBRANCH   6  17
BRANCH   1  19
ATOM     19  C   UNL     1       7.409   7.997  17.270  0.00  0.00    +0.000 C 
BRANCH  19  20
ATOM     20  C   UNL     1       8.459   8.520  18.259  0.00  0.00    +0.000 C 
BRANCH  20  21
ATOM     21  O   UNL     1       8.300   9.931  18.433  0.00  0.00    +0.000 OA
BRANCH  21  23
ATOM     22  C   UNL     1      10.285  11.227  18.147  0.00  0.00    +0.000 C 
ATOM     23  C   UNL     1       9.417  10.476  19.134  0.00  0.00    +0.000 C 
ENDBRANCH  21  23
ENDBRANCH  20  21
ENDBRANCH  19  20
ENDBRANCH   1  19
TORSDOF 7
ENDMDL
MODEL 4
REMARK VINA RESULT:      -5.9      1.903      4.019
REMARK  Name = 
REMARK  11 active torsions:
REMARK  status: ('A' for Active; 'I' for Inactive)
REMARK    1  A    between atoms: C_1  and  C_2
REMARK    2  A    between atoms: C_2  and  O_3
REMARK    3  A    between atoms: O_3  and  C_4
REMARK    4  A    between atoms: C_4  and  C_5
REMARK    5  A    between atoms: C_5  and  N_6
REMARK    6  A    between atoms: N_9  and  C_10
REMARK    7  A    between atoms: C_13  and  C_14
REMARK    8  A    between atoms: C_15  and  C_16
REMARK    9  A    between atoms: C_17  and  C_18
REMARK   10  A    between atoms: C_21  and  C_22
REMARK   11  A    between atoms: C_22  and  C_23
REMARK                            x       y       z     vdW  Elec       q    Type
REMARK                         _______ _______ _______ _____ _____    ______ ____
ROOT
ATOM      1  N   UNL     1       6.402   4.395  16.800  0.00  0.00    +0.000 NA
ATOM      2  C   UNL     1       6.590   5.557  17.712  0.00  0.00    +0.000 C 
ATOM      3  C   UNL     1       5.691   6.788  17.430  0.00  0.00    +0.000 C 
ATOM      4  N   UNL     1       4.297   6.328  17.419  0.00  0.00    +0.000 N 
ATOM      5  C   UNL     1       4.042   5.312  16.386  0.00  0.00    +0.000 C 
ATOM      6  C   UNL     1       4.950   4.064  16.673  0.00  0.00    +0.000 C 
ENDROOT
BRANCH   4   7
ATOM      7  C   UNL     1       3.311   7.175  17.885  0.00  0.00    +0.000 A 
ATOM      8  N   UNL     1       3.077   8.332  17.228  0.00  0.00    +0.000 NA
ATOM      9  N   UNL     1       2.183   9.276  17.702  0.00  0.00    +0.000 NA
ATOM     10  C   UNL     1       1.552   9.096  18.880  0.00  0.00    +0.000 A 
ATOM     11  C   UNL     1       0.641  10.191  19.328  0.00  0.00    +0.000 C 
ATOM     12  C   UNL     1       1.769   7.950  19.629  0.00  0.00    +0.000 A 
ATOM     13  C   UNL     1       1.167   7.753  21.001  0.00  0.00    +0.000 C 
ATOM     14  C   UNL     1       2.640   6.971  19.100  0.00  0.00    +0.000 A 
BRANCH  14  15
ATOM     15  C   UNL     1       2.850   5.804  19.903  0.00  0.00    +0.000 C 
ATOM     16  N   UNL     1       2.900   4.804  20.493  0.00  0.00    +0.000 NA
ENDBRANCH  14  15
ENDBRANCH   4   7
BRANCH   6  17
ATOM     17  C   UNL     1       4.425   3.355  17.945  0.00  0.00    +0.000 C 
ATOM     18  C   UNL     1       3.189   2.493  17.777  0.00  0.00    +0.000 C 
ENDBRANCH   6  17
BRANCH   1  19
ATOM     19  C   UNL     1       7.011   4.608  15.473  0.00  0.00    +0.000 C 
BRANCH  19  20
ATOM     20  C   UNL     1       6.240   3.918  14.339  0.00  0.00    +0.000 C 
BRANCH  20  21
ATOM     21  O   UNL     1       6.895   4.161  13.090  0.00  0.00    +0.000 OA
BRANCH  21  23
ATOM     22  C   UNL     1       4.839   3.421  12.127  0.00  0.00    +0.000 C 
ATOM     23  C   UNL     1       6.348   3.327  12.070  0.00  0.00    +0.000 C 
ENDBRANCH  21  23
ENDBRANCH  20  21
ENDBRANCH  19  20
ENDBRANCH   1  19
TORSDOF 7
ENDMDL
MODEL 5
REMARK VINA RESULT:      -5.8      0.838      1.093
REMARK  Name = 
REMARK  11 active torsions:
REMARK  status: ('A' for Active; 'I' for Inactive)
REMARK    1  A    between atoms: C_1  and  C_2
REMARK    2  A    between atoms: C_2  and  O_3
REMARK    3  A    between atoms: O_3  and  C_4
REMARK    4  A    between atoms: C_4  and  C_5
REMARK    5  A    between atoms: C_5  and  N_6
REMARK    6  A    between atoms: N_9  and  C_10
REMARK    7  A    between atoms: C_13  and  C_14
REMARK    8  A    between atoms: C_15  and  C_16
REMARK    9  A    between atoms: C_17  and  C_18
REMARK   10  A    between atoms: C_21  and  C_22
REMARK   11  A    between atoms: C_22  and  C_23
REMARK                            x       y       z     vdW  Elec       q    Type
REMARK                         _______ _______ _______ _____ _____    ______ ____
ROOT
ATOM      1  N   UNL     1       6.633   5.656  15.485  0.00  0.00    +0.000 NA
ATOM      2  C   UNL     1       5.154   5.494  15.503  0.00  0.00    +0.000 C 
ATOM      3  C   UNL     1       4.610   4.357  16.407  0.00  0.00    +0.000 C 
ATOM      4  N   UNL     1       5.148   4.566  17.756  0.00  0.00    +0.000 N 
ATOM      5  C   UNL     1       6.619   4.534  17.792  0.00  0.00    +0.000 C 
ATOM      6  C   UNL     1       7.169   5.688  16.880  0.00  0.00    +0.000 C 
ENDROOT
BRANCH   4   7
ATOM      7  C   UNL     1       4.373   4.220  18.845  0.00  0.00    +0.000 A 
ATOM      8  N   UNL     1       4.465   2.968  19.344  0.00  0.00    +0.000 NA
ATOM      9  N   UNL     1       3.639   2.521  20.360  0.00  0.00    +0.000 NA
ATOM     10  C   UNL     1       2.664   3.312  20.852  0.00  0.00    +0.000 A 
ATOM     11  C   UNL     1       1.795   2.725  21.915  0.00  0.00    +0.000 C 
ATOM     12  C   UNL     1       2.483   4.597  20.363  0.00  0.00    +0.000 A 
ATOM     13  C   UNL     1       1.340   5.479  20.809  0.00  0.00    +0.000 C 
ATOM     14  C   UNL     1       3.375   5.056  19.367  0.00  0.00    +0.000 A 
BRANCH  14  15
ATOM     15  C   UNL     1       3.155   6.384  18.878  0.00  0.00    +0.000 C 
ATOM     16  N   UNL     1       3.023   7.412  18.353  0.00  0.00    +0.000 NA
ENDBRANCH  14  15
ENDBRANCH   4   7
BRANCH   6  17
ATOM     17  C   UNL     1       6.868   7.043  17.564  0.00  0.00    +0.000 C 
ATOM     18  C   UNL     1       8.063   7.815  18.090  0.00  0.00    +0.000 C 
ENDBRANCH   6  17
BRANCH   1  19
ATOM     19  C   UNL     1       7.311   4.618  14.684  0.00  0.00    +0.000 C 
BRANCH  19  20
ATOM     20  C   UNL     1       6.402   3.992  13.617  0.00  0.00    +0.000 C 
BRANCH  20  21
ATOM     21  O   UNL     1       7.197   3.465  12.552  0.00  0.00    +0.000 OA
BRANCH  21  23
ATOM     22  C   UNL     1       7.818   5.674  11.889  0.00  0.00    +0.000 C 
ATOM     23  C   UNL     1       7.204   4.364  11.444  0.00  0.00    +0.000 C 
ENDBRANCH  21  23
ENDBRANCH  20  21
ENDBRANCH  19  20
ENDBRANCH   1  19
TORSDOF 7
ENDMDL
MODEL 6
REMARK VINA RESULT:      -5.7      2.476      4.760
REMARK  Name = 
REMARK  11 active torsions:
REMARK  status: ('A' for Active; 'I' for Inactive)
REMARK    1  A    between atoms: C_1  and  C_2
REMARK    2  A    between atoms: C_2  and  O_3
REMARK    3  A    between atoms: O_3  and  C_4
REMARK    4  A    between atoms: C_4  and  C_5
REMARK    5  A    between atoms: C_5  and  N_6
REMARK    6  A    between atoms: N_9  and  C_10
REMARK    7  A    between atoms: C_13  and  C_14
REMARK    8  A    between atoms: C_15  and  C_16
REMARK    9  A    between atoms: C_17  and  C_18
REMARK   10  A    between atoms: C_21  and  C_22
REMARK   11  A    between atoms: C_22  and  C_23
REMARK                            x       y       z     vdW  Elec       q    Type
REMARK                         _______ _______ _______ _____ _____    ______ ____
ROOT
ATOM      1  N   UNL     1       7.619   6.625  17.077  0.00  0.00    +0.000 NA
ATOM      2  C   UNL     1       7.853   5.938  18.376  0.00  0.00    +0.000 C 
ATOM      3  C   UNL     1       6.652   5.918  19.355  0.00  0.00    +0.000 C 
ATOM      4  N   UNL     1       5.504   5.346  18.640  0.00  0.00    +0.000 N 
ATOM      5  C   UNL     1       5.130   6.128  17.451  0.00  0.00    +0.000 C 
ATOM      6  C   UNL     1       6.345   6.145  16.457  0.00  0.00    +0.000 C 
ENDROOT
BRANCH   4   7
ATOM      7  C   UNL     1       4.593   4.584  19.342  0.00  0.00    +0.000 A 
ATOM      8  N   UNL     1       4.881   3.289  19.600  0.00  0.00    +0.000 NA
ATOM      9  N   UNL     1       3.968   2.440  20.199  0.00  0.00    +0.000 NA
ATOM     10  C   UNL     1       2.724   2.867  20.497  0.00  0.00    +0.000 A 
ATOM     11  C   UNL     1       1.796   1.864  21.101  0.00  0.00    +0.000 C 
ATOM     12  C   UNL     1       2.342   4.172  20.228  0.00  0.00    +0.000 A 
ATOM     13  C   UNL     1       0.931   4.664  20.448  0.00  0.00    +0.000 C 
ATOM     14  C   UNL     1       3.308   5.040  19.670  0.00  0.00    +0.000 A 
BRANCH  14  15
ATOM     15  C   UNL     1       2.878   6.379  19.397  0.00  0.00    +0.000 C 
ATOM     16  N   UNL     1       2.447   7.453  19.293  0.00  0.00    +0.000 NA
ENDBRANCH  14  15
ENDBRANCH   4   7
BRANCH   6  17
ATOM     17  C   UNL     1       6.514   4.728  15.860  0.00  0.00    +0.000 C 
ATOM     18  C   UNL     1       5.242   4.006  15.463  0.00  0.00    +0.000 C 
ENDBRANCH   6  17
BRANCH   1  19
ATOM     19  C   UNL     1       7.622   8.096  17.201  0.00  0.00    +0.000 C 
BRANCH  19  20
ATOM     20  C   UNL     1       8.496   8.601  18.358  0.00  0.00    +0.000 C 
BRANCH  20  21
ATOM     21  O   UNL     1       8.779   9.991  18.180  0.00  0.00    +0.000 OA
BRANCH  21  23
ATOM     22  C   UNL     1      10.601  11.366  18.881  0.00  0.00    +0.000 C 
ATOM     23  C   UNL     1       9.432  10.518  19.334  0.00  0.00    +0.000 C 
ENDBRANCH  21  23
ENDBRANCH  20  21
ENDBRANCH  19  20
ENDBRANCH   1  19
TORSDOF 7
ENDMDL
MODEL 7
REMARK VINA RESULT:      -5.7      2.133      3.873
REMARK  Name = 
REMARK  11 active torsions:
REMARK  status: ('A' for Active; 'I' for Inactive)
REMARK    1  A    between atoms: C_1  and  C_2
REMARK    2  A    between atoms: C_2  and  O_3
REMARK    3  A    between atoms: O_3  and  C_4
REMARK    4  A    between atoms: C_4  and  C_5
REMARK    5  A    between atoms: C_5  and  N_6
REMARK    6  A    between atoms: N_9  and  C_10
REMARK    7  A    between atoms: C_13  and  C_14
REMARK    8  A    between atoms: C_15  and  C_16
REMARK    9  A    between atoms: C_17  and  C_18
REMARK   10  A    between atoms: C_21  and  C_22
REMARK   11  A    between atoms: C_22  and  C_23
REMARK                            x       y       z     vdW  Elec       q    Type
REMARK                         _______ _______ _______ _____ _____    ______ ____
ROOT
ATOM      1  N   UNL     1       6.081   4.660  16.925  0.00  0.00    +0.000 NA
ATOM      2  C   UNL     1       6.065   6.104  16.566  0.00  0.00    +0.000 C 
ATOM      3  C   UNL     1       4.663   6.733  16.363  0.00  0.00    +0.000 C 
ATOM      4  N   UNL     1       3.876   6.468  17.573  0.00  0.00    +0.000 N 
ATOM      5  C   UNL     1       3.713   5.030  17.841  0.00  0.00    +0.000 C 
ATOM      6  C   UNL     1       5.133   4.394  18.050  0.00  0.00    +0.000 C 
ENDROOT
BRANCH   4   7
ATOM      7  C   UNL     1       2.955   7.408  17.990  0.00  0.00    +0.000 A 
ATOM      8  N   UNL     1       2.797   8.538  17.265  0.00  0.00    +0.000 NA
ATOM      9  N   UNL     1       1.975   9.568  17.685  0.00  0.00    +0.000 NA
ATOM     10  C   UNL     1       1.342   9.503  18.873  0.00  0.00    +0.000 A 
ATOM     11  C   UNL     1       0.512  10.685  19.258  0.00  0.00    +0.000 C 
ATOM     12  C   UNL     1       1.485   8.392  19.690  0.00  0.00    +0.000 A 
ATOM     13  C   UNL     1       0.881   8.320  21.073  0.00  0.00    +0.000 C 
ATOM     14  C   UNL     1       2.282   7.325  19.218  0.00  0.00    +0.000 A 
BRANCH  14  15
ATOM     15  C   UNL     1       2.417   6.196  20.089  0.00  0.00    +0.000 C 
ATOM     16  N   UNL     1       2.391   5.309  20.840  0.00  0.00    +0.000 NA
ENDBRANCH  14  15
ENDBRANCH   4   7
BRANCH   6  17
ATOM     17  C   UNL     1       5.706   4.900  19.395  0.00  0.00    +0.000 C 
ATOM     18  C   UNL     1       7.134   5.409  19.373  0.00  0.00    +0.000 C 
ENDBRANCH   6  17
BRANCH   1  19
ATOM     19  C   UNL     1       5.791   3.782  15.775  0.00  0.00    +0.000 C 
BRANCH  19  20
ATOM     20  C   UNL     1       6.472   4.245  14.478  0.00  0.00    +0.000 C 
BRANCH  20  21
ATOM     21  O   UNL     1       5.628   3.959  13.360  0.00  0.00    +0.000 OA
BRANCH  21  23
ATOM     22  C   UNL     1       5.584   2.326  11.618  0.00  0.00    +0.000 C 
ATOM     23  C   UNL     1       6.393   3.419  12.284  0.00  0.00    +0.000 C 
ENDBRANCH  21  23
ENDBRANCH  20  21
ENDBRANCH  19  20
ENDBRANCH   1  19
TORSDOF 7
ENDMDL
MODEL 8
REMARK VINA RESULT:      -5.5      3.372      5.823
REMARK  Name = 
REMARK  11 active torsions:
REMARK  status: ('A' for Active; 'I' for Inactive)
REMARK    1  A    between atoms: C_1  and  C_2
REMARK    2  A    between atoms: C_2  and  O_3
REMARK    3  A    between atoms: O_3  and  C_4
REMARK    4  A    between atoms: C_4  and  C_5
REMARK    5  A    between atoms: C_5  and  N_6
REMARK    6  A    between atoms: N_9  and  C_10
REMARK    7  A    between atoms: C_13  and  C_14
REMARK    8  A    between atoms: C_15  and  C_16
REMARK    9  A    between atoms: C_17  and  C_18
REMARK   10  A    between atoms: C_21  and  C_22
REMARK   11  A    between atoms: C_22  and  C_23
REMARK                            x       y       z     vdW  Elec       q    Type
REMARK                         _______ _______ _______ _____ _____    ______ ____
ROOT
ATOM      1  N   UNL     1       3.439   4.446  17.732  0.00  0.00    +0.000 NA
ATOM      2  C   UNL     1       2.001   4.828  17.759  0.00  0.00    +0.000 C 
ATOM      3  C   UNL     1       1.473   5.372  19.111  0.00  0.00    +0.000 C 
ATOM      4  N   UNL     1       2.337   6.490  19.510  0.00  0.00    +0.000 N 
ATOM      5  C   UNL     1       3.743   6.087  19.680  0.00  0.00    +0.000 C 
ATOM      6  C   UNL     1       4.279   5.540  18.310  0.00  0.00    +0.000 C 
ENDROOT
BRANCH   4   7
ATOM      7  C   UNL     1       1.782   7.552  20.195  0.00  0.00    +0.000 A 
ATOM      8  N   UNL     1       1.319   7.353  21.449  0.00  0.00    +0.000 NA
ATOM      9  N   UNL     1       0.653   8.342  22.149  0.00  0.00    +0.000 NA
ATOM     10  C   UNL     1       0.389   9.534  21.575  0.00  0.00    +0.000 A 
ATOM     11  C   UNL     1      -0.376  10.520  22.395  0.00  0.00    +0.000 C 
ATOM     12  C   UNL     1       0.799   9.798  20.277  0.00  0.00    +0.000 A 
ATOM     13  C   UNL     1       0.435  11.076  19.557  0.00  0.00    +0.000 C 
ATOM     14  C   UNL     1       1.530   8.796  19.599  0.00  0.00    +0.000 A 
BRANCH  14  15
ATOM     15  C   UNL     1       1.932   9.098  18.258  0.00  0.00    +0.000 C 
ATOM     16  N   UNL     1       2.149   9.257  17.127  0.00  0.00    +0.000 NA
ENDBRANCH  14  15
ENDBRANCH   4   7
BRANCH   6  17
ATOM     17  C   UNL     1       4.410   6.724  17.323  0.00  0.00    +0.000 C 
ATOM     18  C   UNL     1       5.108   6.435  16.009  0.00  0.00    +0.000 C 
ENDBRANCH   6  17
BRANCH   1  19
ATOM     19  C   UNL     1       3.701   3.164  18.415  0.00  0.00    +0.000 C 
BRANCH  19  20
ATOM     20  C   UNL     1       2.619   2.108  18.150  0.00  0.00    +0.000 C 
BRANCH  20  21
ATOM     21  O   UNL     1       1.882   1.859  19.350  0.00  0.00    +0.000 OA
BRANCH  21  23
ATOM     22  C   UNL     1       1.611   2.607  21.602  0.00  0.00    +0.000 C 
ATOM     23  C   UNL     1       2.598   2.342  20.485  0.00  0.00    +0.000 C 
ENDBRANCH  21  23
ENDBRANCH  20  21
ENDBRANCH  19  20
ENDBRANCH   1  19
TORSDOF 7
ENDMDL
MODEL 9
REMARK VINA RESULT:      -5.5      2.542      6.612
REMARK  Name = 
REMARK  11 active torsions:
REMARK  status: ('A' for Active; 'I' for Inactive)
REMARK    1  A    between atoms: C_1  and  C_2
REMARK    2  A    between atoms: C_2  and  O_3
REMARK    3  A    between atoms: O_3  and  C_4
REMARK    4  A    between atoms: C_4  and  C_5
REMARK    5  A    between atoms: C_5  and  N_6
REMARK    6  A    between atoms: N_9  and  C_10
REMARK    7  A    between atoms: C_13  and  C_14
REMARK    8  A    between atoms: C_15  and  C_16
REMARK    9  A    between atoms: C_17  and  C_18
REMARK   10  A    between atoms: C_21  and  C_22
REMARK   11  A    between atoms: C_22  and  C_23
REMARK                            x       y       z     vdW  Elec       q    Type
REMARK                         _______ _______ _______ _____ _____    ______ ____
ROOT
ATOM      1  N   UNL     1       3.824   5.556  19.658  0.00  0.00    +0.000 NA
ATOM      2  C   UNL     1       5.259   5.358  19.315  0.00  0.00    +0.000 C 
ATOM      3  C   UNL     1       5.544   4.384  18.143  0.00  0.00    +0.000 C 
ATOM      4  N   UNL     1       4.769   4.845  16.984  0.00  0.00    +0.000 N 
ATOM      5  C   UNL     1       3.320   4.862  17.241  0.00  0.00    +0.000 C 
ATOM      6  C   UNL     1       3.031   5.850  18.425  0.00  0.00    +0.000 C 
ENDROOT
BRANCH   4   7
ATOM      7  C   UNL     1       5.295   4.675  15.719  0.00  0.00    +0.000 A 
ATOM      8  N   UNL     1       4.740   3.760  14.895  0.00  0.00    +0.000 NA
ATOM      9  N   UNL     1       5.285   3.461  13.659  0.00  0.00    +0.000 NA
ATOM     10  C   UNL     1       6.435   4.038  13.256  0.00  0.00    +0.000 A 
ATOM     11  C   UNL     1       6.968   3.617  11.925  0.00  0.00    +0.000 C 
ATOM     12  C   UNL     1       7.084   4.959  14.064  0.00  0.00    +0.000 A 
ATOM     13  C   UNL     1       8.425   5.551  13.700  0.00  0.00    +0.000 C 
ATOM     14  C   UNL     1       6.480   5.296  15.297  0.00  0.00    +0.000 A 
BRANCH  14  15
ATOM     15  C   UNL     1       7.180   6.244  16.111  0.00  0.00    +0.000 C 
ATOM     16  N   UNL     1       7.626   7.091  16.769  0.00  0.00    +0.000 NA
ENDBRANCH  14  15
ENDBRANCH   4   7
BRANCH   6  17
ATOM     17  C   UNL     1       3.279   7.296  17.933  0.00  0.00    +0.000 C 
ATOM     18  C   UNL     1       2.151   8.287  18.147  0.00  0.00    +0.000 C 
ENDBRANCH   6  17
BRANCH   1  19
ATOM     19  C   UNL     1       3.250   4.413  20.393  0.00  0.00    +0.000 C 
BRANCH  19  20
ATOM     20  C   UNL     1       1.918   4.746  21.081  0.00  0.00    +0.000 C 
BRANCH  20  21
ATOM     21  O   UNL     1       0.859   4.003  20.472  0.00  0.00    +0.000 OA
BRANCH  21  23
ATOM     22  C   UNL     1       0.745   2.428  18.680  0.00  0.00    +0.000 C 
ATOM     23  C   UNL     1       1.329   2.725  20.045  0.00  0.00    +0.000 C 
ENDBRANCH  21  23
ENDBRANCH  20  21
ENDBRANCH  19  20
ENDBRANCH   1  19
TORSDOF 7
ENDMDL
