MODEL 1
REMARK VINA RESULT:      -8.2      0.000      0.000
REMARK  Name = 
REMARK  7 active torsions:
REMARK  status: ('A' for Active; 'I' for Inactive)
REMARK    1  A    between atoms: C_1  and  C_2
REMARK    2  A    between atoms: C_2  and  O_3
REMARK    3  A    between atoms: O_3  and  C_4
REMARK    4  A    between atoms: C_4  and  C_6
REMARK    5  A    between atoms: C_6  and  N_7
REMARK    6  A    between atoms: C_8  and  C_10
REMARK    7  A    between atoms: C_12  and  C_13
REMARK                            x       y       z     vdW  Elec       q    Type
REMARK                         _______ _______ _______ _____ _____    ______ ____
ROOT
ATOM      1  C   UNL     1       4.099   4.846  19.112  0.00  0.00    +0.000 A 
ATOM      2  C   UNL     1       3.655   6.089  18.848  0.00  0.00    +0.000 A 
ATOM      3  C   UNL     1       2.455   6.549  19.620  0.00  0.00    +0.000 A 
ATOM      4  N   UNL     1       1.814   5.814  20.484  0.00  0.00    +0.000 NA
ATOM      5  C   UNL     1       2.290   4.555  20.707  0.00  0.00    +0.000 A 
ATOM      6  N   UNL     1       1.827   3.625  21.514  0.00  0.00    +0.000 NA
ATOM      7  C   UNL     1       2.676   2.584  21.325  0.00  0.00    +0.000 A 
ATOM      8  N   UNL     1       3.659   2.785  20.448  0.00  0.00    +0.000 NA
ATOM      9  N   UNL     1       3.417   4.067  20.040  0.00  0.00    +0.000 N 
ENDROOT
BRANCH   3  10
ATOM     10  C   UNL     1       1.962   7.934  19.345  0.00  0.00    +0.000 A 
ATOM     11  C   UNL     1       1.274   8.612  20.362  0.00  0.00    +0.000 A 
ATOM     12  C   UNL     1       0.785   9.903  20.147  0.00  0.00    +0.000 A 
ATOM     13  C   UNL     1       0.984  10.528  18.918  0.00  0.00    +0.000 A 
ATOM     14  C   UNL     1       1.685   9.871  17.908  0.00  0.00    +0.000 A 
ATOM     15  C   UNL     1       2.180   8.581  18.120  0.00  0.00    +0.000 A 
ENDBRANCH   3  10
BRANCH   1  17
ATOM     16  N   UNL     1       5.128   4.177  17.022  0.00  0.00    +0.000 N 
ATOM     17  C   UNL     1       5.306   4.386  18.366  0.00  0.00    +0.000 C 
ATOM     18  O   UNL     1       6.381   4.215  18.929  0.00  0.00    +0.000 OA
ATOM     19  H   UNL     1       4.255   4.484  16.591  0.00  0.00    +0.000 HD
BRANCH  16  20
ATOM     20  C   UNL     1       6.248   3.887  16.141  0.00  0.00    +0.000 C 
BRANCH  20  21
ATOM     21  C   UNL     1       6.881   5.119  15.501  0.00  0.00    +0.000 C 
ATOM     22  O   UNL     1       7.426   6.008  16.146  0.00  0.00    +0.000 OA
BRANCH  21  23
ATOM     23  O   UNL     1       6.714   5.127  14.148  0.00  0.00    +0.000 OA
BRANCH  23  25
ATOM     24  C   UNL     1       6.744   3.729  12.215  0.00  0.00    +0.000 C 
ATOM     25  C   UNL     1       6.142   3.936  13.594  0.00  0.00    +0.000 C 
ENDBRANCH  23  25
ENDBRANCH  21  23
ENDBRANCH  20  21
ENDBRANCH  16  20
ENDBRANCH   1  17
TORSDOF 6
ENDMDL
MODEL 2
REMARK VINA RESULT:      -8.2      2.737      7.181
REMARK  Name = 
REMARK  7 active torsions:
REMARK  status: ('A' for Active; 'I' for Inactive)
REMARK    1  A    between atoms: C_1  and  C_2
REMARK    2  A    between atoms: C_2  and  O_3
REMARK    3  A    between atoms: O_3  and  C_4
REMARK    4  A    between atoms: C_4  and  C_6
REMARK    5  A    between atoms: C_6  and  N_7
REMARK    6  A    between atoms: C_8  and  C_10
REMARK    7  A    between atoms: C_12  and  C_13
REMARK                            x       y       z     vdW  Elec       q    Type
REMARK                         _______ _______ _______ _____ _____    ______ ____
ROOT
ATOM      1  C   UNL     1       4.990   4.116  17.528  0.00  0.00    +0.000 A 
ATOM      2  C   UNL     1       5.177   4.014  16.199  0.00  0.00    +0.000 A 
ATOM      3  C   UNL     1       6.471   4.550  15.662  0.00  0.00    +0.000 A 
ATOM      4  N   UNL     1       7.383   5.127  16.392  0.00  0.00    +0.000 NA
ATOM      5  C   UNL     1       7.143   5.223  17.731  0.00  0.00    +0.000 A 
ATOM      6  N   UNL     1       7.891   5.757  18.671  0.00  0.00    +0.000 NA
ATOM      7  C   UNL     1       7.163   5.582  19.802  0.00  0.00    +0.000 A 
ATOM      8  N   UNL     1       5.991   4.965  19.650  0.00  0.00    +0.000 NA
ATOM      9  N   UNL     1       5.969   4.726  18.305  0.00  0.00    +0.000 N 
ENDROOT
BRANCH   3  10
ATOM     10  C   UNL     1       6.696   4.428  14.188  0.00  0.00    +0.000 A 
ATOM     11  C   UNL     1       7.613   5.296  13.579  0.00  0.00    +0.000 A 
ATOM     12  C   UNL     1       7.847   5.228  12.204  0.00  0.00    +0.000 A 
ATOM     13  C   UNL     1       7.171   4.288  11.428  0.00  0.00    +0.000 A 
ATOM     14  C   UNL     1       6.273   3.407  12.028  0.00  0.00    +0.000 A 
ATOM     15  C   UNL     1       6.040   3.469  13.404  0.00  0.00    +0.000 A 
ENDBRANCH   3  10
BRANCH   1  17
ATOM     16  N   UNL     1       3.828   2.870  19.252  0.00  0.00    +0.000 N 
ATOM     17  C   UNL     1       3.716   3.567  18.076  0.00  0.00    +0.000 C 
ATOM     18  O   UNL     1       2.645   3.741  17.505  0.00  0.00    +0.000 OA
ATOM     19  H   UNL     1       4.718   2.894  19.751  0.00  0.00    +0.000 HD
BRANCH  16  20
ATOM     20  C   UNL     1       2.657   2.419  19.986  0.00  0.00    +0.000 C 
BRANCH  20  21
ATOM     21  C   UNL     1       2.332   3.250  21.224  0.00  0.00    +0.000 C 
ATOM     22  O   UNL     1       1.733   2.803  22.197  0.00  0.00    +0.000 OA
BRANCH  21  23
ATOM     23  O   UNL     1       2.737   4.544  21.084  0.00  0.00    +0.000 OA
BRANCH  23  25
ATOM     24  C   UNL     1       2.378   6.516  19.791  0.00  0.00    +0.000 C 
ATOM     25  C   UNL     1       1.720   5.462  20.665  0.00  0.00    +0.000 C 
ENDBRANCH  23  25
ENDBRANCH  21  23
ENDBRANCH  20  21
ENDBRANCH  16  20
ENDBRANCH   1  17
TORSDOF 6
ENDMDL
MODEL 3
REMARK VINA RESULT:      -8.1      2.779      7.148
REMARK  Name = 
REMARK  7 active torsions:
REMARK  status: ('A' for Active; 'I' for Inactive)
REMARK    1  A    between atoms: C_1  and  C_2
REMARK    2  A    between atoms: C_2  and  O_3
REMARK    3  A    between atoms: O_3  and  C_4
REMARK    4  A    between atoms: C_4  and  C_6
REMARK    5  A    between atoms: C_6  and  N_7
REMARK    6  A    between atoms: C_8  and  C_10
REMARK    7  A    between atoms: C_12  and  C_13
REMARK                            x       y       z     vdW  Elec       q    Type
REMARK                         _______ _______ _______ _____ _____    ______ ____
ROOT
ATOM      1  C   UNL     1       5.064   4.041  17.506  0.00  0.00    +0.000 A 
ATOM      2  C   UNL     1       5.256   3.972  16.175  0.00  0.00    +0.000 A 
ATOM      3  C   UNL     1       6.522   4.579  15.649  0.00  0.00    +0.000 A 
ATOM      4  N   UNL     1       7.406   5.186  16.389  0.00  0.00    +0.000 NA
ATOM      5  C   UNL     1       7.161   5.247  17.730  0.00  0.00    +0.000 A 
ATOM      6  N   UNL     1       7.883   5.801  18.679  0.00  0.00    +0.000 NA
ATOM      7  C   UNL     1       7.164   5.571  19.806  0.00  0.00    +0.000 A 
ATOM      8  N   UNL     1       6.023   4.900  19.643  0.00  0.00    +0.000 NA
ATOM      9  N   UNL     1       6.013   4.684  18.294  0.00  0.00    +0.000 N 
ENDROOT
BRANCH   3  10
ATOM     10  C   UNL     1       6.753   4.493  14.174  0.00  0.00    +0.000 A 
ATOM     11  C   UNL     1       6.040   3.533  13.441  0.00  0.00    +0.000 A 
ATOM     12  C   UNL     1       6.232   3.408  12.063  0.00  0.00    +0.000 A 
ATOM     13  C   UNL     1       7.131   4.245  11.406  0.00  0.00    +0.000 A 
ATOM     14  C   UNL     1       7.828   5.217  12.122  0.00  0.00    +0.000 A 
ATOM     15  C   UNL     1       7.636   5.348  13.500  0.00  0.00    +0.000 A 
ENDBRANCH   3  10
BRANCH   1  17
ATOM     16  N   UNL     1       3.911   2.909  19.313  0.00  0.00    +0.000 N 
ATOM     17  C   UNL     1       3.818   3.422  18.043  0.00  0.00    +0.000 C 
ATOM     18  O   UNL     1       2.784   3.386  17.385  0.00  0.00    +0.000 OA
ATOM     19  H   UNL     1       4.749   3.108  19.860  0.00  0.00    +0.000 HD
BRANCH  16  20
ATOM     20  C   UNL     1       2.741   2.424  20.026  0.00  0.00    +0.000 C 
BRANCH  20  21
ATOM     21  C   UNL     1       2.188   3.396  21.063  0.00  0.00    +0.000 C 
ATOM     22  O   UNL     1       2.381   3.277  22.269  0.00  0.00    +0.000 OA
BRANCH  21  23
ATOM     23  O   UNL     1       1.418   4.364  20.488  0.00  0.00    +0.000 OA
BRANCH  23  25
ATOM     24  C   UNL     1       2.442   6.308  19.560  0.00  0.00    +0.000 C 
ATOM     25  C   UNL     1       1.794   5.711  20.798  0.00  0.00    +0.000 C 
ENDBRANCH  23  25
ENDBRANCH  21  23
ENDBRANCH  20  21
ENDBRANCH  16  20
ENDBRANCH   1  17
TORSDOF 6
ENDMDL
MODEL 4
REMARK VINA RESULT:      -8.1      1.107      2.144
REMARK  Name = 
REMARK  7 active torsions:
REMARK  status: ('A' for Active; 'I' for Inactive)
REMARK    1  A    between atoms: C_1  and  C_2
REMARK    2  A    between atoms: C_2  and  O_3
REMARK    3  A    between atoms: O_3  and  C_4
REMARK    4  A    between atoms: C_4  and  C_6
REMARK    5  A    between atoms: C_6  and  N_7
REMARK    6  A    between atoms: C_8  and  C_10
REMARK    7  A    between atoms: C_12  and  C_13
REMARK                            x       y       z     vdW  Elec       q    Type
REMARK                         _______ _______ _______ _____ _____    ______ ____
ROOT
ATOM      1  C   UNL     1       3.862   4.825  19.300  0.00  0.00    +0.000 A 
ATOM      2  C   UNL     1       3.456   6.091  19.094  0.00  0.00    +0.000 A 
ATOM      3  C   UNL     1       2.237   6.535  19.847  0.00  0.00    +0.000 A 
ATOM      4  N   UNL     1       1.548   5.767  20.642  0.00  0.00    +0.000 NA
ATOM      5  C   UNL     1       1.987   4.486  20.808  0.00  0.00    +0.000 A 
ATOM      6  N   UNL     1       1.474   3.523  21.542  0.00  0.00    +0.000 NA
ATOM      7  C   UNL     1       2.307   2.474  21.324  0.00  0.00    +0.000 A 
ATOM      8  N   UNL     1       3.326   2.702  20.496  0.00  0.00    +0.000 NA
ATOM      9  N   UNL     1       3.128   4.010  20.156  0.00  0.00    +0.000 N 
ENDROOT
BRANCH   3  10
ATOM     10  C   UNL     1       1.786   7.946  19.636  0.00  0.00    +0.000 A 
ATOM     11  C   UNL     1       1.988   8.530  18.378  0.00  0.00    +0.000 A 
ATOM     12  C   UNL     1       1.595   9.849  18.138  0.00  0.00    +0.000 A 
ATOM     13  C   UNL     1       0.991  10.591  19.151  0.00  0.00    +0.000 A 
ATOM     14  C   UNL     1       0.767  10.012  20.399  0.00  0.00    +0.000 A 
ATOM     15  C   UNL     1       1.155   8.691  20.642  0.00  0.00    +0.000 A 
ENDBRANCH   3  10
BRANCH   1  17
ATOM     16  N   UNL     1       5.027   4.469  17.205  0.00  0.00    +0.000 N 
ATOM     17  C   UNL     1       5.085   4.379  18.573  0.00  0.00    +0.000 C 
ATOM     18  O   UNL     1       6.073   3.968  19.171  0.00  0.00    +0.000 OA
ATOM     19  H   UNL     1       4.240   4.960  16.780  0.00  0.00    +0.000 HD
BRANCH  16  20
ATOM     20  C   UNL     1       6.196   4.226  16.375  0.00  0.00    +0.000 C 
BRANCH  20  21
ATOM     21  C   UNL     1       6.851   5.490  15.825  0.00  0.00    +0.000 C 
ATOM     22  O   UNL     1       7.673   5.481  14.915  0.00  0.00    +0.000 OA
BRANCH  21  23
ATOM     23  O   UNL     1       6.452   6.602  16.505  0.00  0.00    +0.000 OA
BRANCH  23  25
ATOM     24  C   UNL     1       7.865   6.797  18.417  0.00  0.00    +0.000 C 
ATOM     25  C   UNL     1       7.509   7.390  17.065  0.00  0.00    +0.000 C 
ENDBRANCH  23  25
ENDBRANCH  21  23
ENDBRANCH  20  21
ENDBRANCH  16  20
ENDBRANCH   1  17
TORSDOF 6
ENDMDL
MODEL 5
REMARK VINA RESULT:      -8.1      0.934      1.869
REMARK  Name = 
REMARK  7 active torsions:
REMARK  status: ('A' for Active; 'I' for Inactive)
REMARK    1  A    between atoms: C_1  and  C_2
REMARK    2  A    between atoms: C_2  and  O_3
REMARK    3  A    between atoms: O_3  and  C_4
REMARK    4  A    between atoms: C_4  and  C_6
REMARK    5  A    between atoms: C_6  and  N_7
REMARK    6  A    between atoms: C_8  and  C_10
REMARK    7  A    between atoms: C_12  and  C_13
REMARK                            x       y       z     vdW  Elec       q    Type
REMARK                         _______ _______ _______ _____ _____    ______ ____
ROOT
ATOM      1  C   UNL     1       3.957   4.811  19.253  0.00  0.00    +0.000 A 
ATOM      2  C   UNL     1       3.520   6.063  19.024  0.00  0.00    +0.000 A 
ATOM      3  C   UNL     1       2.321   6.507  19.806  0.00  0.00    +0.000 A 
ATOM      4  N   UNL     1       1.674   5.751  20.648  0.00  0.00    +0.000 NA
ATOM      5  C   UNL     1       2.143   4.484  20.836  0.00  0.00    +0.000 A 
ATOM      6  N   UNL     1       1.674   3.535  21.615  0.00  0.00    +0.000 NA
ATOM      7  C   UNL     1       2.519   2.495  21.399  0.00  0.00    +0.000 A 
ATOM      8  N   UNL     1       3.505   2.716  20.530  0.00  0.00    +0.000 NA
ATOM      9  N   UNL     1       3.269   4.009  20.158  0.00  0.00    +0.000 N 
ENDROOT
BRANCH   3  10
ATOM     10  C   UNL     1       1.835   7.902  19.570  0.00  0.00    +0.000 A 
ATOM     11  C   UNL     1       1.213   8.581  20.627  0.00  0.00    +0.000 A 
ATOM     12  C   UNL     1       0.733   9.880  20.450  0.00  0.00    +0.000 A 
ATOM     13  C   UNL     1       0.877  10.514  19.217  0.00  0.00    +0.000 A 
ATOM     14  C   UNL     1       1.514   9.856  18.166  0.00  0.00    +0.000 A 
ATOM     15  C   UNL     1       1.999   8.557  18.341  0.00  0.00    +0.000 A 
ENDBRANCH   3  10
BRANCH   1  17
ATOM     16  N   UNL     1       5.017   4.301  17.134  0.00  0.00    +0.000 N 
ATOM     17  C   UNL     1       5.163   4.365  18.497  0.00  0.00    +0.000 C 
ATOM     18  O   UNL     1       6.211   4.085  19.068  0.00  0.00    +0.000 OA
ATOM     19  H   UNL     1       4.175   4.693  16.714  0.00  0.00    +0.000 HD
BRANCH  16  20
ATOM     20  C   UNL     1       6.149   4.042  16.258  0.00  0.00    +0.000 C 
BRANCH  20  21
ATOM     21  C   UNL     1       6.678   5.276  15.533  0.00  0.00    +0.000 C 
ATOM     22  O   UNL     1       6.304   5.611  14.414  0.00  0.00    +0.000 OA
BRANCH  21  23
ATOM     23  O   UNL     1       7.645   5.910  16.255  0.00  0.00    +0.000 OA
BRANCH  23  25
ATOM     24  C   UNL     1       7.934   6.994  18.360  0.00  0.00    +0.000 C 
ATOM     25  C   UNL     1       7.195   7.025  17.034  0.00  0.00    +0.000 C 
ENDBRANCH  23  25
ENDBRANCH  21  23
ENDBRANCH  20  21
ENDBRANCH  16  20
ENDBRANCH   1  17
TORSDOF 6
ENDMDL
MODEL 6
REMARK VINA RESULT:      -8.0      3.065      7.096
REMARK  Name = 
REMARK  7 active torsions:
REMARK  status: ('A' for Active; 'I' for Inactive)
REMARK    1  A    between atoms: C_1  and  C_2
REMARK    2  A    between atoms: C_2  and  O_3
REMARK    3  A    between atoms: O_3  and  C_4
REMARK    4  A    between atoms: C_4  and  C_6
REMARK    5  A    between atoms: C_6  and  N_7
REMARK    6  A    between atoms: C_8  and  C_10
REMARK    7  A    between atoms: C_12  and  C_13
REMARK                            x       y       z     vdW  Elec       q    Type
REMARK                         _______ _______ _______ _____ _____    ______ ____
ROOT
ATOM      1  C   UNL     1       5.056   5.062  17.777  0.00  0.00    +0.000 A 
ATOM      2  C   UNL     1       5.131   4.864  16.448  0.00  0.00    +0.000 A 
ATOM      3  C   UNL     1       6.506   4.695  15.873  0.00  0.00    +0.000 A 
ATOM      4  N   UNL     1       7.605   4.766  16.569  0.00  0.00    +0.000 NA
ATOM      5  C   UNL     1       7.481   4.985  17.910  0.00  0.00    +0.000 A 
ATOM      6  N   UNL     1       8.422   5.101  18.821  0.00  0.00    +0.000 NA
ATOM      7  C   UNL     1       7.734   5.317  19.970  0.00  0.00    +0.000 A 
ATOM      8  N   UNL     1       6.406   5.346  19.856  0.00  0.00    +0.000 NA
ATOM      9  N   UNL     1       6.231   5.129  18.519  0.00  0.00    +0.000 N 
ENDROOT
BRANCH   3  10
ATOM     10  C   UNL     1       6.600   4.459  14.399  0.00  0.00    +0.000 A 
ATOM     11  C   UNL     1       5.674   3.591  13.801  0.00  0.00    +0.000 A 
ATOM     12  C   UNL     1       5.731   3.331  12.430  0.00  0.00    +0.000 A 
ATOM     13  C   UNL     1       6.707   3.940  11.645  0.00  0.00    +0.000 A 
ATOM     14  C   UNL     1       7.618   4.821  12.226  0.00  0.00    +0.000 A 
ATOM     15  C   UNL     1       7.562   5.088  13.596  0.00  0.00    +0.000 A 
ENDBRANCH   3  10
BRANCH   1  17
ATOM     16  N   UNL     1       3.567   4.822  19.674  0.00  0.00    +0.000 N 
ATOM     17  C   UNL     1       3.693   5.209  18.364  0.00  0.00    +0.000 C 
ATOM     18  O   UNL     1       2.758   5.655  17.708  0.00  0.00    +0.000 OA
ATOM     19  H   UNL     1       4.412   4.607  20.204  0.00  0.00    +0.000 HD
BRANCH  16  20
ATOM     20  C   UNL     1       2.344   5.059  20.424  0.00  0.00    +0.000 C 
BRANCH  20  21
ATOM     21  C   UNL     1       1.774   3.820  21.108  0.00  0.00    +0.000 C 
ATOM     22  O   UNL     1       2.303   3.280  22.074  0.00  0.00    +0.000 OA
BRANCH  21  23
ATOM     23  O   UNL     1       0.652   3.367  20.479  0.00  0.00    +0.000 OA
BRANCH  23  25
ATOM     24  C   UNL     1       1.740   1.819  19.027  0.00  0.00    +0.000 C 
ATOM     25  C   UNL     1       0.819   3.025  19.098  0.00  0.00    +0.000 C 
ENDBRANCH  23  25
ENDBRANCH  21  23
ENDBRANCH  20  21
ENDBRANCH  16  20
ENDBRANCH   1  17
TORSDOF 6
ENDMDL
MODEL 7
REMARK VINA RESULT:      -8.0      3.063      7.096
REMARK  Name = 
REMARK  7 active torsions:
REMARK  status: ('A' for Active; 'I' for Inactive)
REMARK    1  A    between atoms: C_1  and  C_2
REMARK    2  A    between atoms: C_2  and  O_3
REMARK    3  A    between atoms: O_3  and  C_4
REMARK    4  A    between atoms: C_4  and  C_6
REMARK    5  A    between atoms: C_6  and  N_7
REMARK    6  A    between atoms: C_8  and  C_10
REMARK    7  A    between atoms: C_12  and  C_13
REMARK                            x       y       z     vdW  Elec       q    Type
REMARK                         _______ _______ _______ _____ _____    ______ ____
ROOT
ATOM      1  C   UNL     1       5.079   5.071  17.800  0.00  0.00    +0.000 A 
ATOM      2  C   UNL     1       5.140   4.866  16.471  0.00  0.00    +0.000 A 
ATOM      3  C   UNL     1       6.508   4.687  15.884  0.00  0.00    +0.000 A 
ATOM      4  N   UNL     1       7.614   4.754  16.569  0.00  0.00    +0.000 NA
ATOM      5  C   UNL     1       7.504   4.981  17.910  0.00  0.00    +0.000 A 
ATOM      6  N   UNL     1       8.455   5.096  18.811  0.00  0.00    +0.000 NA
ATOM      7  C   UNL     1       7.779   5.322  19.965  0.00  0.00    +0.000 A 
ATOM      8  N   UNL     1       6.450   5.358  19.865  0.00  0.00    +0.000 NA
ATOM      9  N   UNL     1       6.261   5.136  18.530  0.00  0.00    +0.000 N 
ENDROOT
BRANCH   3  10
ATOM     10  C   UNL     1       6.587   4.443  14.410  0.00  0.00    +0.000 A 
ATOM     11  C   UNL     1       7.561   5.129  13.670  0.00  0.00    +0.000 A 
ATOM     12  C   UNL     1       7.663   4.943  12.290  0.00  0.00    +0.000 A 
ATOM     13  C   UNL     1       6.799   4.065  11.639  0.00  0.00    +0.000 A 
ATOM     14  C   UNL     1       5.842   3.362  12.369  0.00  0.00    +0.000 A 
ATOM     15  C   UNL     1       5.738   3.542  13.751  0.00  0.00    +0.000 A 
ENDBRANCH   3  10
BRANCH   1  17
ATOM     16  N   UNL     1       3.603   4.839  19.708  0.00  0.00    +0.000 N 
ATOM     17  C   UNL     1       3.722   5.230  18.398  0.00  0.00    +0.000 C 
ATOM     18  O   UNL     1       2.786   5.686  17.752  0.00  0.00    +0.000 OA
ATOM     19  H   UNL     1       4.450   4.615  20.230  0.00  0.00    +0.000 HD
BRANCH  16  20
ATOM     20  C   UNL     1       2.389   5.085  20.469  0.00  0.00    +0.000 C 
BRANCH  20  21
ATOM     21  C   UNL     1       1.758   3.833  21.072  0.00  0.00    +0.000 C 
ATOM     22  O   UNL     1       2.087   3.369  22.158  0.00  0.00    +0.000 OA
BRANCH  21  23
ATOM     23  O   UNL     1       0.839   3.277  20.232  0.00  0.00    +0.000 OA
BRANCH  23  25
ATOM     24  C   UNL     1       1.666   2.317  18.211  0.00  0.00    +0.000 C 
ATOM     25  C   UNL     1       1.227   2.033  19.637  0.00  0.00    +0.000 C 
ENDBRANCH  23  25
ENDBRANCH  21  23
ENDBRANCH  20  21
ENDBRANCH  16  20
ENDBRANCH   1  17
TORSDOF 6
ENDMDL
MODEL 8
REMARK VINA RESULT:      -8.0      3.389      4.862
REMARK  Name = 
REMARK  7 active torsions:
REMARK  status: ('A' for Active; 'I' for Inactive)
REMARK    1  A    between atoms: C_1  and  C_2
REMARK    2  A    between atoms: C_2  and  O_3
REMARK    3  A    between atoms: O_3  and  C_4
REMARK    4  A    between atoms: C_4  and  C_6
REMARK    5  A    between atoms: C_6  and  N_7
REMARK    6  A    between atoms: C_8  and  C_10
REMARK    7  A    between atoms: C_12  and  C_13
REMARK                            x       y       z     vdW  Elec       q    Type
REMARK                         _______ _______ _______ _____ _____    ______ ____
ROOT
ATOM      1  C   UNL     1       5.549   5.234  16.811  0.00  0.00    +0.000 A 
ATOM      2  C   UNL     1       4.377   4.678  17.174  0.00  0.00    +0.000 A 
ATOM      3  C   UNL     1       4.175   4.439  18.641  0.00  0.00    +0.000 A 
ATOM      4  N   UNL     1       5.067   4.700  19.554  0.00  0.00    +0.000 NA
ATOM      5  C   UNL     1       6.246   5.247  19.139  0.00  0.00    +0.000 A 
ATOM      6  N   UNL     1       7.295   5.593  19.851  0.00  0.00    +0.000 NA
ATOM      7  C   UNL     1       8.169   6.067  18.928  0.00  0.00    +0.000 A 
ATOM      8  N   UNL     1       7.747   6.049  17.663  0.00  0.00    +0.000 NA
ATOM      9  N   UNL     1       6.495   5.518  17.790  0.00  0.00    +0.000 N 
ENDROOT
BRANCH   3  10
ATOM     10  C   UNL     1       2.871   3.836  19.056  0.00  0.00    +0.000 A 
ATOM     11  C   UNL     1       2.173   3.050  18.128  0.00  0.00    +0.000 A 
ATOM     12  C   UNL     1       0.945   2.478  18.466  0.00  0.00    +0.000 A 
ATOM     13  C   UNL     1       0.409   2.679  19.736  0.00  0.00    +0.000 A 
ATOM     14  C   UNL     1       1.105   3.441  20.673  0.00  0.00    +0.000 A 
ATOM     15  C   UNL     1       2.336   4.013  20.340  0.00  0.00    +0.000 A 
ENDBRANCH   3  10
BRANCH   1  17
ATOM     16  N   UNL     1       6.518   4.574  14.690  0.00  0.00    +0.000 N 
ATOM     17  C   UNL     1       5.752   5.496  15.357  0.00  0.00    +0.000 C 
ATOM     18  O   UNL     1       5.255   6.473  14.807  0.00  0.00    +0.000 OA
ATOM     19  H   UNL     1       6.770   3.710  15.169  0.00  0.00    +0.000 HD
BRANCH  16  20
ATOM     20  C   UNL     1       6.665   4.610  13.244  0.00  0.00    +0.000 C 
BRANCH  20  21
ATOM     21  C   UNL     1       5.977   3.461  12.512  0.00  0.00    +0.000 C 
ATOM     22  O   UNL     1       6.555   2.431  12.181  0.00  0.00    +0.000 OA
BRANCH  21  23
ATOM     23  O   UNL     1       4.675   3.751  12.230  0.00  0.00    +0.000 OA
BRANCH  23  25
ATOM     24  C   UNL     1       3.344   3.919  10.258  0.00  0.00    +0.000 C 
ATOM     25  C   UNL     1       4.086   2.970  11.183  0.00  0.00    +0.000 C 
ENDBRANCH  23  25
ENDBRANCH  21  23
ENDBRANCH  20  21
ENDBRANCH  16  20
ENDBRANCH   1  17
TORSDOF 6
ENDMDL
MODEL 9
REMARK VINA RESULT:      -7.9      0.352      1.047
REMARK  Name = 
REMARK  7 active torsions:
REMARK  status: ('A' for Active; 'I' for Inactive)
REMARK    1  A    between atoms: C_1  and  C_2
REMARK    2  A    between atoms: C_2  and  O_3
REMARK    3  A    between atoms: O_3  and  C_4
REMARK    4  A    between atoms: C_4  and  C_6
REMARK    5  A    between atoms: C_6  and  N_7
REMARK    6  A    between atoms: C_8  and  C_10
REMARK    7  A    between atoms: C_12  and  C_13
REMARK                            x       y       z     vdW  Elec       q    Type
REMARK                         _______ _______ _______ _____ _____    ______ ____
ROOT
ATOM      1  C   UNL     1       4.154   4.767  19.081  0.00  0.00    +0.000 A 
ATOM      2  C   UNL     1       3.693   6.008  18.836  0.00  0.00    +0.000 A 
ATOM      3  C   UNL     1       2.505   6.452  19.636  0.00  0.00    +0.000 A 
ATOM      4  N   UNL     1       1.890   5.705  20.509  0.00  0.00    +0.000 NA
ATOM      5  C   UNL     1       2.382   4.449  20.713  0.00  0.00    +0.000 A 
ATOM      6  N   UNL     1       1.945   3.510  21.523  0.00  0.00    +0.000 NA
ATOM      7  C   UNL     1       2.799   2.478  21.309  0.00  0.00    +0.000 A 
ATOM      8  N   UNL     1       3.762   2.694  20.412  0.00  0.00    +0.000 NA
ATOM      9  N   UNL     1       3.499   3.975  20.019  0.00  0.00    +0.000 N 
ENDROOT
BRANCH   3  10
ATOM     10  C   UNL     1       1.994   7.834  19.382  0.00  0.00    +0.000 A 
ATOM     11  C   UNL     1       2.220   8.408  18.122  0.00  0.00    +0.000 A 
ATOM     12  C   UNL     1       1.773   9.702  17.843  0.00  0.00    +0.000 A 
ATOM     13  C   UNL     1       1.090  10.428  18.816  0.00  0.00    +0.000 A 
ATOM     14  C   UNL     1       0.841   9.858  20.064  0.00  0.00    +0.000 A 
ATOM     15  C   UNL     1       1.284   8.563  20.346  0.00  0.00    +0.000 A 
ENDBRANCH   3  10
BRANCH   1  17
ATOM     16  N   UNL     1       5.101   3.910  17.021  0.00  0.00    +0.000 N 
ATOM     17  C   UNL     1       5.348   4.323  18.306  0.00  0.00    +0.000 C 
ATOM     18  O   UNL     1       6.472   4.337  18.796  0.00  0.00    +0.000 OA
ATOM     19  H   UNL     1       4.173   4.069  16.627  0.00  0.00    +0.000 HD
BRANCH  16  20
ATOM     20  C   UNL     1       6.182   3.606  16.098  0.00  0.00    +0.000 C 
BRANCH  20  21
ATOM     21  C   UNL     1       6.571   4.763  15.181  0.00  0.00    +0.000 C 
ATOM     22  O   UNL     1       7.493   5.534  15.425  0.00  0.00    +0.000 OA
BRANCH  21  23
ATOM     23  O   UNL     1       5.737   4.858  14.107  0.00  0.00    +0.000 OA
BRANCH  23  25
ATOM     24  C   UNL     1       6.814   3.813  12.252  0.00  0.00    +0.000 C 
ATOM     25  C   UNL     1       5.688   3.699  13.265  0.00  0.00    +0.000 C 
ENDBRANCH  23  25
ENDBRANCH  21  23
ENDBRANCH  20  21
ENDBRANCH  16  20
ENDBRANCH   1  17
TORSDOF 6
ENDMDL
