MODEL 1
REMARK VINA RESULT:      -8.0      0.000      0.000
REMARK  Name = 
REMARK  4 active torsions:
REMARK  status: ('A' for Active; 'I' for Inactive)
REMARK    1  A    between atoms: N_5  and  C_6
REMARK    2  A    between atoms: C_6  and  C_7
REMARK    3  A    between atoms: C_17  and  C_18
REMARK    4  A    between atoms: C_21  and  C_22
REMARK                            x       y       z     vdW  Elec       q    Type
REMARK                         _______ _______ _______ _____ _____    ______ ____
ROOT
ATOM      1  O   UNL     1       7.785   5.671  15.011  0.00  0.00    +0.000 OA
ATOM      2  C   UNL     1       6.920   5.105  15.677  0.00  0.00    +0.000 A 
ATOM      3  N   UNL     1       6.227   4.009  15.199  0.00  0.00    +0.000 NA
ATOM      4  C   UNL     1       5.255   3.539  15.908  0.00  0.00    +0.000 A 
ATOM      5  N   UNL     1       4.826   4.002  17.127  0.00  0.00    +0.000 N 
ATOM      6  C   UNL     1       5.546   5.045  17.682  0.00  0.00    +0.000 A 
ATOM      7  C   UNL     1       6.573   5.625  17.038  0.00  0.00    +0.000 A 
ENDROOT
BRANCH   7   8
ATOM      8  C   UNL     1       7.255   6.804  17.576  0.00  0.00    +0.000 A 
ATOM      9  N   UNL     1       7.058   7.963  16.893  0.00  0.00    +0.000 NA
ATOM     10  C   UNL     1       7.650   9.084  17.374  0.00  0.00    +0.000 A 
ATOM     11  C   UNL     1       8.472   9.109  18.491  0.00  0.00    +0.000 A 
ATOM     12  C   UNL     1       8.689   7.900  19.161  0.00  0.00    +0.000 A 
ATOM     13  C   UNL     1       8.074   6.732  18.706  0.00  0.00    +0.000 A 
ATOM     14 CL   UNL     1       8.392   5.258  19.545  0.00  0.00    +0.000 Cl
BRANCH  11  15
ATOM     15  C   UNL     1       9.111  10.383  18.956  0.00  0.00    +0.000 C 
ATOM     16  F   UNL     1       9.186  10.495  20.309  0.00  0.00    +0.000 F 
ATOM     17  F   UNL     1      10.381  10.526  18.492  0.00  0.00    +0.000 F 
ATOM     18  F   UNL     1       8.431  11.482  18.528  0.00  0.00    +0.000 F 
ENDBRANCH  11  15
ENDBRANCH   7   8
BRANCH   5  19
ATOM     19  C   UNL     1       3.600   3.475  17.736  0.00  0.00    +0.000 C 
BRANCH  19  20
ATOM     20  C   UNL     1       2.939   4.490  18.638  0.00  0.00    +0.000 A 
ATOM     21  C   UNL     1       2.578   4.155  19.967  0.00  0.00    +0.000 A 
ATOM     22  C   UNL     1       2.008   5.105  20.823  0.00  0.00    +0.000 A 
ATOM     23  C   UNL     1       1.837   6.380  20.334  0.00  0.00    +0.000 A 
ATOM     24  C   UNL     1       2.171   6.710  19.041  0.00  0.00    +0.000 A 
ATOM     25  C   UNL     1       2.707   5.793  18.167  0.00  0.00    +0.000 A 
ATOM     26  O   UNL     1       1.945   8.026  18.770  0.00  0.00    +0.000 OA
ATOM     27  C   UNL     1       1.681   8.511  20.103  0.00  0.00    +0.000 C 
ATOM     28  O   UNL     1       1.374   7.452  21.033  0.00  0.00    +0.000 OA
ENDBRANCH  19  20
ENDBRANCH   5  19
TORSDOF 4
ENDMDL
MODEL 2
REMARK VINA RESULT:      -7.8      1.129      1.566
REMARK  Name = 
REMARK  4 active torsions:
REMARK  status: ('A' for Active; 'I' for Inactive)
REMARK    1  A    between atoms: N_5  and  C_6
REMARK    2  A    between atoms: C_6  and  C_7
REMARK    3  A    between atoms: C_17  and  C_18
REMARK    4  A    between atoms: C_21  and  C_22
REMARK                            x       y       z     vdW  Elec       q    Type
REMARK                         _______ _______ _______ _____ _____    ______ ____
ROOT
ATOM      1  O   UNL     1       7.708   5.085  15.888  0.00  0.00    +0.000 OA
ATOM      2  C   UNL     1       6.618   4.973  16.446  0.00  0.00    +0.000 A 
ATOM      3  N   UNL     1       5.749   3.939  16.157  0.00  0.00    +0.000 NA
ATOM      4  C   UNL     1       4.576   3.951  16.700  0.00  0.00    +0.000 A 
ATOM      5  N   UNL     1       4.082   4.890  17.570  0.00  0.00    +0.000 N 
ATOM      6  C   UNL     1       4.948   5.899  17.952  0.00  0.00    +0.000 A 
ATOM      7  C   UNL     1       6.191   5.999  17.451  0.00  0.00    +0.000 A 
ENDROOT
BRANCH   7   8
ATOM      8  C   UNL     1       7.061   7.133  17.767  0.00  0.00    +0.000 A 
ATOM      9  N   UNL     1       6.843   8.265  17.045  0.00  0.00    +0.000 NA
ATOM     10  C   UNL     1       7.610   9.346  17.326  0.00  0.00    +0.000 A 
ATOM     11  C   UNL     1       8.624   9.355  18.272  0.00  0.00    +0.000 A 
ATOM     12  C   UNL     1       8.855   8.171  18.981  0.00  0.00    +0.000 A 
ATOM     13  C   UNL     1       8.067   7.046  18.734  0.00  0.00    +0.000 A 
ATOM     14 CL   UNL     1       8.405   5.599  19.611  0.00  0.00    +0.000 Cl
BRANCH  11  15
ATOM     15  C   UNL     1       9.447  10.584  18.517  0.00  0.00    +0.000 C 
ATOM     16  F   UNL     1       8.712  11.725  18.604  0.00  0.00    +0.000 F 
ATOM     17  F   UNL     1      10.165  10.507  19.668  0.00  0.00    +0.000 F 
ATOM     18  F   UNL     1      10.353  10.798  17.524  0.00  0.00    +0.000 F 
ENDBRANCH  11  15
ENDBRANCH   7   8
BRANCH   5  19
ATOM     19  C   UNL     1       2.671   4.865  17.971  0.00  0.00    +0.000 C 
BRANCH  19  20
ATOM     20  C   UNL     1       2.223   6.192  18.535  0.00  0.00    +0.000 A 
ATOM     21  C   UNL     1       1.994   6.351  19.925  0.00  0.00    +0.000 A 
ATOM     22  C   UNL     1       1.624   7.591  20.460  0.00  0.00    +0.000 A 
ATOM     23  C   UNL     1       1.518   8.652  19.590  0.00  0.00    +0.000 A 
ATOM     24  C   UNL     1       1.724   8.504  18.238  0.00  0.00    +0.000 A 
ATOM     25  C   UNL     1       2.062   7.293  17.679  0.00  0.00    +0.000 A 
ATOM     26  O   UNL     1       1.593   9.680  17.564  0.00  0.00    +0.000 OA
ATOM     27  C   UNL     1       1.539  10.597  18.676  0.00  0.00    +0.000 C 
ATOM     28  O   UNL     1       1.246   9.942  19.928  0.00  0.00    +0.000 OA
ENDBRANCH  19  20
ENDBRANCH   5  19
TORSDOF 4
ENDMDL
MODEL 3
REMARK VINA RESULT:      -7.8      1.151      1.973
REMARK  Name = 
REMARK  4 active torsions:
REMARK  status: ('A' for Active; 'I' for Inactive)
REMARK    1  A    between atoms: N_5  and  C_6
REMARK    2  A    between atoms: C_6  and  C_7
REMARK    3  A    between atoms: C_17  and  C_18
REMARK    4  A    between atoms: C_21  and  C_22
REMARK                            x       y       z     vdW  Elec       q    Type
REMARK                         _______ _______ _______ _____ _____    ______ ____
ROOT
ATOM      1  O   UNL     1       7.569   5.559  15.645  0.00  0.00    +0.000 OA
ATOM      2  C   UNL     1       6.512   5.419  16.259  0.00  0.00    +0.000 A 
ATOM      3  N   UNL     1       5.599   4.435  15.933  0.00  0.00    +0.000 NA
ATOM      4  C   UNL     1       4.463   4.423  16.548  0.00  0.00    +0.000 A 
ATOM      5  N   UNL     1       4.048   5.288  17.530  0.00  0.00    +0.000 N 
ATOM      6  C   UNL     1       4.964   6.237  17.947  0.00  0.00    +0.000 A 
ATOM      7  C   UNL     1       6.176   6.357  17.378  0.00  0.00    +0.000 A 
ENDROOT
BRANCH   7   8
ATOM      8  C   UNL     1       7.095   7.437  17.741  0.00  0.00    +0.000 A 
ATOM      9  N   UNL     1       6.935   8.603  17.059  0.00  0.00    +0.000 NA
ATOM     10  C   UNL     1       7.748   9.637  17.383  0.00  0.00    +0.000 A 
ATOM     11  C   UNL     1       8.754   9.565  18.335  0.00  0.00    +0.000 A 
ATOM     12  C   UNL     1       8.926   8.347  19.003  0.00  0.00    +0.000 A 
ATOM     13  C   UNL     1       8.088   7.269  18.710  0.00  0.00    +0.000 A 
ATOM     14 CL   UNL     1       8.353   5.777  19.536  0.00  0.00    +0.000 Cl
BRANCH  11  15
ATOM     15  C   UNL     1       9.631  10.745  18.629  0.00  0.00    +0.000 C 
ATOM     16  F   UNL     1       8.948  11.914  18.758  0.00  0.00    +0.000 F 
ATOM     17  F   UNL     1      10.340  10.592  19.779  0.00  0.00    +0.000 F 
ATOM     18  F   UNL     1      10.550  10.956  17.648  0.00  0.00    +0.000 F 
ENDBRANCH  11  15
ENDBRANCH   7   8
BRANCH   5  19
ATOM     19  C   UNL     1       2.665   5.256  18.016  0.00  0.00    +0.000 C 
BRANCH  19  20
ATOM     20  C   UNL     1       2.241   6.585  18.594  0.00  0.00    +0.000 A 
ATOM     21  C   UNL     1       2.040   7.711  17.757  0.00  0.00    +0.000 A 
ATOM     22  C   UNL     1       1.602   8.933  18.280  0.00  0.00    +0.000 A 
ATOM     23  C   UNL     1       1.349   8.991  19.631  0.00  0.00    +0.000 A 
ATOM     24  C   UNL     1       1.554   7.908  20.454  0.00  0.00    +0.000 A 
ATOM     25  C   UNL     1       2.010   6.701  19.974  0.00  0.00    +0.000 A 
ATOM     26  O   UNL     1       1.219   8.171  21.748  0.00  0.00    +0.000 OA
ATOM     27  C   UNL     1       0.551   9.438  21.577  0.00  0.00    +0.000 C 
ATOM     28  O   UNL     1       0.847  10.060  20.309  0.00  0.00    +0.000 OA
ENDBRANCH  19  20
ENDBRANCH   5  19
TORSDOF 4
ENDMDL
MODEL 4
REMARK VINA RESULT:      -7.8      4.125      7.193
REMARK  Name = 
REMARK  4 active torsions:
REMARK  status: ('A' for Active; 'I' for Inactive)
REMARK    1  A    between atoms: N_5  and  C_6
REMARK    2  A    between atoms: C_6  and  C_7
REMARK    3  A    between atoms: C_17  and  C_18
REMARK    4  A    between atoms: C_21  and  C_22
REMARK                            x       y       z     vdW  Elec       q    Type
REMARK                         _______ _______ _______ _____ _____    ______ ____
ROOT
ATOM      1  O   UNL     1       1.116   4.658  20.751  0.00  0.00    +0.000 OA
ATOM      2  C   UNL     1       2.188   4.683  20.149  0.00  0.00    +0.000 A 
ATOM      3  N   UNL     1       2.927   3.540  19.918  0.00  0.00    +0.000 NA
ATOM      4  C   UNL     1       4.096   3.661  19.380  0.00  0.00    +0.000 A 
ATOM      5  N   UNL     1       4.703   4.826  18.983  0.00  0.00    +0.000 N 
ATOM      6  C   UNL     1       3.963   5.988  19.118  0.00  0.00    +0.000 A 
ATOM      7  C   UNL     1       2.739   5.992  19.672  0.00  0.00    +0.000 A 
ENDROOT
BRANCH   7   8
ATOM      8  C   UNL     1       2.010   7.238  19.921  0.00  0.00    +0.000 A 
ATOM      9  N   UNL     1       1.399   7.331  21.133  0.00  0.00    +0.000 NA
ATOM     10  C   UNL     1       0.736   8.479  21.415  0.00  0.00    +0.000 A 
ATOM     11  C   UNL     1       0.611   9.541  20.531  0.00  0.00    +0.000 A 
ATOM     12  C   UNL     1       1.218   9.412  19.277  0.00  0.00    +0.000 A 
ATOM     13  C   UNL     1       1.930   8.252  18.964  0.00  0.00    +0.000 A 
ATOM     14 CL   UNL     1       2.638   8.124  17.396  0.00  0.00    +0.000 Cl
BRANCH  11  15
ATOM     15  C   UNL     1      -0.155  10.774  20.903  0.00  0.00    +0.000 C 
ATOM     16  F   UNL     1      -1.149  11.084  20.028  0.00  0.00    +0.000 F 
ATOM     17  F   UNL     1      -0.744  10.672  22.124  0.00  0.00    +0.000 F 
ATOM     18  F   UNL     1       0.644  11.874  20.964  0.00  0.00    +0.000 F 
ENDBRANCH  11  15
ENDBRANCH   7   8
BRANCH   5  19
ATOM     19  C   UNL     1       6.103   4.826  18.544  0.00  0.00    +0.000 C 
BRANCH  19  20
ATOM     20  C   UNL     1       6.228   4.564  17.062  0.00  0.00    +0.000 A 
ATOM     21  C   UNL     1       5.286   3.747  16.387  0.00  0.00    +0.000 A 
ATOM     22  C   UNL     1       5.370   3.538  15.005  0.00  0.00    +0.000 A 
ATOM     23  C   UNL     1       6.382   4.177  14.326  0.00  0.00    +0.000 A 
ATOM     24  C   UNL     1       7.309   4.959  14.975  0.00  0.00    +0.000 A 
ATOM     25  C   UNL     1       7.270   5.162  16.336  0.00  0.00    +0.000 A 
ATOM     26  O   UNL     1       8.207   5.516  14.116  0.00  0.00    +0.000 OA
ATOM     27  C   UNL     1       7.577   5.197  12.859  0.00  0.00    +0.000 C 
ATOM     28  O   UNL     1       6.581   4.160  12.980  0.00  0.00    +0.000 OA
ENDBRANCH  19  20
ENDBRANCH   5  19
TORSDOF 4
ENDMDL
MODEL 5
REMARK VINA RESULT:      -7.8      4.752      6.904
REMARK  Name = 
REMARK  4 active torsions:
REMARK  status: ('A' for Active; 'I' for Inactive)
REMARK    1  A    between atoms: N_5  and  C_6
REMARK    2  A    between atoms: C_6  and  C_7
REMARK    3  A    between atoms: C_17  and  C_18
REMARK    4  A    between atoms: C_21  and  C_22
REMARK                            x       y       z     vdW  Elec       q    Type
REMARK                         _______ _______ _______ _____ _____    ______ ____
ROOT
ATOM      1  O   UNL     1       2.562   5.575  20.505  0.00  0.00    +0.000 OA
ATOM      2  C   UNL     1       2.224   6.702  20.148  0.00  0.00    +0.000 A 
ATOM      3  N   UNL     1       1.367   7.483  20.898  0.00  0.00    +0.000 NA
ATOM      4  C   UNL     1       0.968   8.608  20.404  0.00  0.00    +0.000 A 
ATOM      5  N   UNL     1       1.319   9.145  19.191  0.00  0.00    +0.000 N 
ATOM      6  C   UNL     1       2.242   8.436  18.443  0.00  0.00    +0.000 A 
ATOM      7  C   UNL     1       2.724   7.248  18.845  0.00  0.00    +0.000 A 
ENDROOT
BRANCH   7   8
ATOM      8  C   UNL     1       3.608   6.446  17.997  0.00  0.00    +0.000 A 
ATOM      9  N   UNL     1       4.834   6.981  17.749  0.00  0.00    +0.000 NA
ATOM     10  C   UNL     1       5.693   6.258  16.990  0.00  0.00    +0.000 A 
ATOM     11  C   UNL     1       5.383   5.031  16.423  0.00  0.00    +0.000 A 
ATOM     12  C   UNL     1       4.106   4.513  16.661  0.00  0.00    +0.000 A 
ATOM     13  C   UNL     1       3.205   5.221  17.459  0.00  0.00    +0.000 A 
ATOM     14 CL   UNL     1       1.631   4.559  17.704  0.00  0.00    +0.000 Cl
BRANCH  11  15
ATOM     15  C   UNL     1       6.377   4.295  15.576  0.00  0.00    +0.000 C 
ATOM     16  F   UNL     1       6.547   4.833  14.339  0.00  0.00    +0.000 F 
ATOM     17  F   UNL     1       7.613   4.253  16.143  0.00  0.00    +0.000 F 
ATOM     18  F   UNL     1       6.015   2.999  15.373  0.00  0.00    +0.000 F 
ENDBRANCH  11  15
ENDBRANCH   7   8
BRANCH   5  19
ATOM     19  C   UNL     1       0.653  10.352  18.689  0.00  0.00    +0.000 C 
BRANCH  19  20
ATOM     20  C   UNL     1       1.379  11.609  19.105  0.00  0.00    +0.000 A 
ATOM     21  C   UNL     1       2.222  12.297  18.197  0.00  0.00    +0.000 A 
ATOM     22  C   UNL     1       2.860  13.488  18.562  0.00  0.00    +0.000 A 
ATOM     23  C   UNL     1       2.617  13.979  19.824  0.00  0.00    +0.000 A 
ATOM     24  C   UNL     1       1.812  13.311  20.718  0.00  0.00    +0.000 A 
ATOM     25  C   UNL     1       1.192  12.125  20.399  0.00  0.00    +0.000 A 
ATOM     26  O   UNL     1       1.685  13.979  21.898  0.00  0.00    +0.000 OA
ATOM     27  C   UNL     1       2.287  15.239  21.534  0.00  0.00    +0.000 C 
ATOM     28  O   UNL     1       3.081  15.153  20.333  0.00  0.00    +0.000 OA
ENDBRANCH  19  20
ENDBRANCH   5  19
TORSDOF 4
ENDMDL
MODEL 6
REMARK VINA RESULT:      -7.7      5.513      7.913
REMARK  Name = 
REMARK  4 active torsions:
REMARK  status: ('A' for Active; 'I' for Inactive)
REMARK    1  A    between atoms: N_5  and  C_6
REMARK    2  A    between atoms: C_6  and  C_7
REMARK    3  A    between atoms: C_17  and  C_18
REMARK    4  A    between atoms: C_21  and  C_22
REMARK                            x       y       z     vdW  Elec       q    Type
REMARK                         _______ _______ _______ _____ _____    ______ ____
ROOT
ATOM      1  O   UNL     1       0.590  10.455  21.992  0.00  0.00    +0.000 OA
ATOM      2  C   UNL     1       0.964   9.755  21.053  0.00  0.00    +0.000 A 
ATOM      3  N   UNL     1       1.273   8.419  21.211  0.00  0.00    +0.000 NA
ATOM      4  C   UNL     1       1.767   7.778  20.203  0.00  0.00    +0.000 A 
ATOM      5  N   UNL     1       2.012   8.279  18.949  0.00  0.00    +0.000 N 
ATOM      6  C   UNL     1       1.638   9.592  18.722  0.00  0.00    +0.000 A 
ATOM      7  C   UNL     1       1.122  10.364  19.693  0.00  0.00    +0.000 A 
ENDROOT
BRANCH   7   8
ATOM      8  C   UNL     1       0.838  11.785  19.480  0.00  0.00    +0.000 A 
ATOM      9  N   UNL     1       1.890  12.630  19.655  0.00  0.00    +0.000 NA
ATOM     10  C   UNL     1       1.676  13.951  19.441  0.00  0.00    +0.000 A 
ATOM     11  C   UNL     1       0.448  14.493  19.095  0.00  0.00    +0.000 A 
ATOM     12  C   UNL     1      -0.630  13.611  18.952  0.00  0.00    +0.000 A 
ATOM     13  C   UNL     1      -0.438  12.241  19.142  0.00  0.00    +0.000 A 
ATOM     14 CL   UNL     1      -1.800  11.194  18.984  0.00  0.00    +0.000 Cl
BRANCH  11  15
ATOM     15  C   UNL     1       0.279  15.968  18.893  0.00  0.00    +0.000 C 
ATOM     16  F   UNL     1      -0.599  16.288  17.905  0.00  0.00    +0.000 F 
ATOM     17  F   UNL     1      -0.166  16.599  20.013  0.00  0.00    +0.000 F 
ATOM     18  F   UNL     1       1.451  16.576  18.562  0.00  0.00    +0.000 F 
ENDBRANCH  11  15
ENDBRANCH   7   8
BRANCH   5  19
ATOM     19  C   UNL     1       2.735   7.479  17.955  0.00  0.00    +0.000 C 
BRANCH  19  20
ATOM     20  C   UNL     1       2.738   6.011  18.309  0.00  0.00    +0.000 A 
ATOM     21  C   UNL     1       1.650   5.175  17.952  0.00  0.00    +0.000 A 
ATOM     22  C   UNL     1       1.668   3.804  18.235  0.00  0.00    +0.000 A 
ATOM     23  C   UNL     1       2.791   3.296  18.848  0.00  0.00    +0.000 A 
ATOM     24  C   UNL     1       3.845   4.102  19.212  0.00  0.00    +0.000 A 
ATOM     25  C   UNL     1       3.846   5.457  18.971  0.00  0.00    +0.000 A 
ATOM     26  O   UNL     1       4.861   3.397  19.781  0.00  0.00    +0.000 OA
ATOM     27  C   UNL     1       4.422   2.054  19.492  0.00  0.00    +0.000 C 
ATOM     28  O   UNL     1       3.026   1.987  19.135  0.00  0.00    +0.000 OA
ENDBRANCH  19  20
ENDBRANCH   5  19
TORSDOF 4
ENDMDL
MODEL 7
REMARK VINA RESULT:      -7.7      4.712      6.804
REMARK  Name = 
REMARK  4 active torsions:
REMARK  status: ('A' for Active; 'I' for Inactive)
REMARK    1  A    between atoms: N_5  and  C_6
REMARK    2  A    between atoms: C_6  and  C_7
REMARK    3  A    between atoms: C_17  and  C_18
REMARK    4  A    between atoms: C_21  and  C_22
REMARK                            x       y       z     vdW  Elec       q    Type
REMARK                         _______ _______ _______ _____ _____    ______ ____
ROOT
ATOM      1  O   UNL     1       2.715   5.747  20.504  0.00  0.00    +0.000 OA
ATOM      2  C   UNL     1       2.312   6.833  20.093  0.00  0.00    +0.000 A 
ATOM      3  N   UNL     1       1.437   7.614  20.823  0.00  0.00    +0.000 NA
ATOM      4  C   UNL     1       0.969   8.688  20.278  0.00  0.00    +0.000 A 
ATOM      5  N   UNL     1       1.261   9.169  19.026  0.00  0.00    +0.000 N 
ATOM      6  C   UNL     1       2.198   8.463  18.292  0.00  0.00    +0.000 A 
ATOM      7  C   UNL     1       2.750   7.326  18.748  0.00  0.00    +0.000 A 
ENDROOT
BRANCH   7   8
ATOM      8  C   UNL     1       3.650   6.520  17.921  0.00  0.00    +0.000 A 
ATOM      9  N   UNL     1       4.857   7.082  17.641  0.00  0.00    +0.000 NA
ATOM     10  C   UNL     1       5.730   6.357  16.901  0.00  0.00    +0.000 A 
ATOM     11  C   UNL     1       5.453   5.101  16.383  0.00  0.00    +0.000 A 
ATOM     12  C   UNL     1       4.195   4.553  16.654  0.00  0.00    +0.000 A 
ATOM     13  C   UNL     1       3.280   5.263  17.434  0.00  0.00    +0.000 A 
ATOM     14 CL   UNL     1       1.729   4.564  17.719  0.00  0.00    +0.000 Cl
BRANCH  11  15
ATOM     15  C   UNL     1       6.462   4.363  15.554  0.00  0.00    +0.000 C 
ATOM     16  F   UNL     1       7.652   4.173  16.184  0.00  0.00    +0.000 F 
ATOM     17  F   UNL     1       6.028   3.129  15.185  0.00  0.00    +0.000 F 
ATOM     18  F   UNL     1       6.752   5.019  14.398  0.00  0.00    +0.000 F 
ENDBRANCH  11  15
ENDBRANCH   7   8
BRANCH   5  19
ATOM     19  C   UNL     1       0.522  10.311  18.476  0.00  0.00    +0.000 C 
BRANCH  19  20
ATOM     20  C   UNL     1       1.095  11.629  18.941  0.00  0.00    +0.000 A 
ATOM     21  C   UNL     1       0.575  12.283  20.086  0.00  0.00    +0.000 A 
ATOM     22  C   UNL     1       1.132  13.481  20.550  0.00  0.00    +0.000 A 
ATOM     23  C   UNL     1       2.218  13.982  19.870  0.00  0.00    +0.000 A 
ATOM     24  C   UNL     1       2.721  13.362  18.749  0.00  0.00    +0.000 A 
ATOM     25  C   UNL     1       2.179  12.199  18.253  0.00  0.00    +0.000 A 
ATOM     26  O   UNL     1       3.809  14.008  18.246  0.00  0.00    +0.000 OA
ATOM     27  C   UNL     1       4.066  14.934  19.321  0.00  0.00    +0.000 C 
ATOM     28  O   UNL     1       2.940  15.085  20.210  0.00  0.00    +0.000 OA
ENDBRANCH  19  20
ENDBRANCH   5  19
TORSDOF 4
ENDMDL
MODEL 8
REMARK VINA RESULT:      -7.7      8.005     10.914
REMARK  Name = 
REMARK  4 active torsions:
REMARK  status: ('A' for Active; 'I' for Inactive)
REMARK    1  A    between atoms: N_5  and  C_6
REMARK    2  A    between atoms: C_6  and  C_7
REMARK    3  A    between atoms: C_17  and  C_18
REMARK    4  A    between atoms: C_21  and  C_22
REMARK                            x       y       z     vdW  Elec       q    Type
REMARK                         _______ _______ _______ _____ _____    ______ ____
ROOT
ATOM      1  O   UNL     1       0.986  11.745  21.443  0.00  0.00    +0.000 OA
ATOM      2  C   UNL     1       1.557  12.562  20.721  0.00  0.00    +0.000 A 
ATOM      3  N   UNL     1       2.588  13.355  21.184  0.00  0.00    +0.000 NA
ATOM      4  C   UNL     1       3.061  14.268  20.402  0.00  0.00    +0.000 A 
ATOM      5  N   UNL     1       2.659  14.541  19.118  0.00  0.00    +0.000 N 
ATOM      6  C   UNL     1       1.686  13.715  18.584  0.00  0.00    +0.000 A 
ATOM      7  C   UNL     1       1.110  12.736  19.302  0.00  0.00    +0.000 A 
ENDROOT
BRANCH   7   8
ATOM      8  C   UNL     1      -0.001  11.943  18.773  0.00  0.00    +0.000 A 
ATOM      9  N   UNL     1      -1.224  12.539  18.811  0.00  0.00    +0.000 NA
ATOM     10  C   UNL     1      -2.275  11.850  18.306  0.00  0.00    +0.000 A 
ATOM     11  C   UNL     1      -2.186  10.565  17.792  0.00  0.00    +0.000 A 
ATOM     12  C   UNL     1      -0.926   9.955  17.791  0.00  0.00    +0.000 A 
ATOM     13  C   UNL     1       0.183  10.647  18.282  0.00  0.00    +0.000 A 
ATOM     14 CL   UNL     1       1.711   9.847  18.289  0.00  0.00    +0.000 Cl
BRANCH  11  15
ATOM     15  C   UNL     1      -3.396   9.853  17.267  0.00  0.00    +0.000 C 
ATOM     16  F   UNL     1      -3.762   8.775  18.012  0.00  0.00    +0.000 F 
ATOM     17  F   UNL     1      -4.489  10.660  17.207  0.00  0.00    +0.000 F 
ATOM     18  F   UNL     1      -3.207   9.386  16.003  0.00  0.00    +0.000 F 
ENDBRANCH  11  15
ENDBRANCH   7   8
BRANCH   5  19
ATOM     19  C   UNL     1       3.172  15.720  18.411  0.00  0.00    +0.000 C 
BRANCH  19  20
ATOM     20  C   UNL     1       4.681  15.727  18.350  0.00  0.00    +0.000 A 
ATOM     21  C   UNL     1       5.422  16.838  18.825  0.00  0.00    +0.000 A 
ATOM     22  C   UNL     1       6.822  16.832  18.815  0.00  0.00    +0.000 A 
ATOM     23  C   UNL     1       7.448  15.697  18.352  0.00  0.00    +0.000 A 
ATOM     24  C   UNL     1       6.737  14.620  17.875  0.00  0.00    +0.000 A 
ATOM     25  C   UNL     1       5.362  14.607  17.848  0.00  0.00    +0.000 A 
ATOM     26  O   UNL     1       7.548  13.596  17.491  0.00  0.00    +0.000 OA
ATOM     27  C   UNL     1       8.806  14.064  18.020  0.00  0.00    +0.000 C 
ATOM     28  O   UNL     1       8.790  15.472  18.335  0.00  0.00    +0.000 OA
ENDBRANCH  19  20
ENDBRANCH   5  19
TORSDOF 4
ENDMDL
MODEL 9
REMARK VINA RESULT:      -7.7      5.590      7.972
REMARK  Name = 
REMARK  4 active torsions:
REMARK  status: ('A' for Active; 'I' for Inactive)
REMARK    1  A    between atoms: N_5  and  C_6
REMARK    2  A    between atoms: C_6  and  C_7
REMARK    3  A    between atoms: C_17  and  C_18
REMARK    4  A    between atoms: C_21  and  C_22
REMARK                            x       y       z     vdW  Elec       q    Type
REMARK                         _______ _______ _______ _____ _____    ______ ____
ROOT
ATOM      1  O   UNL     1       0.578  10.435  22.043  0.00  0.00    +0.000 OA
ATOM      2  C   UNL     1       0.956   9.770  21.081  0.00  0.00    +0.000 A 
ATOM      3  N   UNL     1       1.321   8.443  21.204  0.00  0.00    +0.000 NA
ATOM      4  C   UNL     1       1.816   7.843  20.173  0.00  0.00    +0.000 A 
ATOM      5  N   UNL     1       2.012   8.378  18.924  0.00  0.00    +0.000 N 
ATOM      6  C   UNL     1       1.582   9.679  18.732  0.00  0.00    +0.000 A 
ATOM      7  C   UNL     1       1.059  10.411  19.730  0.00  0.00    +0.000 A 
ENDROOT
BRANCH   7   8
ATOM      8  C   UNL     1       0.716  11.823  19.554  0.00  0.00    +0.000 A 
ATOM      9  N   UNL     1       1.722  12.709  19.784  0.00  0.00    +0.000 NA
ATOM     10  C   UNL     1       1.453  14.025  19.605  0.00  0.00    +0.000 A 
ATOM     11  C   UNL     1       0.210  14.522  19.242  0.00  0.00    +0.000 A 
ATOM     12  C   UNL     1      -0.821  13.597  19.041  0.00  0.00    +0.000 A 
ATOM     13  C   UNL     1      -0.571  12.232  19.194  0.00  0.00    +0.000 A 
ATOM     14 CL   UNL     1      -1.878  11.129  18.965  0.00  0.00    +0.000 Cl
BRANCH  11  15
ATOM     15  C   UNL     1      -0.021  15.994  19.081  0.00  0.00    +0.000 C 
ATOM     16  F   UNL     1       1.113  16.738  19.172  0.00  0.00    +0.000 F 
ATOM     17  F   UNL     1      -0.582  16.304  17.882  0.00  0.00    +0.000 F 
ATOM     18  F   UNL     1      -0.867  16.485  20.027  0.00  0.00    +0.000 F 
ENDBRANCH  11  15
ENDBRANCH   7   8
BRANCH   5  19
ATOM     19  C   UNL     1       2.742   7.626  17.897  0.00  0.00    +0.000 C 
BRANCH  19  20
ATOM     20  C   UNL     1       2.871   6.165  18.255  0.00  0.00    +0.000 A 
ATOM     21  C   UNL     1       4.004   5.687  18.960  0.00  0.00    +0.000 A 
ATOM     22  C   UNL     1       4.108   4.343  19.336  0.00  0.00    +0.000 A 
ATOM     23  C   UNL     1       3.058   3.511  19.019  0.00  0.00    +0.000 A 
ATOM     24  C   UNL     1       1.961   3.963  18.322  0.00  0.00    +0.000 A 
ATOM     25  C   UNL     1       1.842   5.272  17.915  0.00  0.00    +0.000 A 
ATOM     26  O   UNL     1       1.031   2.986  18.135  0.00  0.00    +0.000 OA
ATOM     27  C   UNL     1       1.561   1.969  19.009  0.00  0.00    +0.000 C 
ATOM     28  O   UNL     1       2.940   2.200  19.364  0.00  0.00    +0.000 OA
ENDBRANCH  19  20
ENDBRANCH   5  19
TORSDOF 4
ENDMDL
