MODEL 1
REMARK VINA RESULT:      -6.7      0.000      0.000
REMARK  Name = 
REMARK  14 active torsions:
REMARK  status: ('A' for Active; 'I' for Inactive)
REMARK    1  A    between atoms: C_1  and  C_2
REMARK    2  A    between atoms: C_2  and  C_3
REMARK    3  A    between atoms: C_4  and  C_5
REMARK    4  A    between atoms: C_9  and  N_10
REMARK    5  A    between atoms: N_10  and  C_11
REMARK    6  A    between atoms: N_10  and  C_12
REMARK    7  A    between atoms: C_12  and  C_13
REMARK    8  A    between atoms: C_13  and  C_14
REMARK    9  A    between atoms: C_14  and  S_15
REMARK   10  A    between atoms: S_15  and  C_16
REMARK   11  A    between atoms: C_17  and  C_18
REMARK   12  A    between atoms: C_18  and  C_19
REMARK   13  A    between atoms: C_21  and  C_22
REMARK   14  A    between atoms: C_24  and  C_25
REMARK                            x       y       z     vdW  Elec       q    Type
REMARK                         _______ _______ _______ _____ _____    ______ ____
ROOT
ATOM      1  C   UNL     1       2.527   3.648  19.546  0.00  0.00    +0.000 A 
ATOM      2  C   UNL     1       2.098   3.945  20.794  0.00  0.00    +0.000 A 
ATOM      3  C   UNL     1       1.794   2.938  21.880  0.00  0.00    +0.000 C 
ATOM      4  N   UNL     1       1.905   5.255  21.155  0.00  0.00    +0.000 N 
ATOM      5  C   UNL     1       2.111   6.345  20.345  0.00  0.00    +0.000 A 
ATOM      6  O   UNL     1       2.006   7.489  20.778  0.00  0.00    +0.000 OA
ATOM      7  C   UNL     1       2.467   6.047  18.897  0.00  0.00    +0.000 A 
ATOM      8  C   UNL     1       2.681   4.749  18.560  0.00  0.00    +0.000 A 
ATOM      9  H   UNL     1       1.630   5.483  22.103  0.00  0.00    +0.000 HD
ENDROOT
BRANCH   1  11
ATOM     10  C   UNL     1       4.309   1.843  19.528  0.00  0.00    +0.000 C 
ATOM     11  C   UNL     1       2.884   2.226  19.149  0.00  0.00    +0.000 C 
ENDBRANCH   1  11
BRANCH   7  12
ATOM     12  N   UNL     1       2.560   7.119  17.991  0.00  0.00    +0.000 N 
ATOM     13  C   UNL     1       3.858   7.727  17.686  0.00  0.00    +0.000 C 
BRANCH  12  14
ATOM     14  C   UNL     1       1.431   8.003  17.658  0.00  0.00    +0.000 C 
BRANCH  14  15
ATOM     15  C   UNL     1       1.681   9.491  17.893  0.00  0.00    +0.000 C 
BRANCH  15  16
ATOM     16  C   UNL     1       0.455  10.131  18.546  0.00  0.00    +0.000 C 
BRANCH  16  17
ATOM     17  S   UNL     1       0.965  11.558  19.555  0.00  0.00    +0.000 S 
ATOM     18  C   UNL     1      -0.359  11.519  20.785  0.00  0.00    +0.000 C 
ENDBRANCH  16  17
ENDBRANCH  15  16
ENDBRANCH  14  15
ENDBRANCH  12  14
ENDBRANCH   7  12
BRANCH   8  19
ATOM     19  C   UNL     1       3.041   4.402  17.121  0.00  0.00    +0.000 C 
BRANCH  19  20
ATOM     20  C   UNL     1       4.514   4.477  16.761  0.00  0.00    +0.000 A 
ATOM     21  C   UNL     1       5.515   4.683  17.721  0.00  0.00    +0.000 A 
ATOM     22  C   UNL     1       6.869   4.716  17.362  0.00  0.00    +0.000 A 
ATOM     23  C   UNL     1       7.919   4.914  18.411  0.00  0.00    +0.000 C 
ATOM     24  C   UNL     1       7.222   4.537  16.022  0.00  0.00    +0.000 A 
ATOM     25  C   UNL     1       6.244   4.341  15.041  0.00  0.00    +0.000 A 
ATOM     26  C   UNL     1       6.623   4.108  13.609  0.00  0.00    +0.000 C 
ATOM     27  C   UNL     1       4.893   4.328  15.417  0.00  0.00    +0.000 A 
ENDBRANCH  19  20
ENDBRANCH   8  19
TORSDOF 8
ENDMDL
MODEL 2
REMARK VINA RESULT:      -6.6      0.547      1.773
REMARK  Name = 
REMARK  14 active torsions:
REMARK  status: ('A' for Active; 'I' for Inactive)
REMARK    1  A    between atoms: C_1  and  C_2
REMARK    2  A    between atoms: C_2  and  C_3
REMARK    3  A    between atoms: C_4  and  C_5
REMARK    4  A    between atoms: C_9  and  N_10
REMARK    5  A    between atoms: N_10  and  C_11
REMARK    6  A    between atoms: N_10  and  C_12
REMARK    7  A    between atoms: C_12  and  C_13
REMARK    8  A    between atoms: C_13  and  C_14
REMARK    9  A    between atoms: C_14  and  S_15
REMARK   10  A    between atoms: S_15  and  C_16
REMARK   11  A    between atoms: C_17  and  C_18
REMARK   12  A    between atoms: C_18  and  C_19
REMARK   13  A    between atoms: C_21  and  C_22
REMARK   14  A    between atoms: C_24  and  C_25
REMARK                            x       y       z     vdW  Elec       q    Type
REMARK                         _______ _______ _______ _____ _____    ______ ____
ROOT
ATOM      1  C   UNL     1       2.584   3.606  19.556  0.00  0.00    +0.000 A 
ATOM      2  C   UNL     1       2.119   3.875  20.798  0.00  0.00    +0.000 A 
ATOM      3  C   UNL     1       1.814   2.845  21.862  0.00  0.00    +0.000 C 
ATOM      4  N   UNL     1       1.886   5.175  21.173  0.00  0.00    +0.000 N 
ATOM      5  C   UNL     1       2.085   6.280  20.383  0.00  0.00    +0.000 A 
ATOM      6  O   UNL     1       1.942   7.415  20.830  0.00  0.00    +0.000 OA
ATOM      7  C   UNL     1       2.482   6.012  18.940  0.00  0.00    +0.000 A 
ATOM      8  C   UNL     1       2.736   4.725  18.590  0.00  0.00    +0.000 A 
ATOM      9  H   UNL     1       1.583   5.381  22.117  0.00  0.00    +0.000 HD
ENDROOT
BRANCH   1  11
ATOM     10  C   UNL     1       4.423   1.858  19.518  0.00  0.00    +0.000 C 
ATOM     11  C   UNL     1       2.985   2.199  19.148  0.00  0.00    +0.000 C 
ENDBRANCH   1  11
BRANCH   7  12
ATOM     12  N   UNL     1       2.571   7.099  18.051  0.00  0.00    +0.000 N 
ATOM     13  C   UNL     1       3.861   7.744  17.788  0.00  0.00    +0.000 C 
BRANCH  12  14
ATOM     14  C   UNL     1       1.428   7.959  17.701  0.00  0.00    +0.000 C 
BRANCH  14  15
ATOM     15  C   UNL     1       1.642   9.452  17.944  0.00  0.00    +0.000 C 
BRANCH  15  16
ATOM     16  C   UNL     1       0.355  10.086  18.471  0.00  0.00    +0.000 C 
BRANCH  16  17
ATOM     17  S   UNL     1       0.735  11.656  19.309  0.00  0.00    +0.000 S 
ATOM     18  C   UNL     1      -0.523  12.699  18.535  0.00  0.00    +0.000 C 
ENDBRANCH  16  17
ENDBRANCH  15  16
ENDBRANCH  14  15
ENDBRANCH  12  14
ENDBRANCH   7  12
BRANCH   8  19
ATOM     19  C   UNL     1       3.137   4.407  17.155  0.00  0.00    +0.000 C 
BRANCH  19  20
ATOM     20  C   UNL     1       4.618   4.515  16.834  0.00  0.00    +0.000 A 
ATOM     21  C   UNL     1       5.118   4.370  15.533  0.00  0.00    +0.000 A 
ATOM     22  C   UNL     1       6.487   4.505  15.262  0.00  0.00    +0.000 A 
ATOM     23  C   UNL     1       6.992   4.368  13.860  0.00  0.00    +0.000 C 
ATOM     24  C   UNL     1       7.362   4.792  16.313  0.00  0.00    +0.000 A 
ATOM     25  C   UNL     1       6.892   4.932  17.624  0.00  0.00    +0.000 A 
ATOM     26  C   UNL     1       7.824   5.281  18.744  0.00  0.00    +0.000 C 
ATOM     27  C   UNL     1       5.521   4.776  17.877  0.00  0.00    +0.000 A 
ENDBRANCH  19  20
ENDBRANCH   8  19
TORSDOF 8
ENDMDL
MODEL 3
REMARK VINA RESULT:      -6.5      2.917      6.398
REMARK  Name = 
REMARK  14 active torsions:
REMARK  status: ('A' for Active; 'I' for Inactive)
REMARK    1  A    between atoms: C_1  and  C_2
REMARK    2  A    between atoms: C_2  and  C_3
REMARK    3  A    between atoms: C_4  and  C_5
REMARK    4  A    between atoms: C_9  and  N_10
REMARK    5  A    between atoms: N_10  and  C_11
REMARK    6  A    between atoms: N_10  and  C_12
REMARK    7  A    between atoms: C_12  and  C_13
REMARK    8  A    between atoms: C_13  and  C_14
REMARK    9  A    between atoms: C_14  and  S_15
REMARK   10  A    between atoms: S_15  and  C_16
REMARK   11  A    between atoms: C_17  and  C_18
REMARK   12  A    between atoms: C_18  and  C_19
REMARK   13  A    between atoms: C_21  and  C_22
REMARK   14  A    between atoms: C_24  and  C_25
REMARK                            x       y       z     vdW  Elec       q    Type
REMARK                         _______ _______ _______ _____ _____    ______ ____
ROOT
ATOM      1  C   UNL     1       1.828   3.886  19.349  0.00  0.00    +0.000 A 
ATOM      2  C   UNL     1       1.704   2.887  18.445  0.00  0.00    +0.000 A 
ATOM      3  C   UNL     1       0.757   1.714  18.559  0.00  0.00    +0.000 C 
ATOM      4  N   UNL     1       2.482   2.889  17.313  0.00  0.00    +0.000 N 
ATOM      5  C   UNL     1       3.414   3.844  16.989  0.00  0.00    +0.000 A 
ATOM      6  O   UNL     1       3.998   3.821  15.909  0.00  0.00    +0.000 OA
ATOM      7  C   UNL     1       3.675   4.911  18.039  0.00  0.00    +0.000 A 
ATOM      8  C   UNL     1       2.882   4.913  19.141  0.00  0.00    +0.000 A 
ATOM      9  H   UNL     1       2.357   2.168  16.613  0.00  0.00    +0.000 HD
ENDROOT
BRANCH   1  11
ATOM     10  C   UNL     1       1.297   3.086  21.697  0.00  0.00    +0.000 C 
ATOM     11  C   UNL     1       0.895   3.995  20.542  0.00  0.00    +0.000 C 
ENDBRANCH   1  11
BRANCH   7  12
ATOM     12  N   UNL     1       4.712   5.837  17.818  0.00  0.00    +0.000 N 
ATOM     13  C   UNL     1       4.521   6.966  16.902  0.00  0.00    +0.000 C 
BRANCH  12  14
ATOM     14  C   UNL     1       6.134   5.538  18.056  0.00  0.00    +0.000 C 
BRANCH  14  15
ATOM     15  C   UNL     1       7.064   5.829  16.879  0.00  0.00    +0.000 C 
BRANCH  15  16
ATOM     16  C   UNL     1       7.193   4.588  15.995  0.00  0.00    +0.000 C 
BRANCH  16  17
ATOM     17  S   UNL     1       7.229   5.077  14.242  0.00  0.00    +0.000 S 
ATOM     18  C   UNL     1       6.204   3.754  13.560  0.00  0.00    +0.000 C 
ENDBRANCH  16  17
ENDBRANCH  15  16
ENDBRANCH  14  15
ENDBRANCH  12  14
ENDBRANCH   7  12
BRANCH   8  19
ATOM     19  C   UNL     1       3.106   5.964  20.220  0.00  0.00    +0.000 C 
BRANCH  19  20
ATOM     20  C   UNL     1       2.178   7.166  20.190  0.00  0.00    +0.000 A 
ATOM     21  C   UNL     1       1.340   7.497  21.264  0.00  0.00    +0.000 A 
ATOM     22  C   UNL     1       0.516   8.630  21.219  0.00  0.00    +0.000 A 
ATOM     23  C   UNL     1      -0.352   8.974  22.388  0.00  0.00    +0.000 C 
ATOM     24  C   UNL     1       0.537   9.441  20.081  0.00  0.00    +0.000 A 
ATOM     25  C   UNL     1       1.356   9.129  18.990  0.00  0.00    +0.000 A 
ATOM     26  C   UNL     1       1.411  10.020  17.786  0.00  0.00    +0.000 C 
ATOM     27  C   UNL     1       2.160   7.981  19.047  0.00  0.00    +0.000 A 
ENDBRANCH  19  20
ENDBRANCH   8  19
TORSDOF 8
ENDMDL
MODEL 4
REMARK VINA RESULT:      -6.1      3.090      6.223
REMARK  Name = 
REMARK  14 active torsions:
REMARK  status: ('A' for Active; 'I' for Inactive)
REMARK    1  A    between atoms: C_1  and  C_2
REMARK    2  A    between atoms: C_2  and  C_3
REMARK    3  A    between atoms: C_4  and  C_5
REMARK    4  A    between atoms: C_9  and  N_10
REMARK    5  A    between atoms: N_10  and  C_11
REMARK    6  A    between atoms: N_10  and  C_12
REMARK    7  A    between atoms: C_12  and  C_13
REMARK    8  A    between atoms: C_13  and  C_14
REMARK    9  A    between atoms: C_14  and  S_15
REMARK   10  A    between atoms: S_15  and  C_16
REMARK   11  A    between atoms: C_17  and  C_18
REMARK   12  A    between atoms: C_18  and  C_19
REMARK   13  A    between atoms: C_21  and  C_22
REMARK   14  A    between atoms: C_24  and  C_25
REMARK                            x       y       z     vdW  Elec       q    Type
REMARK                         _______ _______ _______ _____ _____    ______ ____
ROOT
ATOM      1  C   UNL     1       3.117   4.075  19.141  0.00  0.00    +0.000 A 
ATOM      2  C   UNL     1       4.022   3.318  19.803  0.00  0.00    +0.000 A 
ATOM      3  C   UNL     1       3.700   2.303  20.876  0.00  0.00    +0.000 C 
ATOM      4  N   UNL     1       5.359   3.445  19.515  0.00  0.00    +0.000 N 
ATOM      5  C   UNL     1       5.896   4.298  18.583  0.00  0.00    +0.000 A 
ATOM      6  O   UNL     1       7.096   4.279  18.320  0.00  0.00    +0.000 OA
ATOM      7  C   UNL     1       4.926   5.257  17.912  0.00  0.00    +0.000 A 
ATOM      8  C   UNL     1       3.605   5.103  18.185  0.00  0.00    +0.000 A 
ATOM      9  H   UNL     1       6.033   2.845  19.974  0.00  0.00    +0.000 HD
ENDROOT
BRANCH   1  11
ATOM     10  C   UNL     1       1.074   2.711  18.507  0.00  0.00    +0.000 C 
ATOM     11  C   UNL     1       1.624   3.870  19.330  0.00  0.00    +0.000 C 
ENDBRANCH   1  11
BRANCH   7  12
ATOM     12  N   UNL     1       5.439   6.242  17.048  0.00  0.00    +0.000 N 
ATOM     13  C   UNL     1       5.772   7.577  17.552  0.00  0.00    +0.000 C 
BRANCH  12  14
ATOM     14  C   UNL     1       5.249   6.221  15.588  0.00  0.00    +0.000 C 
BRANCH  14  15
ATOM     15  C   UNL     1       5.367   4.844  14.938  0.00  0.00    +0.000 C 
BRANCH  15  16
ATOM     16  C   UNL     1       6.839   4.484  14.737  0.00  0.00    +0.000 C 
BRANCH  16  17
ATOM     17  S   UNL     1       7.324   4.801  13.011  0.00  0.00    +0.000 S 
ATOM     18  C   UNL     1       6.422   3.453  12.214  0.00  0.00    +0.000 C 
ENDBRANCH  16  17
ENDBRANCH  15  16
ENDBRANCH  14  15
ENDBRANCH  12  14
ENDBRANCH   7  12
BRANCH   8  19
ATOM     19  C   UNL     1       2.595   6.041  17.536  0.00  0.00    +0.000 C 
BRANCH  19  20
ATOM     20  C   UNL     1       2.213   7.274  18.337  0.00  0.00    +0.000 A 
ATOM     21  C   UNL     1       1.828   7.208  19.683  0.00  0.00    +0.000 A 
ATOM     22  C   UNL     1       1.511   8.367  20.404  0.00  0.00    +0.000 A 
ATOM     23  C   UNL     1       1.125   8.271  21.848  0.00  0.00    +0.000 C 
ATOM     24  C   UNL     1       1.584   9.607  19.765  0.00  0.00    +0.000 A 
ATOM     25  C   UNL     1       1.955   9.702  18.419  0.00  0.00    +0.000 A 
ATOM     26  C   UNL     1       2.074  11.035  17.743  0.00  0.00    +0.000 C 
ATOM     27  C   UNL     1       2.252   8.529  17.709  0.00  0.00    +0.000 A 
ENDBRANCH  19  20
ENDBRANCH   8  19
TORSDOF 8
ENDMDL
MODEL 5
REMARK VINA RESULT:      -6.1      3.152      6.367
REMARK  Name = 
REMARK  14 active torsions:
REMARK  status: ('A' for Active; 'I' for Inactive)
REMARK    1  A    between atoms: C_1  and  C_2
REMARK    2  A    between atoms: C_2  and  C_3
REMARK    3  A    between atoms: C_4  and  C_5
REMARK    4  A    between atoms: C_9  and  N_10
REMARK    5  A    between atoms: N_10  and  C_11
REMARK    6  A    between atoms: N_10  and  C_12
REMARK    7  A    between atoms: C_12  and  C_13
REMARK    8  A    between atoms: C_13  and  C_14
REMARK    9  A    between atoms: C_14  and  S_15
REMARK   10  A    between atoms: S_15  and  C_16
REMARK   11  A    between atoms: C_17  and  C_18
REMARK   12  A    between atoms: C_18  and  C_19
REMARK   13  A    between atoms: C_21  and  C_22
REMARK   14  A    between atoms: C_24  and  C_25
REMARK                            x       y       z     vdW  Elec       q    Type
REMARK                         _______ _______ _______ _____ _____    ______ ____
ROOT
ATOM      1  C   UNL     1       2.943   4.100  19.191  0.00  0.00    +0.000 A 
ATOM      2  C   UNL     1       3.826   3.327  19.864  0.00  0.00    +0.000 A 
ATOM      3  C   UNL     1       3.475   2.331  20.945  0.00  0.00    +0.000 C 
ATOM      4  N   UNL     1       5.167   3.418  19.582  0.00  0.00    +0.000 N 
ATOM      5  C   UNL     1       5.729   4.249  18.644  0.00  0.00    +0.000 A 
ATOM      6  O   UNL     1       6.929   4.199  18.387  0.00  0.00    +0.000 OA
ATOM      7  C   UNL     1       4.786   5.225  17.960  0.00  0.00    +0.000 A 
ATOM      8  C   UNL     1       3.460   5.106  18.228  0.00  0.00    +0.000 A 
ATOM      9  H   UNL     1       5.824   2.807  20.050  0.00  0.00    +0.000 HD
ENDROOT
BRANCH   1  11
ATOM     10  C   UNL     1       0.879   2.746  18.604  0.00  0.00    +0.000 C 
ATOM     11  C   UNL     1       1.445   3.933  19.375  0.00  0.00    +0.000 C 
ENDBRANCH   1  11
BRANCH   7  12
ATOM     12  N   UNL     1       5.327   6.189  17.089  0.00  0.00    +0.000 N 
ATOM     13  C   UNL     1       5.641   7.537  17.570  0.00  0.00    +0.000 C 
BRANCH  12  14
ATOM     14  C   UNL     1       5.186   6.131  15.624  0.00  0.00    +0.000 C 
BRANCH  14  15
ATOM     15  C   UNL     1       6.192   5.230  14.911  0.00  0.00    +0.000 C 
BRANCH  15  16
ATOM     16  C   UNL     1       5.469   4.051  14.260  0.00  0.00    +0.000 C 
BRANCH  16  17
ATOM     17  S   UNL     1       6.245   3.654  12.662  0.00  0.00    +0.000 S 
ATOM     18  C   UNL     1       4.761   3.207  11.731  0.00  0.00    +0.000 C 
ENDBRANCH  16  17
ENDBRANCH  15  16
ENDBRANCH  14  15
ENDBRANCH  12  14
ENDBRANCH   7  12
BRANCH   8  19
ATOM     19  C   UNL     1       2.476   6.062  17.565  0.00  0.00    +0.000 C 
BRANCH  19  20
ATOM     20  C   UNL     1       2.177   7.346  18.319  0.00  0.00    +0.000 A 
ATOM     21  C   UNL     1       2.235   8.607  17.711  0.00  0.00    +0.000 A 
ATOM     22  C   UNL     1       1.923   9.772  18.425  0.00  0.00    +0.000 A 
ATOM     23  C   UNL     1       1.970  11.105  17.745  0.00  0.00    +0.000 C 
ATOM     24  C   UNL     1       1.546   9.667  19.767  0.00  0.00    +0.000 A 
ATOM     25  C   UNL     1       1.490   8.421  20.402  0.00  0.00    +0.000 A 
ATOM     26  C   UNL     1       1.046   8.303  21.829  0.00  0.00    +0.000 C 
ATOM     27  C   UNL     1       1.823   7.269  19.676  0.00  0.00    +0.000 A 
ENDBRANCH  19  20
ENDBRANCH   8  19
TORSDOF 8
ENDMDL
MODEL 6
REMARK VINA RESULT:      -6.1      5.061      8.913
REMARK  Name = 
REMARK  14 active torsions:
REMARK  status: ('A' for Active; 'I' for Inactive)
REMARK    1  A    between atoms: C_1  and  C_2
REMARK    2  A    between atoms: C_2  and  C_3
REMARK    3  A    between atoms: C_4  and  C_5
REMARK    4  A    between atoms: C_9  and  N_10
REMARK    5  A    between atoms: N_10  and  C_11
REMARK    6  A    between atoms: N_10  and  C_12
REMARK    7  A    between atoms: C_12  and  C_13
REMARK    8  A    between atoms: C_13  and  C_14
REMARK    9  A    between atoms: C_14  and  S_15
REMARK   10  A    between atoms: S_15  and  C_16
REMARK   11  A    between atoms: C_17  and  C_18
REMARK   12  A    between atoms: C_18  and  C_19
REMARK   13  A    between atoms: C_21  and  C_22
REMARK   14  A    between atoms: C_24  and  C_25
REMARK                            x       y       z     vdW  Elec       q    Type
REMARK                         _______ _______ _______ _____ _____    ______ ____
ROOT
ATOM      1  C   UNL     1       0.673   9.757  19.667  0.00  0.00    +0.000 A 
ATOM      2  C   UNL     1       1.046   8.777  20.522  0.00  0.00    +0.000 A 
ATOM      3  C   UNL     1       1.737   7.490  20.132  0.00  0.00    +0.000 C 
ATOM      4  N   UNL     1       0.797   8.911  21.865  0.00  0.00    +0.000 N 
ATOM      5  C   UNL     1       0.182   9.985  22.459  0.00  0.00    +0.000 A 
ATOM      6  O   UNL     1       0.084  10.068  23.680  0.00  0.00    +0.000 OA
ATOM      7  C   UNL     1      -0.369  11.047  21.520  0.00  0.00    +0.000 A 
ATOM      8  C   UNL     1      -0.092  10.916  20.197  0.00  0.00    +0.000 A 
ATOM      9  H   UNL     1       1.118   8.201  22.512  0.00  0.00    +0.000 HD
ENDROOT
BRANCH   1  11
ATOM     10  C   UNL     1       2.316  10.499  17.883  0.00  0.00    +0.000 C 
ATOM     11  C   UNL     1       1.050   9.712  18.197  0.00  0.00    +0.000 C 
ENDBRANCH   1  11
BRANCH   7  12
ATOM     12  N   UNL     1      -1.124  12.103  22.063  0.00  0.00    +0.000 N 
ATOM     13  C   UNL     1      -0.485  13.375  22.410  0.00  0.00    +0.000 C 
BRANCH  12  14
ATOM     14  C   UNL     1      -2.412  11.912  22.750  0.00  0.00    +0.000 C 
BRANCH  14  15
ATOM     15  C   UNL     1      -3.355  13.112  22.706  0.00  0.00    +0.000 C 
BRANCH  15  16
ATOM     16  C   UNL     1      -3.779  13.497  24.124  0.00  0.00    +0.000 C 
BRANCH  16  17
ATOM     17  S   UNL     1      -3.883  15.309  24.270  0.00  0.00    +0.000 S 
ATOM     18  C   UNL     1      -3.889  15.732  22.512  0.00  0.00    +0.000 C 
ENDBRANCH  16  17
ENDBRANCH  15  16
ENDBRANCH  14  15
ENDBRANCH  12  14
ENDBRANCH   7  12
BRANCH   8  19
ATOM     19  C   UNL     1      -0.622  11.955  19.218  0.00  0.00    +0.000 C 
BRANCH  19  20
ATOM     20  C   UNL     1      -1.918  11.608  18.507  0.00  0.00    +0.000 A 
ATOM     21  C   UNL     1      -1.947  10.915  17.289  0.00  0.00    +0.000 A 
ATOM     22  C   UNL     1      -3.160  10.581  16.671  0.00  0.00    +0.000 A 
ATOM     23  C   UNL     1      -3.163   9.821  15.382  0.00  0.00    +0.000 C 
ATOM     24  C   UNL     1      -4.360  10.947  17.289  0.00  0.00    +0.000 A 
ATOM     25  C   UNL     1      -4.361  11.648  18.500  0.00  0.00    +0.000 A 
ATOM     26  C   UNL     1      -5.647  12.004  19.183  0.00  0.00    +0.000 C 
ATOM     27  C   UNL     1      -3.137  11.988  19.092  0.00  0.00    +0.000 A 
ENDBRANCH  19  20
ENDBRANCH   8  19
TORSDOF 8
ENDMDL
MODEL 7
REMARK VINA RESULT:      -6.1      4.915      8.403
REMARK  Name = 
REMARK  14 active torsions:
REMARK  status: ('A' for Active; 'I' for Inactive)
REMARK    1  A    between atoms: C_1  and  C_2
REMARK    2  A    between atoms: C_2  and  C_3
REMARK    3  A    between atoms: C_4  and  C_5
REMARK    4  A    between atoms: C_9  and  N_10
REMARK    5  A    between atoms: N_10  and  C_11
REMARK    6  A    between atoms: N_10  and  C_12
REMARK    7  A    between atoms: C_12  and  C_13
REMARK    8  A    between atoms: C_13  and  C_14
REMARK    9  A    between atoms: C_14  and  S_15
REMARK   10  A    between atoms: S_15  and  C_16
REMARK   11  A    between atoms: C_17  and  C_18
REMARK   12  A    between atoms: C_18  and  C_19
REMARK   13  A    between atoms: C_21  and  C_22
REMARK   14  A    between atoms: C_24  and  C_25
REMARK                            x       y       z     vdW  Elec       q    Type
REMARK                         _______ _______ _______ _____ _____    ______ ____
ROOT
ATOM      1  C   UNL     1      -2.972  11.246  18.168  0.00  0.00    +0.000 A 
ATOM      2  C   UNL     1      -4.214  11.606  18.565  0.00  0.00    +0.000 A 
ATOM      3  C   UNL     1      -5.507  11.053  18.010  0.00  0.00    +0.000 C 
ATOM      4  N   UNL     1      -4.369  12.550  19.549  0.00  0.00    +0.000 N 
ATOM      5  C   UNL     1      -3.349  13.196  20.203  0.00  0.00    +0.000 A 
ATOM      6  O   UNL     1      -3.574  13.958  21.139  0.00  0.00    +0.000 OA
ATOM      7  C   UNL     1      -1.943  12.915  19.695  0.00  0.00    +0.000 A 
ATOM      8  C   UNL     1      -1.802  11.960  18.741  0.00  0.00    +0.000 A 
ATOM      9  H   UNL     1      -5.296  12.786  19.881  0.00  0.00    +0.000 HD
ENDROOT
BRANCH   1  11
ATOM     10  C   UNL     1      -2.707  10.580  15.734  0.00  0.00    +0.000 C 
ATOM     11  C   UNL     1      -2.754  10.111  17.183  0.00  0.00    +0.000 C 
ENDBRANCH   1  11
BRANCH   7  12
ATOM     12  N   UNL     1      -0.871  13.648  20.238  0.00  0.00    +0.000 N 
ATOM     13  C   UNL     1      -0.320  13.301  21.552  0.00  0.00    +0.000 C 
BRANCH  12  14
ATOM     14  C   UNL     1      -0.536  15.022  19.831  0.00  0.00    +0.000 C 
BRANCH  14  15
ATOM     15  C   UNL     1       0.661  15.145  18.889  0.00  0.00    +0.000 C 
BRANCH  15  16
ATOM     16  C   UNL     1       1.856  15.738  19.636  0.00  0.00    +0.000 C 
BRANCH  16  17
ATOM     17  S   UNL     1       3.108  14.449  19.924  0.00  0.00    +0.000 S 
ATOM     18  C   UNL     1       2.794  13.422  18.470  0.00  0.00    +0.000 C 
ENDBRANCH  16  17
ENDBRANCH  15  16
ENDBRANCH  14  15
ENDBRANCH  12  14
ENDBRANCH   7  12
BRANCH   8  19
ATOM     19  C   UNL     1      -0.412  11.644  18.202  0.00  0.00    +0.000 C 
BRANCH  19  20
ATOM     20  C   UNL     1       0.289  10.446  18.818  0.00  0.00    +0.000 A 
ATOM     21  C   UNL     1       1.199   9.656  18.101  0.00  0.00    +0.000 A 
ATOM     22  C   UNL     1       1.854   8.575  18.706  0.00  0.00    +0.000 A 
ATOM     23  C   UNL     1       2.839   7.761  17.924  0.00  0.00    +0.000 C 
ATOM     24  C   UNL     1       1.593   8.286  20.048  0.00  0.00    +0.000 A 
ATOM     25  C   UNL     1       0.681   9.051  20.784  0.00  0.00    +0.000 A 
ATOM     26  C   UNL     1       0.431   8.767  22.235  0.00  0.00    +0.000 C 
ATOM     27  C   UNL     1       0.023  10.118  20.157  0.00  0.00    +0.000 A 
ENDBRANCH  19  20
ENDBRANCH   8  19
TORSDOF 8
ENDMDL
MODEL 8
REMARK VINA RESULT:      -6.0      4.544      8.366
REMARK  Name = 
REMARK  14 active torsions:
REMARK  status: ('A' for Active; 'I' for Inactive)
REMARK    1  A    between atoms: C_1  and  C_2
REMARK    2  A    between atoms: C_2  and  C_3
REMARK    3  A    between atoms: C_4  and  C_5
REMARK    4  A    between atoms: C_9  and  N_10
REMARK    5  A    between atoms: N_10  and  C_11
REMARK    6  A    between atoms: N_10  and  C_12
REMARK    7  A    between atoms: C_12  and  C_13
REMARK    8  A    between atoms: C_13  and  C_14
REMARK    9  A    between atoms: C_14  and  S_15
REMARK   10  A    between atoms: S_15  and  C_16
REMARK   11  A    between atoms: C_17  and  C_18
REMARK   12  A    between atoms: C_18  and  C_19
REMARK   13  A    between atoms: C_21  and  C_22
REMARK   14  A    between atoms: C_24  and  C_25
REMARK                            x       y       z     vdW  Elec       q    Type
REMARK                         _______ _______ _______ _____ _____    ______ ____
ROOT
ATOM      1  C   UNL     1       1.056   9.220  19.547  0.00  0.00    +0.000 A 
ATOM      2  C   UNL     1       1.393   8.248  20.426  0.00  0.00    +0.000 A 
ATOM      3  C   UNL     1       1.981   6.903  20.062  0.00  0.00    +0.000 C 
ATOM      4  N   UNL     1       1.204   8.447  21.771  0.00  0.00    +0.000 N 
ATOM      5  C   UNL     1       0.685   9.582  22.343  0.00  0.00    +0.000 A 
ATOM      6  O   UNL     1       0.638   9.715  23.563  0.00  0.00    +0.000 OA
ATOM      7  C   UNL     1       0.173  10.644  21.384  0.00  0.00    +0.000 A 
ATOM      8  C   UNL     1       0.391  10.447  20.058  0.00  0.00    +0.000 A 
ATOM      9  H   UNL     1       1.500   7.740  22.432  0.00  0.00    +0.000 HD
ENDROOT
BRANCH   1  11
ATOM     10  C   UNL     1       2.835   9.389  17.747  0.00  0.00    +0.000 C 
ATOM     11  C   UNL     1       1.374   9.096  18.068  0.00  0.00    +0.000 C 
ENDBRANCH   1  11
BRANCH   7  12
ATOM     12  N   UNL     1      -0.489  11.768  21.912  0.00  0.00    +0.000 N 
ATOM     13  C   UNL     1       0.135  13.094  21.858  0.00  0.00    +0.000 C 
BRANCH  12  14
ATOM     14  C   UNL     1      -1.549  11.684  22.929  0.00  0.00    +0.000 C 
BRANCH  14  15
ATOM     15  C   UNL     1      -2.847  12.408  22.575  0.00  0.00    +0.000 C 
BRANCH  15  16
ATOM     16  C   UNL     1      -3.691  12.614  23.833  0.00  0.00    +0.000 C 
BRANCH  16  17
ATOM     17  S   UNL     1      -4.531  14.228  23.757  0.00  0.00    +0.000 S 
ATOM     18  C   UNL     1      -6.234  13.649  23.575  0.00  0.00    +0.000 C 
ENDBRANCH  16  17
ENDBRANCH  15  16
ENDBRANCH  14  15
ENDBRANCH  12  14
ENDBRANCH   7  12
BRANCH   8  19
ATOM     19  C   UNL     1      -0.104  11.485  19.059  0.00  0.00    +0.000 C 
BRANCH  19  20
ATOM     20  C   UNL     1      -1.500  11.268  18.502  0.00  0.00    +0.000 A 
ATOM     21  C   UNL     1      -2.647  11.776  19.127  0.00  0.00    +0.000 A 
ATOM     22  C   UNL     1      -3.920  11.585  18.572  0.00  0.00    +0.000 A 
ATOM     23  C   UNL     1      -5.127  12.158  19.248  0.00  0.00    +0.000 C 
ATOM     24  C   UNL     1      -4.040  10.878  17.373  0.00  0.00    +0.000 A 
ATOM     25  C   UNL     1      -2.913  10.351  16.733  0.00  0.00    +0.000 A 
ATOM     26  C   UNL     1      -3.036   9.628  15.425  0.00  0.00    +0.000 C 
ATOM     27  C   UNL     1      -1.650  10.537  17.313  0.00  0.00    +0.000 A 
ENDBRANCH  19  20
ENDBRANCH   8  19
TORSDOF 8
ENDMDL
MODEL 9
REMARK VINA RESULT:      -6.0      5.709      9.114
REMARK  Name = 
REMARK  14 active torsions:
REMARK  status: ('A' for Active; 'I' for Inactive)
REMARK    1  A    between atoms: C_1  and  C_2
REMARK    2  A    between atoms: C_2  and  C_3
REMARK    3  A    between atoms: C_4  and  C_5
REMARK    4  A    between atoms: C_9  and  N_10
REMARK    5  A    between atoms: N_10  and  C_11
REMARK    6  A    between atoms: N_10  and  C_12
REMARK    7  A    between atoms: C_12  and  C_13
REMARK    8  A    between atoms: C_13  and  C_14
REMARK    9  A    between atoms: C_14  and  S_15
REMARK   10  A    between atoms: S_15  and  C_16
REMARK   11  A    between atoms: C_17  and  C_18
REMARK   12  A    between atoms: C_18  and  C_19
REMARK   13  A    between atoms: C_21  and  C_22
REMARK   14  A    between atoms: C_24  and  C_25
REMARK                            x       y       z     vdW  Elec       q    Type
REMARK                         _______ _______ _______ _____ _____    ______ ____
ROOT
ATOM      1  C   UNL     1       0.154  10.136  19.706  0.00  0.00    +0.000 A 
ATOM      2  C   UNL     1       0.442   9.360  20.777  0.00  0.00    +0.000 A 
ATOM      3  C   UNL     1       1.203   8.055  20.735  0.00  0.00    +0.000 C 
ATOM      4  N   UNL     1       0.031   9.745  22.029  0.00  0.00    +0.000 N 
ATOM      5  C   UNL     1      -0.674  10.886  22.321  0.00  0.00    +0.000 A 
ATOM      6  O   UNL     1      -0.919  11.203  23.482  0.00  0.00    +0.000 OA
ATOM      7  C   UNL     1      -1.130  11.717  21.132  0.00  0.00    +0.000 A 
ATOM      8  C   UNL     1      -0.694  11.340  19.902  0.00  0.00    +0.000 A 
ATOM      9  H   UNL     1       0.287   9.191  22.837  0.00  0.00    +0.000 HD
ENDROOT
BRANCH   1  11
ATOM     10  C   UNL     1       2.066  10.456  18.071  0.00  0.00    +0.000 C 
ATOM     11  C   UNL     1       0.706   9.819  18.328  0.00  0.00    +0.000 C 
ENDBRANCH   1  11
BRANCH   7  12
ATOM     12  N   UNL     1      -1.967  12.824  21.363  0.00  0.00    +0.000 N 
ATOM     13  C   UNL     1      -1.398  14.136  21.682  0.00  0.00    +0.000 C 
BRANCH  12  14
ATOM     14  C   UNL     1      -3.377  12.706  21.770  0.00  0.00    +0.000 C 
BRANCH  14  15
ATOM     15  C   UNL     1      -4.179  14.005  21.715  0.00  0.00    +0.000 C 
BRANCH  15  16
ATOM     16  C   UNL     1      -5.305  13.969  22.749  0.00  0.00    +0.000 C 
BRANCH  16  17
ATOM     17  S   UNL     1      -5.283  15.494  23.743  0.00  0.00    +0.000 S 
ATOM     18  C   UNL     1      -3.665  15.296  24.524  0.00  0.00    +0.000 C 
ENDBRANCH  16  17
ENDBRANCH  15  16
ENDBRANCH  14  15
ENDBRANCH  12  14
ENDBRANCH   7  12
BRANCH   8  19
ATOM     19  C   UNL     1      -1.124  12.142  18.681  0.00  0.00    +0.000 C 
BRANCH  19  20
ATOM     20  C   UNL     1      -2.331  11.616  17.924  0.00  0.00    +0.000 A 
ATOM     21  C   UNL     1      -3.629  11.658  18.452  0.00  0.00    +0.000 A 
ATOM     22  C   UNL     1      -4.727  11.192  17.717  0.00  0.00    +0.000 A 
ATOM     23  C   UNL     1      -6.105  11.270  18.295  0.00  0.00    +0.000 C 
ATOM     24  C   UNL     1      -4.518  10.681  16.433  0.00  0.00    +0.000 A 
ATOM     25  C   UNL     1      -3.232  10.617  15.885  0.00  0.00    +0.000 A 
ATOM     26  C   UNL     1      -3.012  10.107  14.492  0.00  0.00    +0.000 C 
ATOM     27  C   UNL     1      -2.144  11.071  16.643  0.00  0.00    +0.000 A 
ENDBRANCH  19  20
ENDBRANCH   8  19
TORSDOF 8
ENDMDL
