MODEL 1
REMARK VINA RESULT:      -9.0      0.000      0.000
REMARK  Name = 
REMARK  8 active torsions:
REMARK  status: ('A' for Active; 'I' for Inactive)
REMARK    1  A    between atoms: C_1  and  O_2
REMARK    2  A    between atoms: O_2  and  C_3
REMARK    3  A    between atoms: C_6  and  C_7
REMARK    4  A    between atoms: C_15  and  N_16
REMARK    5  A    between atoms: N_16  and  C_17
REMARK    6  A    between atoms: C_17  and  C_18
REMARK    7  A    between atoms: C_27  and  O_28
REMARK    8  A    between atoms: O_28  and  C_29
REMARK                            x       y       z     vdW  Elec       q    Type
REMARK                         _______ _______ _______ _____ _____    ______ ____
ROOT
ATOM      1  C   UNL     1       2.638   7.720  18.393  0.00  0.00    +0.000 A 
ATOM      2  C   UNL     1       2.163   8.944  17.624  0.00  0.00    +0.000 A 
ATOM      3  N   UNL     1       1.321   9.860  17.981  0.00  0.00    +0.000 NA
ATOM      4  C   UNL     1       0.803   9.715  19.223  0.00  0.00    +0.000 A 
ATOM      5  N   UNL     1      -0.102  10.439  19.839  0.00  0.00    +0.000 NA
ATOM      6  C   UNL     1      -0.218   9.848  21.052  0.00  0.00    +0.000 A 
ATOM      7  N   UNL     1       0.576   8.798  21.264  0.00  0.00    +0.000 NA
ATOM      8  N   UNL     1       1.221   8.686  20.067  0.00  0.00    +0.000 N 
ATOM      9  C   UNL     1       2.130   7.667  19.662  0.00  0.00    +0.000 A 
ENDROOT
BRANCH   1  13
ATOM     10  C   UNL     1       5.381   4.843  16.567  0.00  0.00    +0.000 A 
ATOM     11  C   UNL     1       4.092   4.464  16.963  0.00  0.00    +0.000 A 
ATOM     12  C   UNL     1       3.200   5.393  17.519  0.00  0.00    +0.000 A 
ATOM     13  C   UNL     1       3.554   6.736  17.722  0.00  0.00    +0.000 A 
ATOM     14  C   UNL     1       4.843   7.078  17.296  0.00  0.00    +0.000 A 
ATOM     15  C   UNL     1       5.774   6.161  16.773  0.00  0.00    +0.000 A 
BRANCH  10  17
ATOM     16  C   UNL     1       6.249   3.894  14.586  0.00  0.00    +0.000 C 
ATOM     17  O   UNL     1       6.251   3.948  16.013  0.00  0.00    +0.000 OA
ENDBRANCH  10  17
BRANCH  15  18
ATOM     18  O   UNL     1       6.974   6.766  16.516  0.00  0.00    +0.000 OA
ATOM     19  C   UNL     1       7.634   7.483  17.543  0.00  0.00    +0.000 C 
ENDBRANCH  15  18
ENDBRANCH   1  13
BRANCH   9  20
ATOM     20  N   UNL     1       2.398   6.698  20.663  0.00  0.00    +0.000 N 
ATOM     21  H   UNL     1       2.626   7.207  21.527  0.00  0.00    +0.000 HD
BRANCH  20  22
ATOM     22  C   UNL     1       1.393   5.678  21.002  0.00  0.00    +0.000 C 
BRANCH  22  23
ATOM     23  C   UNL     1       1.757   4.328  20.431  0.00  0.00    +0.000 A 
ATOM     24  C   UNL     1       0.823   3.602  19.679  0.00  0.00    +0.000 A 
ATOM     25  C   UNL     1       1.182   2.387  19.102  0.00  0.00    +0.000 A 
ATOM     26  F   UNL     1       0.285   1.725  18.359  0.00  0.00    +0.000 F 
ATOM     27  C   UNL     1       2.457   1.860  19.261  0.00  0.00    +0.000 A 
ATOM     28  C   UNL     1       3.371   2.562  20.033  0.00  0.00    +0.000 A 
ATOM     29  F   UNL     1       4.607   2.071  20.192  0.00  0.00    +0.000 F 
ATOM     30  C   UNL     1       3.035   3.780  20.624  0.00  0.00    +0.000 A 
ENDBRANCH  22  23
ENDBRANCH  20  22
ENDBRANCH   9  20
TORSDOF 6
ENDMDL
MODEL 2
REMARK VINA RESULT:      -8.9      0.150      1.530
REMARK  Name = 
REMARK  8 active torsions:
REMARK  status: ('A' for Active; 'I' for Inactive)
REMARK    1  A    between atoms: C_1  and  O_2
REMARK    2  A    between atoms: O_2  and  C_3
REMARK    3  A    between atoms: C_6  and  C_7
REMARK    4  A    between atoms: C_15  and  N_16
REMARK    5  A    between atoms: N_16  and  C_17
REMARK    6  A    between atoms: C_17  and  C_18
REMARK    7  A    between atoms: C_27  and  O_28
REMARK    8  A    between atoms: O_28  and  C_29
REMARK                            x       y       z     vdW  Elec       q    Type
REMARK                         _______ _______ _______ _____ _____    ______ ____
ROOT
ATOM      1  C   UNL     1       2.664   7.720  18.394  0.00  0.00    +0.000 A 
ATOM      2  C   UNL     1       2.131   8.933  17.647  0.00  0.00    +0.000 A 
ATOM      3  N   UNL     1       1.253   9.807  18.023  0.00  0.00    +0.000 NA
ATOM      4  C   UNL     1       0.751   9.621  19.266  0.00  0.00    +0.000 A 
ATOM      5  N   UNL     1      -0.180  10.295  19.899  0.00  0.00    +0.000 NA
ATOM      6  C   UNL     1      -0.262   9.682  21.105  0.00  0.00    +0.000 A 
ATOM      7  N   UNL     1       0.579   8.664  21.295  0.00  0.00    +0.000 NA
ATOM      8  N   UNL     1       1.219   8.598  20.092  0.00  0.00    +0.000 N 
ATOM      9  C   UNL     1       2.168   7.626  19.665  0.00  0.00    +0.000 A 
ENDROOT
BRANCH   1  13
ATOM     10  C   UNL     1       5.513   4.988  16.507  0.00  0.00    +0.000 A 
ATOM     11  C   UNL     1       4.230   4.560  16.869  0.00  0.00    +0.000 A 
ATOM     12  C   UNL     1       3.304   5.443  17.445  0.00  0.00    +0.000 A 
ATOM     13  C   UNL     1       3.618   6.786  17.702  0.00  0.00    +0.000 A 
ATOM     14  C   UNL     1       4.902   7.179  17.308  0.00  0.00    +0.000 A 
ATOM     15  C   UNL     1       5.866   6.308  16.766  0.00  0.00    +0.000 A 
BRANCH  10  17
ATOM     16  C   UNL     1       6.224   3.890  14.541  0.00  0.00    +0.000 C 
ATOM     17  O   UNL     1       6.415   4.138  15.934  0.00  0.00    +0.000 OA
ENDBRANCH  10  17
BRANCH  15  18
ATOM     18  O   UNL     1       7.052   6.955  16.550  0.00  0.00    +0.000 OA
ATOM     19  C   UNL     1       7.690   7.629  17.619  0.00  0.00    +0.000 C 
ENDBRANCH  15  18
ENDBRANCH   1  13
BRANCH   9  20
ATOM     20  N   UNL     1       2.485   6.655  20.649  0.00  0.00    +0.000 N 
ATOM     21  H   UNL     1       2.714   7.161  21.515  0.00  0.00    +0.000 HD
BRANCH  20  22
ATOM     22  C   UNL     1       1.519   5.600  20.996  0.00  0.00    +0.000 C 
BRANCH  22  23
ATOM     23  C   UNL     1       1.853   4.295  20.314  0.00  0.00    +0.000 A 
ATOM     24  C   UNL     1       3.140   3.750  20.421  0.00  0.00    +0.000 A 
ATOM     25  C   UNL     1       3.427   2.515  19.843  0.00  0.00    +0.000 A 
ATOM     26  F   UNL     1       4.654   1.997  19.985  0.00  0.00    +0.000 F 
ATOM     27  C   UNL     1       2.463   1.802  19.146  0.00  0.00    +0.000 A 
ATOM     28  C   UNL     1       1.198   2.357  19.012  0.00  0.00    +0.000 A 
ATOM     29  F   UNL     1       0.253   1.679  18.347  0.00  0.00    +0.000 F 
ATOM     30  C   UNL     1       0.886   3.593  19.578  0.00  0.00    +0.000 A 
ENDBRANCH  22  23
ENDBRANCH  20  22
ENDBRANCH   9  20
TORSDOF 6
ENDMDL
MODEL 3
REMARK VINA RESULT:      -8.6      2.983      5.328
REMARK  Name = 
REMARK  8 active torsions:
REMARK  status: ('A' for Active; 'I' for Inactive)
REMARK    1  A    between atoms: C_1  and  O_2
REMARK    2  A    between atoms: O_2  and  C_3
REMARK    3  A    between atoms: C_6  and  C_7
REMARK    4  A    between atoms: C_15  and  N_16
REMARK    5  A    between atoms: N_16  and  C_17
REMARK    6  A    between atoms: C_17  and  C_18
REMARK    7  A    between atoms: C_27  and  O_28
REMARK    8  A    between atoms: O_28  and  C_29
REMARK                            x       y       z     vdW  Elec       q    Type
REMARK                         _______ _______ _______ _____ _____    ______ ____
ROOT
ATOM      1  C   UNL     1       4.071   3.843  17.828  0.00  0.00    +0.000 A 
ATOM      2  C   UNL     1       3.675   2.376  17.884  0.00  0.00    +0.000 A 
ATOM      3  N   UNL     1       2.925   1.761  18.743  0.00  0.00    +0.000 NA
ATOM      4  C   UNL     1       2.408   2.542  19.719  0.00  0.00    +0.000 A 
ATOM      5  N   UNL     1       1.667   2.208  20.750  0.00  0.00    +0.000 NA
ATOM      6  C   UNL     1       1.430   3.386  21.374  0.00  0.00    +0.000 A 
ATOM      7  N   UNL     1       1.956   4.466  20.794  0.00  0.00    +0.000 NA
ATOM      8  N   UNL     1       2.620   3.920  19.734  0.00  0.00    +0.000 N 
ATOM      9  C   UNL     1       3.464   4.589  18.802  0.00  0.00    +0.000 A 
ENDROOT
BRANCH   1  13
ATOM     10  C   UNL     1       7.012   5.117  14.850  0.00  0.00    +0.000 A 
ATOM     11  C   UNL     1       6.079   4.113  14.563  0.00  0.00    +0.000 A 
ATOM     12  C   UNL     1       5.114   3.726  15.506  0.00  0.00    +0.000 A 
ATOM     13  C   UNL     1       5.045   4.307  16.781  0.00  0.00    +0.000 A 
ATOM     14  C   UNL     1       5.982   5.319  17.022  0.00  0.00    +0.000 A 
ATOM     15  C   UNL     1       6.986   5.701  16.113  0.00  0.00    +0.000 A 
BRANCH  10  17
ATOM     16  C   UNL     1       7.695   5.097  12.590  0.00  0.00    +0.000 C 
ATOM     17  O   UNL     1       7.945   5.509  13.934  0.00  0.00    +0.000 OA
ENDBRANCH  10  17
BRANCH  15  18
ATOM     18  O   UNL     1       7.801   6.660  16.649  0.00  0.00    +0.000 OA
ATOM     19  C   UNL     1       7.250   7.667  17.478  0.00  0.00    +0.000 C 
ENDBRANCH  15  18
ENDBRANCH   1  13
BRANCH   9  20
ATOM     20  N   UNL     1       3.568   5.988  19.013  0.00  0.00    +0.000 N 
ATOM     21  H   UNL     1       4.570   6.223  19.012  0.00  0.00    +0.000 HD
BRANCH  20  22
ATOM     22  C   UNL     1       2.891   6.931  18.108  0.00  0.00    +0.000 C 
BRANCH  22  23
ATOM     23  C   UNL     1       2.108   7.971  18.874  0.00  0.00    +0.000 A 
ATOM     24  C   UNL     1       1.601   9.100  18.217  0.00  0.00    +0.000 A 
ATOM     25  C   UNL     1       0.826  10.025  18.912  0.00  0.00    +0.000 A 
ATOM     26  F   UNL     1       0.324  11.081  18.258  0.00  0.00    +0.000 F 
ATOM     27  C   UNL     1       0.545   9.863  20.262  0.00  0.00    +0.000 A 
ATOM     28  C   UNL     1       1.075   8.762  20.920  0.00  0.00    +0.000 A 
ATOM     29  F   UNL     1       0.809   8.587  22.221  0.00  0.00    +0.000 F 
ATOM     30  C   UNL     1       1.856   7.823  20.247  0.00  0.00    +0.000 A 
ENDBRANCH  22  23
ENDBRANCH  20  22
ENDBRANCH   9  20
TORSDOF 6
ENDMDL
MODEL 4
REMARK VINA RESULT:      -8.6      2.985      5.411
REMARK  Name = 
REMARK  8 active torsions:
REMARK  status: ('A' for Active; 'I' for Inactive)
REMARK    1  A    between atoms: C_1  and  O_2
REMARK    2  A    between atoms: O_2  and  C_3
REMARK    3  A    between atoms: C_6  and  C_7
REMARK    4  A    between atoms: C_15  and  N_16
REMARK    5  A    between atoms: N_16  and  C_17
REMARK    6  A    between atoms: C_17  and  C_18
REMARK    7  A    between atoms: C_27  and  O_28
REMARK    8  A    between atoms: O_28  and  C_29
REMARK                            x       y       z     vdW  Elec       q    Type
REMARK                         _______ _______ _______ _____ _____    ______ ____
ROOT
ATOM      1  C   UNL     1       4.066   3.846  17.823  0.00  0.00    +0.000 A 
ATOM      2  C   UNL     1       3.657   2.382  17.866  0.00  0.00    +0.000 A 
ATOM      3  N   UNL     1       2.903   1.765  18.719  0.00  0.00    +0.000 NA
ATOM      4  C   UNL     1       2.392   2.542  19.703  0.00  0.00    +0.000 A 
ATOM      5  N   UNL     1       1.650   2.205  20.731  0.00  0.00    +0.000 NA
ATOM      6  C   UNL     1       1.423   3.380  21.367  0.00  0.00    +0.000 A 
ATOM      7  N   UNL     1       1.958   4.460  20.796  0.00  0.00    +0.000 NA
ATOM      8  N   UNL     1       2.617   3.918  19.731  0.00  0.00    +0.000 N 
ATOM      9  C   UNL     1       3.466   4.588  18.804  0.00  0.00    +0.000 A 
ENDROOT
BRANCH   1  13
ATOM     10  C   UNL     1       7.016   5.122  14.855  0.00  0.00    +0.000 A 
ATOM     11  C   UNL     1       6.074   4.129  14.560  0.00  0.00    +0.000 A 
ATOM     12  C   UNL     1       5.106   3.741  15.499  0.00  0.00    +0.000 A 
ATOM     13  C   UNL     1       5.043   4.311  16.780  0.00  0.00    +0.000 A 
ATOM     14  C   UNL     1       5.989   5.313  17.029  0.00  0.00    +0.000 A 
ATOM     15  C   UNL     1       6.996   5.694  16.123  0.00  0.00    +0.000 A 
BRANCH  10  17
ATOM     16  C   UNL     1       7.701   5.110  12.595  0.00  0.00    +0.000 C 
ATOM     17  O   UNL     1       7.952   5.514  13.941  0.00  0.00    +0.000 OA
ENDBRANCH  10  17
BRANCH  15  18
ATOM     18  O   UNL     1       7.819   6.640  16.667  0.00  0.00    +0.000 OA
ATOM     19  C   UNL     1       7.272   7.670  17.471  0.00  0.00    +0.000 C 
ENDBRANCH  15  18
ENDBRANCH   1  13
BRANCH   9  20
ATOM     20  N   UNL     1       3.581   5.984  19.027  0.00  0.00    +0.000 N 
ATOM     21  H   UNL     1       4.586   6.206  19.055  0.00  0.00    +0.000 HD
BRANCH  20  22
ATOM     22  C   UNL     1       2.942   6.942  18.112  0.00  0.00    +0.000 C 
BRANCH  22  23
ATOM     23  C   UNL     1       2.109   7.956  18.861  0.00  0.00    +0.000 A 
ATOM     24  C   UNL     1       1.854   7.789  20.228  0.00  0.00    +0.000 A 
ATOM     25  C   UNL     1       1.139   8.757  20.929  0.00  0.00    +0.000 A 
ATOM     26  F   UNL     1       0.933   8.595  22.243  0.00  0.00    +0.000 F 
ATOM     27  C   UNL     1       0.656   9.896  20.300  0.00  0.00    +0.000 A 
ATOM     28  C   UNL     1       0.881  10.045  18.939  0.00  0.00    +0.000 A 
ATOM     29  F   UNL     1       0.427  11.141  18.316  0.00  0.00    +0.000 F 
ATOM     30  C   UNL     1       1.591   9.088  18.213  0.00  0.00    +0.000 A 
ENDBRANCH  22  23
ENDBRANCH  20  22
ENDBRANCH   9  20
TORSDOF 6
ENDMDL
MODEL 5
REMARK VINA RESULT:      -8.1      1.343      1.393
REMARK  Name = 
REMARK  8 active torsions:
REMARK  status: ('A' for Active; 'I' for Inactive)
REMARK    1  A    between atoms: C_1  and  O_2
REMARK    2  A    between atoms: O_2  and  C_3
REMARK    3  A    between atoms: C_6  and  C_7
REMARK    4  A    between atoms: C_15  and  N_16
REMARK    5  A    between atoms: N_16  and  C_17
REMARK    6  A    between atoms: C_17  and  C_18
REMARK    7  A    between atoms: C_27  and  O_28
REMARK    8  A    between atoms: O_28  and  C_29
REMARK                            x       y       z     vdW  Elec       q    Type
REMARK                         _______ _______ _______ _____ _____    ______ ____
ROOT
ATOM      1  C   UNL     1       2.853   7.713  18.622  0.00  0.00    +0.000 A 
ATOM      2  C   UNL     1       2.444   9.011  17.943  0.00  0.00    +0.000 A 
ATOM      3  N   UNL     1       1.520   9.855  18.276  0.00  0.00    +0.000 NA
ATOM      4  C   UNL     1       0.833   9.543  19.400  0.00  0.00    +0.000 A 
ATOM      5  N   UNL     1      -0.182  10.162  19.955  0.00  0.00    +0.000 NA
ATOM      6  C   UNL     1      -0.449   9.421  21.058  0.00  0.00    +0.000 A 
ATOM      7  N   UNL     1       0.349   8.372  21.259  0.00  0.00    +0.000 NA
ATOM      8  N   UNL     1       1.166   8.427  20.168  0.00  0.00    +0.000 N 
ATOM      9  C   UNL     1       2.168   7.489  19.785  0.00  0.00    +0.000 A 
ENDROOT
BRANCH   1  13
ATOM     10  C   UNL     1       5.825   5.059  16.814  0.00  0.00    +0.000 A 
ATOM     11  C   UNL     1       4.846   5.688  16.035  0.00  0.00    +0.000 A 
ATOM     12  C   UNL     1       3.912   6.565  16.608  0.00  0.00    +0.000 A 
ATOM     13  C   UNL     1       3.899   6.842  17.984  0.00  0.00    +0.000 A 
ATOM     14  C   UNL     1       4.905   6.209  18.724  0.00  0.00    +0.000 A 
ATOM     15  C   UNL     1       5.829   5.295  18.185  0.00  0.00    +0.000 A 
BRANCH  10  17
ATOM     16  C   UNL     1       6.997   4.410  14.870  0.00  0.00    +0.000 C 
ATOM     17  O   UNL     1       6.745   4.216  16.261  0.00  0.00    +0.000 OA
ENDBRANCH  10  17
BRANCH  15  18
ATOM     18  O   UNL     1       6.641   4.780  19.158  0.00  0.00    +0.000 OA
ATOM     19  C   UNL     1       7.738   5.540  19.632  0.00  0.00    +0.000 C 
ENDBRANCH  15  18
ENDBRANCH   1  13
BRANCH   9  20
ATOM     20  N   UNL     1       2.327   6.409  20.691  0.00  0.00    +0.000 N 
ATOM     21  H   UNL     1       2.171   6.780  21.638  0.00  0.00    +0.000 HD
BRANCH  20  22
ATOM     22  C   UNL     1       1.513   5.192  20.553  0.00  0.00    +0.000 C 
BRANCH  22  23
ATOM     23  C   UNL     1       2.229   4.132  19.750  0.00  0.00    +0.000 A 
ATOM     24  C   UNL     1       1.954   3.973  18.385  0.00  0.00    +0.000 A 
ATOM     25  C   UNL     1       2.660   3.037  17.633  0.00  0.00    +0.000 A 
ATOM     26  F   UNL     1       2.405   2.923  16.323  0.00  0.00    +0.000 F 
ATOM     27  C   UNL     1       3.638   2.238  18.208  0.00  0.00    +0.000 A 
ATOM     28  C   UNL     1       3.888   2.373  19.567  0.00  0.00    +0.000 A 
ATOM     29  F   UNL     1       4.833   1.614  20.138  0.00  0.00    +0.000 F 
ATOM     30  C   UNL     1       3.191   3.301  20.342  0.00  0.00    +0.000 A 
ENDBRANCH  22  23
ENDBRANCH  20  22
ENDBRANCH   9  20
TORSDOF 6
ENDMDL
MODEL 6
REMARK VINA RESULT:      -8.0      1.349      1.943
REMARK  Name = 
REMARK  8 active torsions:
REMARK  status: ('A' for Active; 'I' for Inactive)
REMARK    1  A    between atoms: C_1  and  O_2
REMARK    2  A    between atoms: O_2  and  C_3
REMARK    3  A    between atoms: C_6  and  C_7
REMARK    4  A    between atoms: C_15  and  N_16
REMARK    5  A    between atoms: N_16  and  C_17
REMARK    6  A    between atoms: C_17  and  C_18
REMARK    7  A    between atoms: C_27  and  O_28
REMARK    8  A    between atoms: O_28  and  C_29
REMARK                            x       y       z     vdW  Elec       q    Type
REMARK                         _______ _______ _______ _____ _____    ______ ____
ROOT
ATOM      1  C   UNL     1       2.903   7.753  18.545  0.00  0.00    +0.000 A 
ATOM      2  C   UNL     1       2.473   9.047  17.871  0.00  0.00    +0.000 A 
ATOM      3  N   UNL     1       1.541   9.879  18.212  0.00  0.00    +0.000 NA
ATOM      4  C   UNL     1       0.864   9.556  19.339  0.00  0.00    +0.000 A 
ATOM      5  N   UNL     1      -0.155  10.160  19.901  0.00  0.00    +0.000 NA
ATOM      6  C   UNL     1      -0.407   9.414  21.004  0.00  0.00    +0.000 A 
ATOM      7  N   UNL     1       0.406   8.374  21.198  0.00  0.00    +0.000 NA
ATOM      8  N   UNL     1       1.216   8.442  20.102  0.00  0.00    +0.000 N 
ATOM      9  C   UNL     1       2.227   7.518  19.711  0.00  0.00    +0.000 A 
ENDROOT
BRANCH   1  13
ATOM     10  C   UNL     1       5.893   5.142  16.706  0.00  0.00    +0.000 A 
ATOM     11  C   UNL     1       4.939   5.810  15.929  0.00  0.00    +0.000 A 
ATOM     12  C   UNL     1       3.999   6.673  16.513  0.00  0.00    +0.000 A 
ATOM     13  C   UNL     1       3.955   6.897  17.898  0.00  0.00    +0.000 A 
ATOM     14  C   UNL     1       4.937   6.226  18.637  0.00  0.00    +0.000 A 
ATOM     15  C   UNL     1       5.866   5.324  18.085  0.00  0.00    +0.000 A 
BRANCH  10  17
ATOM     16  C   UNL     1       6.603   3.996  14.768  0.00  0.00    +0.000 C 
ATOM     17  O   UNL     1       6.819   4.311  16.144  0.00  0.00    +0.000 OA
ENDBRANCH  10  17
BRANCH  15  18
ATOM     18  O   UNL     1       6.649   4.763  19.056  0.00  0.00    +0.000 OA
ATOM     19  C   UNL     1       7.708   5.513  19.624  0.00  0.00    +0.000 C 
ENDBRANCH  15  18
ENDBRANCH   1  13
BRANCH   9  20
ATOM     20  N   UNL     1       2.405   6.438  20.613  0.00  0.00    +0.000 N 
ATOM     21  H   UNL     1       2.239   6.802  21.561  0.00  0.00    +0.000 HD
BRANCH  20  22
ATOM     22  C   UNL     1       1.615   5.205  20.468  0.00  0.00    +0.000 C 
BRANCH  22  23
ATOM     23  C   UNL     1       2.335   4.179  19.627  0.00  0.00    +0.000 A 
ATOM     24  C   UNL     1       3.288   3.331  20.208  0.00  0.00    +0.000 A 
ATOM     25  C   UNL     1       3.905   2.344  19.443  0.00  0.00    +0.000 A 
ATOM     26  F   UNL     1       4.789   1.522  20.025  0.00  0.00    +0.000 F 
ATOM     27  C   UNL     1       3.606   2.179  18.097  0.00  0.00    +0.000 A 
ATOM     28  C   UNL     1       2.687   3.040  17.515  0.00  0.00    +0.000 A 
ATOM     29  F   UNL     1       2.382   2.893  16.218  0.00  0.00    +0.000 F 
ATOM     30  C   UNL     1       2.058   4.039  18.258  0.00  0.00    +0.000 A 
ENDBRANCH  22  23
ENDBRANCH  20  22
ENDBRANCH   9  20
TORSDOF 6
ENDMDL
MODEL 7
REMARK VINA RESULT:      -7.7      3.768      6.932
REMARK  Name = 
REMARK  8 active torsions:
REMARK  status: ('A' for Active; 'I' for Inactive)
REMARK    1  A    between atoms: C_1  and  O_2
REMARK    2  A    between atoms: O_2  and  C_3
REMARK    3  A    between atoms: C_6  and  C_7
REMARK    4  A    between atoms: C_15  and  N_16
REMARK    5  A    between atoms: N_16  and  C_17
REMARK    6  A    between atoms: C_17  and  C_18
REMARK    7  A    between atoms: C_27  and  O_28
REMARK    8  A    between atoms: O_28  and  C_29
REMARK                            x       y       z     vdW  Elec       q    Type
REMARK                         _______ _______ _______ _____ _____    ______ ____
ROOT
ATOM      1  C   UNL     1       2.108   6.369  19.887  0.00  0.00    +0.000 A 
ATOM      2  C   UNL     1       1.941   5.441  21.080  0.00  0.00    +0.000 A 
ATOM      3  N   UNL     1       2.192   4.174  21.175  0.00  0.00    +0.000 NA
ATOM      4  C   UNL     1       2.691   3.600  20.056  0.00  0.00    +0.000 A 
ATOM      5  N   UNL     1       2.989   2.343  19.825  0.00  0.00    +0.000 NA
ATOM      6  C   UNL     1       3.461   2.350  18.555  0.00  0.00    +0.000 A 
ATOM      7  N   UNL     1       3.505   3.543  17.959  0.00  0.00    +0.000 NA
ATOM      8  N   UNL     1       2.976   4.356  18.919  0.00  0.00    +0.000 N 
ATOM      9  C   UNL     1       2.677   5.744  18.811  0.00  0.00    +0.000 A 
ENDROOT
BRANCH   1  13
ATOM     10  C   UNL     1       0.901  10.559  20.245  0.00  0.00    +0.000 A 
ATOM     11  C   UNL     1       1.247  10.008  19.004  0.00  0.00    +0.000 A 
ATOM     12  C   UNL     1       1.604   8.657  18.882  0.00  0.00    +0.000 A 
ATOM     13  C   UNL     1       1.648   7.796  19.991  0.00  0.00    +0.000 A 
ATOM     14  C   UNL     1       1.276   8.380  21.208  0.00  0.00    +0.000 A 
ATOM     15  C   UNL     1       0.954   9.741  21.368  0.00  0.00    +0.000 A 
BRANCH  10  17
ATOM     16  C   UNL     1       1.615  12.782  20.599  0.00  0.00    +0.000 C 
ATOM     17  O   UNL     1       0.540  11.870  20.369  0.00  0.00    +0.000 OA
ENDBRANCH  10  17
BRANCH  15  18
ATOM     18  O   UNL     1       0.707  10.040  22.680  0.00  0.00    +0.000 OA
ATOM     19  C   UNL     1      -0.621  10.005  23.171  0.00  0.00    +0.000 C 
ENDBRANCH  15  18
ENDBRANCH   1  13
BRANCH   9  20
ATOM     20  N   UNL     1       3.019   6.316  17.559  0.00  0.00    +0.000 N 
ATOM     21  H   UNL     1       2.271   6.976  17.310  0.00  0.00    +0.000 HD
BRANCH  20  22
ATOM     22  C   UNL     1       4.302   7.015  17.383  0.00  0.00    +0.000 C 
BRANCH  22  23
ATOM     23  C   UNL     1       5.354   6.106  16.793  0.00  0.00    +0.000 A 
ATOM     24  C   UNL     1       6.385   5.601  17.598  0.00  0.00    +0.000 A 
ATOM     25  C   UNL     1       7.317   4.714  17.066  0.00  0.00    +0.000 A 
ATOM     26  F   UNL     1       8.275   4.218  17.860  0.00  0.00    +0.000 F 
ATOM     27  C   UNL     1       7.260   4.316  15.737  0.00  0.00    +0.000 A 
ATOM     28  C   UNL     1       6.259   4.840  14.933  0.00  0.00    +0.000 A 
ATOM     29  F   UNL     1       6.185   4.463  13.649  0.00  0.00    +0.000 F 
ATOM     30  C   UNL     1       5.315   5.734  15.440  0.00  0.00    +0.000 A 
ENDBRANCH  22  23
ENDBRANCH  20  22
ENDBRANCH   9  20
TORSDOF 6
ENDMDL
MODEL 8
REMARK VINA RESULT:      -7.6      3.782      6.843
REMARK  Name = 
REMARK  8 active torsions:
REMARK  status: ('A' for Active; 'I' for Inactive)
REMARK    1  A    between atoms: C_1  and  O_2
REMARK    2  A    between atoms: O_2  and  C_3
REMARK    3  A    between atoms: C_6  and  C_7
REMARK    4  A    between atoms: C_15  and  N_16
REMARK    5  A    between atoms: N_16  and  C_17
REMARK    6  A    between atoms: C_17  and  C_18
REMARK    7  A    between atoms: C_27  and  O_28
REMARK    8  A    between atoms: O_28  and  C_29
REMARK                            x       y       z     vdW  Elec       q    Type
REMARK                         _______ _______ _______ _____ _____    ______ ____
ROOT
ATOM      1  C   UNL     1       2.079   6.315  19.897  0.00  0.00    +0.000 A 
ATOM      2  C   UNL     1       1.911   5.368  21.075  0.00  0.00    +0.000 A 
ATOM      3  N   UNL     1       2.148   4.097  21.146  0.00  0.00    +0.000 NA
ATOM      4  C   UNL     1       2.630   3.537  20.013  0.00  0.00    +0.000 A 
ATOM      5  N   UNL     1       2.911   2.280  19.758  0.00  0.00    +0.000 NA
ATOM      6  C   UNL     1       3.371   2.303  18.483  0.00  0.00    +0.000 A 
ATOM      7  N   UNL     1       3.424   3.505  17.908  0.00  0.00    +0.000 NA
ATOM      8  N   UNL     1       2.914   4.308  18.886  0.00  0.00    +0.000 N 
ATOM      9  C   UNL     1       2.630   5.702  18.805  0.00  0.00    +0.000 A 
ENDROOT
BRANCH   1  13
ATOM     10  C   UNL     1       0.923  10.511  20.341  0.00  0.00    +0.000 A 
ATOM     11  C   UNL     1       1.285   9.987  19.093  0.00  0.00    +0.000 A 
ATOM     12  C   UNL     1       1.625   8.634  18.943  0.00  0.00    +0.000 A 
ATOM     13  C   UNL     1       1.637   7.745  20.029  0.00  0.00    +0.000 A 
ATOM     14  C   UNL     1       1.251   8.303  21.254  0.00  0.00    +0.000 A 
ATOM     15  C   UNL     1       0.944   9.663  21.443  0.00  0.00    +0.000 A 
BRANCH  10  17
ATOM     16  C   UNL     1      -0.646  12.211  19.868  0.00  0.00    +0.000 C 
ATOM     17  O   UNL     1       0.578  11.823  20.492  0.00  0.00    +0.000 OA
ENDBRANCH  10  17
BRANCH  15  18
ATOM     18  O   UNL     1       0.677   9.932  22.757  0.00  0.00    +0.000 OA
ATOM     19  C   UNL     1      -0.665  10.067  23.189  0.00  0.00    +0.000 C 
ENDBRANCH  15  18
ENDBRANCH   1  13
BRANCH   9  20
ATOM     20  N   UNL     1       2.968   6.291  17.559  0.00  0.00    +0.000 N 
ATOM     21  H   UNL     1       2.225   6.964  17.328  0.00  0.00    +0.000 HD
BRANCH  20  22
ATOM     22  C   UNL     1       4.258   6.977  17.383  0.00  0.00    +0.000 C 
BRANCH  22  23
ATOM     23  C   UNL     1       5.313   6.047  16.835  0.00  0.00    +0.000 A 
ATOM     24  C   UNL     1       5.319   5.708  15.474  0.00  0.00    +0.000 A 
ATOM     25  C   UNL     1       6.330   4.900  14.960  0.00  0.00    +0.000 A 
ATOM     26  F   UNL     1       6.336   4.614  13.651  0.00  0.00    +0.000 F 
ATOM     27  C   UNL     1       7.342   4.404  15.770  0.00  0.00    +0.000 A 
ATOM     28  C   UNL     1       7.317   4.713  17.122  0.00  0.00    +0.000 A 
ATOM     29  F   UNL     1       8.289   4.248  17.918  0.00  0.00    +0.000 F 
ATOM     30  C   UNL     1       6.314   5.518  17.663  0.00  0.00    +0.000 A 
ENDBRANCH  22  23
ENDBRANCH  20  22
ENDBRANCH   9  20
TORSDOF 6
ENDMDL
MODEL 9
REMARK VINA RESULT:      -7.5      3.509      6.900
REMARK  Name = 
REMARK  8 active torsions:
REMARK  status: ('A' for Active; 'I' for Inactive)
REMARK    1  A    between atoms: C_1  and  O_2
REMARK    2  A    between atoms: O_2  and  C_3
REMARK    3  A    between atoms: C_6  and  C_7
REMARK    4  A    between atoms: C_15  and  N_16
REMARK    5  A    between atoms: N_16  and  C_17
REMARK    6  A    between atoms: C_17  and  C_18
REMARK    7  A    between atoms: C_27  and  O_28
REMARK    8  A    between atoms: O_28  and  C_29
REMARK                            x       y       z     vdW  Elec       q    Type
REMARK                         _______ _______ _______ _____ _____    ______ ____
ROOT
ATOM      1  C   UNL     1       2.082   6.190  19.985  0.00  0.00    +0.000 A 
ATOM      2  C   UNL     1       1.899   5.113  21.043  0.00  0.00    +0.000 A 
ATOM      3  N   UNL     1       2.101   3.837  20.959  0.00  0.00    +0.000 NA
ATOM      4  C   UNL     1       2.557   3.404  19.760  0.00  0.00    +0.000 A 
ATOM      5  N   UNL     1       2.801   2.180  19.353  0.00  0.00    +0.000 NA
ATOM      6  C   UNL     1       3.250   2.344  18.085  0.00  0.00    +0.000 A 
ATOM      7  N   UNL     1       3.331   3.605  17.657  0.00  0.00    +0.000 NA
ATOM      8  N   UNL     1       2.852   4.298  18.731  0.00  0.00    +0.000 N 
ATOM      9  C   UNL     1       2.606   5.698  18.820  0.00  0.00    +0.000 A 
ENDROOT
BRANCH   1  13
ATOM     10  C   UNL     1       0.774  10.272  20.859  0.00  0.00    +0.000 A 
ATOM     11  C   UNL     1       1.164   9.401  21.884  0.00  0.00    +0.000 A 
ATOM     12  C   UNL     1       1.614   8.102  21.603  0.00  0.00    +0.000 A 
ATOM     13  C   UNL     1       1.681   7.605  20.292  0.00  0.00    +0.000 A 
ATOM     14  C   UNL     1       1.302   8.512  19.296  0.00  0.00    +0.000 A 
ATOM     15  C   UNL     1       0.807   9.806  19.549  0.00  0.00    +0.000 A 
BRANCH  10  17
ATOM     16  C   UNL     1      -0.558  11.667  22.221  0.00  0.00    +0.000 C 
ATOM     17  O   UNL     1       0.347  11.541  21.124  0.00  0.00    +0.000 OA
ENDBRANCH  10  17
BRANCH  15  18
ATOM     18  O   UNL     1       0.446  10.433  18.389  0.00  0.00    +0.000 OA
ATOM     19  C   UNL     1      -0.856  10.244  17.864  0.00  0.00    +0.000 C 
ENDBRANCH  15  18
ENDBRANCH   1  13
BRANCH   9  20
ATOM     20  N   UNL     1       2.949   6.423  17.650  0.00  0.00    +0.000 N 
ATOM     21  H   UNL     1       2.218   7.132  17.506  0.00  0.00    +0.000 HD
BRANCH  20  22
ATOM     22  C   UNL     1       4.251   7.101  17.546  0.00  0.00    +0.000 C 
BRANCH  22  23
ATOM     23  C   UNL     1       5.298   6.203  16.932  0.00  0.00    +0.000 A 
ATOM     24  C   UNL     1       6.326   5.672  17.722  0.00  0.00    +0.000 A 
ATOM     25  C   UNL     1       7.254   4.794  17.166  0.00  0.00    +0.000 A 
ATOM     26  F   UNL     1       8.210   4.272  17.946  0.00  0.00    +0.000 F 
ATOM     27  C   UNL     1       7.194   4.433  15.827  0.00  0.00    +0.000 A 
ATOM     28  C   UNL     1       6.196   4.984  15.037  0.00  0.00    +0.000 A 
ATOM     29  F   UNL     1       6.119   4.642  13.744  0.00  0.00    +0.000 F 
ATOM     30  C   UNL     1       5.256   5.868  15.569  0.00  0.00    +0.000 A 
ENDBRANCH  22  23
ENDBRANCH  20  22
ENDBRANCH   9  20
TORSDOF 6
ENDMDL
