MODEL 1
REMARK VINA RESULT:      -6.3      0.000      0.000
REMARK  Name = 
REMARK  14 active torsions:
REMARK  status: ('A' for Active; 'I' for Inactive)
REMARK    1  A    between atoms: C_1  and  N_2
REMARK    2  A    between atoms: N_2  and  C_3
REMARK    3  A    between atoms: N_2  and  C_4
REMARK    4  A    between atoms: C_4  and  C_5
REMARK    5  A    between atoms: C_5  and  C_6
REMARK    6  A    between atoms: C_6  and  N_7
REMARK    7  A    between atoms: N_7  and  C_8
REMARK    8  A    between atoms: N_7  and  S_27
REMARK    9  A    between atoms: C_12  and  C_13
REMARK   10  A    between atoms: N_18  and  C_19
REMARK   11  A    between atoms: C_19  and  C_20
REMARK   12  A    between atoms: N_24  and  C_25
REMARK   13  A    between atoms: S_27  and  C_30
REMARK   14  A    between atoms: N_32  and  C_33
REMARK                            x       y       z     vdW  Elec       q    Type
REMARK                         _______ _______ _______ _____ _____    ______ ____
ROOT
ATOM      1  C   UNL     1       0.106   9.602  19.811  0.00  0.00    +0.000 C 
ATOM      2  C   UNL     1       0.845  10.090  18.553  0.00  0.00    +0.000 C 
ATOM      3  C   UNL     1       0.980  11.591  18.569  0.00  0.00    +0.000 A 
ATOM      4  C   UNL     1       2.207  12.207  18.272  0.00  0.00    +0.000 A 
ATOM      5  C   UNL     1       2.411  13.555  18.587  0.00  0.00    +0.000 A 
ATOM      6  C   UNL     1       1.374  14.303  19.146  0.00  0.00    +0.000 A 
ATOM      7  C   UNL     1       0.121  13.717  19.326  0.00  0.00    +0.000 A 
ATOM      8  C   UNL     1      -0.096  12.356  19.040  0.00  0.00    +0.000 A 
ATOM      9  N   UNL     1      -1.301  11.757  19.433  0.00  0.00    +0.000 N 
ATOM     10  C   UNL     1      -1.284  10.319  19.844  0.00  0.00    +0.000 C 
ENDROOT
BRANCH   5  11
ATOM     11  C   UNL     1       3.700  14.148  18.402  0.00  0.00    +0.000 C 
ATOM     12  N   UNL     1       4.746  14.612  18.229  0.00  0.00    +0.000 NA
ENDBRANCH   5  11
BRANCH   1  13
ATOM     13  N   UNL     1       0.909   9.611  21.154  0.00  0.00    +0.000 NA
BRANCH  13  14
ATOM     14  S   UNL     1      -0.086   9.737  22.570  0.00  0.00    +0.000 S 
ATOM     15  O   UNL     1      -1.157   8.770  22.416  0.00  0.00    +0.000 OA
ATOM     16  O   UNL     1       0.796   9.664  23.719  0.00  0.00    +0.000 OA
BRANCH  14  17
ATOM     17  C   UNL     1      -0.937  11.290  22.781  0.00  0.00    +0.000 A 
ATOM     18  C   UNL     1      -2.244  11.461  23.222  0.00  0.00    +0.000 A 
ATOM     19  N   UNL     1      -2.383  12.800  23.479  0.00  0.00    +0.000 N 
ATOM     20  C   UNL     1      -3.506  13.447  24.116  0.00  0.00    +0.000 C 
ATOM     21  C   UNL     1      -1.214  13.409  23.134  0.00  0.00    +0.000 A 
ATOM     22  N   UNL     1      -0.312  12.535  22.719  0.00  0.00    +0.000 NA
ENDBRANCH  14  17
ENDBRANCH  13  14
BRANCH  13  23
ATOM     23  C   UNL     1       1.990   8.602  21.308  0.00  0.00    +0.000 C 
BRANCH  23  24
ATOM     24  C   UNL     1       1.547   7.243  20.796  0.00  0.00    +0.000 C 
BRANCH  24  25
ATOM     25  C   UNL     1       2.417   6.703  19.682  0.00  0.00    +0.000 C 
BRANCH  25  27
ATOM     26  C   UNL     1       2.018   4.625  20.840  0.00  0.00    +0.000 C 
ATOM     27  N   UNL     1       2.952   5.387  20.013  0.00  0.00    +0.000 NA
ATOM     28  C   UNL     1       3.278   4.685  18.779  0.00  0.00    +0.000 C 
ENDBRANCH  25  27
ENDBRANCH  24  25
ENDBRANCH  23  24
ENDBRANCH  13  23
ENDBRANCH   1  13
BRANCH   9  29
ATOM     29  C   UNL     1      -2.462  12.249  18.675  0.00  0.00    +0.000 C 
BRANCH  29  30
ATOM     30  C   UNL     1      -2.827  11.459  17.469  0.00  0.00    +0.000 A 
ATOM     31  C   UNL     1      -2.018  10.718  16.630  0.00  0.00    +0.000 A 
ATOM     32  N   UNL     1      -2.747  10.119  15.640  0.00  0.00    +0.000 NA
ATOM     33  C   UNL     1      -3.985  10.500  15.848  0.00  0.00    +0.000 A 
ATOM     34  N   UNL     1      -4.078  11.363  16.905  0.00  0.00    +0.000 N 
ATOM     35  C   UNL     1      -5.284  12.052  17.289  0.00  0.00    +0.000 C 
ENDBRANCH  29  30
ENDBRANCH   9  29
TORSDOF 10
ENDMDL
MODEL 2
REMARK VINA RESULT:      -6.2      1.998      6.883
REMARK  Name = 
REMARK  14 active torsions:
REMARK  status: ('A' for Active; 'I' for Inactive)
REMARK    1  A    between atoms: C_1  and  N_2
REMARK    2  A    between atoms: N_2  and  C_3
REMARK    3  A    between atoms: N_2  and  C_4
REMARK    4  A    between atoms: C_4  and  C_5
REMARK    5  A    between atoms: C_5  and  C_6
REMARK    6  A    between atoms: C_6  and  N_7
REMARK    7  A    between atoms: N_7  and  C_8
REMARK    8  A    between atoms: N_7  and  S_27
REMARK    9  A    between atoms: C_12  and  C_13
REMARK   10  A    between atoms: N_18  and  C_19
REMARK   11  A    between atoms: C_19  and  C_20
REMARK   12  A    between atoms: N_24  and  C_25
REMARK   13  A    between atoms: S_27  and  C_30
REMARK   14  A    between atoms: N_32  and  C_33
REMARK                            x       y       z     vdW  Elec       q    Type
REMARK                         _______ _______ _______ _____ _____    ______ ____
ROOT
ATOM      1  C   UNL     1       1.024  11.690  20.129  0.00  0.00    +0.000 C 
ATOM      2  C   UNL     1       0.752  12.301  21.514  0.00  0.00    +0.000 C 
ATOM      3  C   UNL     1      -0.651  12.848  21.583  0.00  0.00    +0.000 A 
ATOM      4  C   UNL     1      -1.478  12.571  22.684  0.00  0.00    +0.000 A 
ATOM      5  C   UNL     1      -2.855  12.810  22.605  0.00  0.00    +0.000 A 
ATOM      6  C   UNL     1      -3.398  13.377  21.452  0.00  0.00    +0.000 A 
ATOM      7  C   UNL     1      -2.553  13.762  20.410  0.00  0.00    +0.000 A 
ATOM      8  C   UNL     1      -1.170  13.505  20.460  0.00  0.00    +0.000 A 
ATOM      9  N   UNL     1      -0.393  13.711  19.311  0.00  0.00    +0.000 N 
ATOM     10  C   UNL     1       0.776  12.811  19.067  0.00  0.00    +0.000 C 
ENDROOT
BRANCH   5  11
ATOM     11  C   UNL     1      -3.715  12.410  23.677  0.00  0.00    +0.000 C 
ATOM     12  N   UNL     1      -4.405  12.112  24.557  0.00  0.00    +0.000 NA
ENDBRANCH   5  11
BRANCH   1  13
ATOM     13  N   UNL     1       0.365  10.304  19.822  0.00  0.00    +0.000 NA
BRANCH  13  14
ATOM     14  S   UNL     1       0.786   9.057  20.954  0.00  0.00    +0.000 S 
ATOM     15  O   UNL     1       1.702   9.651  21.909  0.00  0.00    +0.000 OA
ATOM     16  O   UNL     1      -0.454   8.462  21.413  0.00  0.00    +0.000 OA
BRANCH  14  17
ATOM     17  C   UNL     1       1.699   7.680  20.281  0.00  0.00    +0.000 A 
ATOM     18  C   UNL     1       1.686   6.373  20.754  0.00  0.00    +0.000 A 
ATOM     19  N   UNL     1       2.310   5.620  19.794  0.00  0.00    +0.000 N 
ATOM     20  C   UNL     1       2.396   4.179  19.745  0.00  0.00    +0.000 C 
ATOM     21  C   UNL     1       2.738   6.468  18.818  0.00  0.00    +0.000 A 
ATOM     22  N   UNL     1       2.382   7.718  19.066  0.00  0.00    +0.000 NA
ENDBRANCH  14  17
ENDBRANCH  13  14
BRANCH  13  23
ATOM     23  C   UNL     1      -1.083  10.298  19.484  0.00  0.00    +0.000 C 
BRANCH  23  24
ATOM     24  C   UNL     1      -1.294  10.135  17.989  0.00  0.00    +0.000 C 
BRANCH  24  25
ATOM     25  C   UNL     1      -2.750  10.007  17.595  0.00  0.00    +0.000 C 
BRANCH  25  27
ATOM     26  C   UNL     1      -2.859  10.524  15.242  0.00  0.00    +0.000 C 
ATOM     27  N   UNL     1      -3.122  11.003  16.598  0.00  0.00    +0.000 NA
ATOM     28  C   UNL     1      -4.523  11.358  16.783  0.00  0.00    +0.000 C 
ENDBRANCH  25  27
ENDBRANCH  24  25
ENDBRANCH  23  24
ENDBRANCH  13  23
ENDBRANCH   1  13
BRANCH   9  29
ATOM     29  C   UNL     1      -0.263  15.132  18.952  0.00  0.00    +0.000 C 
BRANCH  29  30
ATOM     30  C   UNL     1       0.723  15.910  19.748  0.00  0.00    +0.000 A 
ATOM     31  C   UNL     1       0.555  16.562  20.954  0.00  0.00    +0.000 A 
ATOM     32  N   UNL     1       1.721  17.145  21.368  0.00  0.00    +0.000 NA
ATOM     33  C   UNL     1       2.591  16.881  20.423  0.00  0.00    +0.000 A 
ATOM     34  N   UNL     1       2.021  16.189  19.390  0.00  0.00    +0.000 N 
ATOM     35  C   UNL     1       2.692  15.875  18.155  0.00  0.00    +0.000 C 
ENDBRANCH  29  30
ENDBRANCH   9  29
TORSDOF 10
ENDMDL
MODEL 3
REMARK VINA RESULT:      -6.1      2.609      6.893
REMARK  Name = 
REMARK  14 active torsions:
REMARK  status: ('A' for Active; 'I' for Inactive)
REMARK    1  A    between atoms: C_1  and  N_2
REMARK    2  A    between atoms: N_2  and  C_3
REMARK    3  A    between atoms: N_2  and  C_4
REMARK    4  A    between atoms: C_4  and  C_5
REMARK    5  A    between atoms: C_5  and  C_6
REMARK    6  A    between atoms: C_6  and  N_7
REMARK    7  A    between atoms: N_7  and  C_8
REMARK    8  A    between atoms: N_7  and  S_27
REMARK    9  A    between atoms: C_12  and  C_13
REMARK   10  A    between atoms: N_18  and  C_19
REMARK   11  A    between atoms: C_19  and  C_20
REMARK   12  A    between atoms: N_24  and  C_25
REMARK   13  A    between atoms: S_27  and  C_30
REMARK   14  A    between atoms: N_32  and  C_33
REMARK                            x       y       z     vdW  Elec       q    Type
REMARK                         _______ _______ _______ _____ _____    ______ ____
ROOT
ATOM      1  C   UNL     1       0.168  12.303  21.574  0.00  0.00    +0.000 C 
ATOM      2  C   UNL     1      -0.836  12.565  22.709  0.00  0.00    +0.000 C 
ATOM      3  C   UNL     1      -2.090  13.205  22.168  0.00  0.00    +0.000 A 
ATOM      4  C   UNL     1      -3.358  12.736  22.546  0.00  0.00    +0.000 A 
ATOM      5  C   UNL     1      -4.492  13.114  21.818  0.00  0.00    +0.000 A 
ATOM      6  C   UNL     1      -4.369  14.002  20.750  0.00  0.00    +0.000 A 
ATOM      7  C   UNL     1      -3.124  14.559  20.457  0.00  0.00    +0.000 A 
ATOM      8  C   UNL     1      -1.967  14.171  21.160  0.00  0.00    +0.000 A 
ATOM      9  N   UNL     1      -0.711  14.589  20.698  0.00  0.00    +0.000 N 
ATOM     10  C   UNL     1       0.458  13.675  20.881  0.00  0.00    +0.000 C 
ENDROOT
BRANCH   5  11
ATOM     11  C   UNL     1      -5.765  12.537  22.124  0.00  0.00    +0.000 C 
ATOM     12  N   UNL     1      -6.805  12.077  22.344  0.00  0.00    +0.000 NA
ENDBRANCH   5  11
BRANCH   1  13
ATOM     13  N   UNL     1      -0.143  11.108  20.613  0.00  0.00    +0.000 NA
BRANCH  13  14
ATOM     14  S   UNL     1       0.557   9.600  21.112  0.00  0.00    +0.000 S 
ATOM     15  O   UNL     1       1.525   9.912  22.147  0.00  0.00    +0.000 OA
ATOM     16  O   UNL     1      -0.539   8.694  21.395  0.00  0.00    +0.000 OA
BRANCH  14  17
ATOM     17  C   UNL     1       1.513   8.744  19.873  0.00  0.00    +0.000 A 
ATOM     18  C   UNL     1       2.030   7.458  19.974  0.00  0.00    +0.000 A 
ATOM     19  N   UNL     1       2.452   7.122  18.714  0.00  0.00    +0.000 N 
ATOM     20  C   UNL     1       2.909   5.826  18.272  0.00  0.00    +0.000 C 
ATOM     21  C   UNL     1       2.252   8.204  17.911  0.00  0.00    +0.000 A 
ATOM     22  N   UNL     1       1.679   9.200  18.566  0.00  0.00    +0.000 NA
ENDBRANCH  14  17
ENDBRANCH  13  14
BRANCH  13  23
ATOM     23  C   UNL     1      -1.547  10.955  20.148  0.00  0.00    +0.000 C 
BRANCH  23  24
ATOM     24  C   UNL     1      -1.667  11.249  18.663  0.00  0.00    +0.000 C 
BRANCH  24  25
ATOM     25  C   UNL     1      -2.173  10.075  17.853  0.00  0.00    +0.000 C 
BRANCH  25  27
ATOM     26  C   UNL     1      -4.105  11.498  17.608  0.00  0.00    +0.000 C 
ATOM     27  N   UNL     1      -3.281  10.461  16.988  0.00  0.00    +0.000 NA
ATOM     28  C   UNL     1      -2.750  10.890  15.702  0.00  0.00    +0.000 C 
ENDBRANCH  25  27
ENDBRANCH  24  25
ENDBRANCH  23  24
ENDBRANCH  13  23
ENDBRANCH   1  13
BRANCH   9  29
ATOM     29  C   UNL     1      -0.494  16.035  20.852  0.00  0.00    +0.000 C 
BRANCH  29  30
ATOM     30  C   UNL     1      -0.259  16.790  19.592  0.00  0.00    +0.000 A 
ATOM     31  C   UNL     1      -1.174  17.289  18.686  0.00  0.00    +0.000 A 
ATOM     32  N   UNL     1      -0.550  17.946  17.662  0.00  0.00    +0.000 NA
ATOM     33  C   UNL     1       0.733  17.836  17.915  0.00  0.00    +0.000 A 
ATOM     34  N   UNL     1       0.964  17.091  19.039  0.00  0.00    +0.000 N 
ATOM     35  C   UNL     1       2.271  16.687  19.491  0.00  0.00    +0.000 C 
ENDBRANCH  29  30
ENDBRANCH   9  29
TORSDOF 10
ENDMDL
MODEL 4
REMARK VINA RESULT:      -6.0      2.154      6.819
REMARK  Name = 
REMARK  14 active torsions:
REMARK  status: ('A' for Active; 'I' for Inactive)
REMARK    1  A    between atoms: C_1  and  N_2
REMARK    2  A    between atoms: N_2  and  C_3
REMARK    3  A    between atoms: N_2  and  C_4
REMARK    4  A    between atoms: C_4  and  C_5
REMARK    5  A    between atoms: C_5  and  C_6
REMARK    6  A    between atoms: C_6  and  N_7
REMARK    7  A    between atoms: N_7  and  C_8
REMARK    8  A    between atoms: N_7  and  S_27
REMARK    9  A    between atoms: C_12  and  C_13
REMARK   10  A    between atoms: N_18  and  C_19
REMARK   11  A    between atoms: C_19  and  C_20
REMARK   12  A    between atoms: N_24  and  C_25
REMARK   13  A    between atoms: S_27  and  C_30
REMARK   14  A    between atoms: N_32  and  C_33
REMARK                            x       y       z     vdW  Elec       q    Type
REMARK                         _______ _______ _______ _____ _____    ______ ____
ROOT
ATOM      1  C   UNL     1       1.040  11.627  20.132  0.00  0.00    +0.000 C 
ATOM      2  C   UNL     1       0.766  12.234  21.520  0.00  0.00    +0.000 C 
ATOM      3  C   UNL     1      -0.637  12.780  21.589  0.00  0.00    +0.000 A 
ATOM      4  C   UNL     1      -1.465  12.499  22.688  0.00  0.00    +0.000 A 
ATOM      5  C   UNL     1      -2.841  12.737  22.610  0.00  0.00    +0.000 A 
ATOM      6  C   UNL     1      -3.384  13.307  21.458  0.00  0.00    +0.000 A 
ATOM      7  C   UNL     1      -2.539  13.696  20.418  0.00  0.00    +0.000 A 
ATOM      8  C   UNL     1      -1.156  13.440  20.468  0.00  0.00    +0.000 A 
ATOM      9  N   UNL     1      -0.379  13.650  19.320  0.00  0.00    +0.000 N 
ATOM     10  C   UNL     1       0.791  12.751  19.073  0.00  0.00    +0.000 C 
ENDROOT
BRANCH   5  11
ATOM     11  C   UNL     1      -3.702  12.334  23.680  0.00  0.00    +0.000 C 
ATOM     12  N   UNL     1      -4.382  12.024  24.563  0.00  0.00    +0.000 NA
ENDBRANCH   5  11
BRANCH   1  13
ATOM     13  N   UNL     1       0.382  10.241  19.821  0.00  0.00    +0.000 NA
BRANCH  13  14
ATOM     14  S   UNL     1       0.735   9.013  20.995  0.00  0.00    +0.000 S 
ATOM     15  O   UNL     1       1.732   9.566  21.892  0.00  0.00    +0.000 OA
ATOM     16  O   UNL     1      -0.535   8.549  21.521  0.00  0.00    +0.000 OA
BRANCH  14  17
ATOM     17  C   UNL     1       1.501   7.534  20.359  0.00  0.00    +0.000 A 
ATOM     18  C   UNL     1       2.398   7.460  19.299  0.00  0.00    +0.000 A 
ATOM     19  N   UNL     1       2.918   6.193  19.333  0.00  0.00    +0.000 N 
ATOM     20  C   UNL     1       4.013   5.685  18.541  0.00  0.00    +0.000 C 
ATOM     21  C   UNL     1       2.295   5.519  20.340  0.00  0.00    +0.000 A 
ATOM     22  N   UNL     1       1.441   6.292  20.991  0.00  0.00    +0.000 NA
ENDBRANCH  14  17
ENDBRANCH  13  14
BRANCH  13  23
ATOM     23  C   UNL     1      -1.048  10.243  19.414  0.00  0.00    +0.000 C 
BRANCH  23  24
ATOM     24  C   UNL     1      -1.189  10.093  17.909  0.00  0.00    +0.000 C 
BRANCH  24  25
ATOM     25  C   UNL     1      -2.620   9.920  17.449  0.00  0.00    +0.000 C 
BRANCH  25  27
ATOM     26  C   UNL     1      -2.926  10.414  15.108  0.00  0.00    +0.000 C 
ATOM     27  N   UNL     1      -2.993  10.936  16.472  0.00  0.00    +0.000 NA
ATOM     28  C   UNL     1      -4.322  11.438  16.794  0.00  0.00    +0.000 C 
ENDBRANCH  25  27
ENDBRANCH  24  25
ENDBRANCH  23  24
ENDBRANCH  13  23
ENDBRANCH   1  13
BRANCH   9  29
ATOM     29  C   UNL     1      -0.249  15.072  18.965  0.00  0.00    +0.000 C 
BRANCH  29  30
ATOM     30  C   UNL     1       0.405  15.933  19.986  0.00  0.00    +0.000 A 
ATOM     31  C   UNL     1       1.714  15.931  20.426  0.00  0.00    +0.000 A 
ATOM     32  N   UNL     1       1.923  16.902  21.366  0.00  0.00    +0.000 NA
ATOM     33  C   UNL     1       0.757  17.483  21.524  0.00  0.00    +0.000 A 
ATOM     34  N   UNL     1      -0.209  16.892  20.757  0.00  0.00    +0.000 N 
ATOM     35  C   UNL     1      -1.610  17.224  20.819  0.00  0.00    +0.000 C 
ENDBRANCH  29  30
ENDBRANCH   9  29
TORSDOF 10
ENDMDL
MODEL 5
REMARK VINA RESULT:      -6.0      1.850      6.067
REMARK  Name = 
REMARK  14 active torsions:
REMARK  status: ('A' for Active; 'I' for Inactive)
REMARK    1  A    between atoms: C_1  and  N_2
REMARK    2  A    between atoms: N_2  and  C_3
REMARK    3  A    between atoms: N_2  and  C_4
REMARK    4  A    between atoms: C_4  and  C_5
REMARK    5  A    between atoms: C_5  and  C_6
REMARK    6  A    between atoms: C_6  and  N_7
REMARK    7  A    between atoms: N_7  and  C_8
REMARK    8  A    between atoms: N_7  and  S_27
REMARK    9  A    between atoms: C_12  and  C_13
REMARK   10  A    between atoms: N_18  and  C_19
REMARK   11  A    between atoms: C_19  and  C_20
REMARK   12  A    between atoms: N_24  and  C_25
REMARK   13  A    between atoms: S_27  and  C_30
REMARK   14  A    between atoms: N_32  and  C_33
REMARK                            x       y       z     vdW  Elec       q    Type
REMARK                         _______ _______ _______ _____ _____    ______ ____
ROOT
ATOM      1  C   UNL     1      -1.538  11.937  20.252  0.00  0.00    +0.000 C 
ATOM      2  C   UNL     1      -1.749  13.355  19.693  0.00  0.00    +0.000 C 
ATOM      3  C   UNL     1      -0.664  14.281  20.181  0.00  0.00    +0.000 A 
ATOM      4  C   UNL     1      -0.002  15.144  19.294  0.00  0.00    +0.000 A 
ATOM      5  C   UNL     1       1.193  15.764  19.676  0.00  0.00    +0.000 A 
ATOM      6  C   UNL     1       1.698  15.567  20.962  0.00  0.00    +0.000 A 
ATOM      7  C   UNL     1       0.972  14.806  21.878  0.00  0.00    +0.000 A 
ATOM      8  C   UNL     1      -0.218  14.153  21.503  0.00  0.00    +0.000 A 
ATOM      9  N   UNL     1      -0.801  13.231  22.384  0.00  0.00    +0.000 N 
ATOM     10  C   UNL     1      -1.515  12.048  21.812  0.00  0.00    +0.000 C 
ENDROOT
BRANCH   5  11
ATOM     11  C   UNL     1       1.934  16.541  18.730  0.00  0.00    +0.000 C 
ATOM     12  N   UNL     1       2.510  17.187  17.962  0.00  0.00    +0.000 NA
ENDBRANCH   5  11
BRANCH   1  13
ATOM     13  N   UNL     1      -0.390  11.085  19.613  0.00  0.00    +0.000 NA
BRANCH  13  14
ATOM     14  S   UNL     1       0.377   9.992  20.721  0.00  0.00    +0.000 S 
ATOM     15  O   UNL     1       1.269  10.787  21.544  0.00  0.00    +0.000 OA
ATOM     16  O   UNL     1      -0.673   9.207  21.341  0.00  0.00    +0.000 OA
BRANCH  14  17
ATOM     17  C   UNL     1       1.447   8.770  19.984  0.00  0.00    +0.000 A 
ATOM     18  C   UNL     1       1.744   7.515  20.502  0.00  0.00    +0.000 A 
ATOM     19  N   UNL     1       2.377   6.832  19.495  0.00  0.00    +0.000 N 
ATOM     20  C   UNL     1       2.732   5.433  19.488  0.00  0.00    +0.000 C 
ATOM     21  C   UNL     1       2.508   7.684  18.439  0.00  0.00    +0.000 A 
ATOM     22  N   UNL     1       1.953   8.859  18.687  0.00  0.00    +0.000 NA
ENDBRANCH  14  17
ENDBRANCH  13  14
BRANCH  13  23
ATOM     23  C   UNL     1      -0.661  10.458  18.293  0.00  0.00    +0.000 C 
BRANCH  23  24
ATOM     24  C   UNL     1      -2.145  10.196  18.107  0.00  0.00    +0.000 C 
BRANCH  24  25
ATOM     25  C   UNL     1      -2.486   9.563  16.775  0.00  0.00    +0.000 C 
BRANCH  25  27
ATOM     26  C   UNL     1      -3.986  11.449  16.862  0.00  0.00    +0.000 C 
ATOM     27  N   UNL     1      -3.605  10.242  16.132  0.00  0.00    +0.000 NA
ATOM     28  C   UNL     1      -3.251  10.535  14.750  0.00  0.00    +0.000 C 
ENDBRANCH  25  27
ENDBRANCH  24  25
ENDBRANCH  23  24
ENDBRANCH  13  23
ENDBRANCH   1  13
BRANCH   9  29
ATOM     29  C   UNL     1      -1.356  13.860  23.592  0.00  0.00    +0.000 C 
BRANCH  29  30
ATOM     30  C   UNL     1      -2.731  14.413  23.457  0.00  0.00    +0.000 A 
ATOM     31  C   UNL     1      -3.137  15.644  22.982  0.00  0.00    +0.000 A 
ATOM     32  N   UNL     1      -4.499  15.758  22.999  0.00  0.00    +0.000 NA
ATOM     33  C   UNL     1      -4.931  14.624  23.499  0.00  0.00    +0.000 A 
ATOM     34  N   UNL     1      -3.898  13.801  23.851  0.00  0.00    +0.000 N 
ATOM     35  C   UNL     1      -4.057  12.549  24.546  0.00  0.00    +0.000 C 
ENDBRANCH  29  30
ENDBRANCH   9  29
TORSDOF 10
ENDMDL
MODEL 6
REMARK VINA RESULT:      -6.0      2.334      6.515
REMARK  Name = 
REMARK  14 active torsions:
REMARK  status: ('A' for Active; 'I' for Inactive)
REMARK    1  A    between atoms: C_1  and  N_2
REMARK    2  A    between atoms: N_2  and  C_3
REMARK    3  A    between atoms: N_2  and  C_4
REMARK    4  A    between atoms: C_4  and  C_5
REMARK    5  A    between atoms: C_5  and  C_6
REMARK    6  A    between atoms: C_6  and  N_7
REMARK    7  A    between atoms: N_7  and  C_8
REMARK    8  A    between atoms: N_7  and  S_27
REMARK    9  A    between atoms: C_12  and  C_13
REMARK   10  A    between atoms: N_18  and  C_19
REMARK   11  A    between atoms: C_19  and  C_20
REMARK   12  A    between atoms: N_24  and  C_25
REMARK   13  A    between atoms: S_27  and  C_30
REMARK   14  A    between atoms: N_32  and  C_33
REMARK                            x       y       z     vdW  Elec       q    Type
REMARK                         _______ _______ _______ _____ _____    ______ ____
ROOT
ATOM      1  C   UNL     1      -0.691  12.678  20.508  0.00  0.00    +0.000 C 
ATOM      2  C   UNL     1      -0.601  13.052  19.018  0.00  0.00    +0.000 C 
ATOM      3  C   UNL     1      -0.923  11.859  18.154  0.00  0.00    +0.000 A 
ATOM      4  C   UNL     1      -1.806  11.974  17.069  0.00  0.00    +0.000 A 
ATOM      5  C   UNL     1      -2.339  10.826  16.471  0.00  0.00    +0.000 A 
ATOM      6  C   UNL     1      -1.947   9.564  16.919  0.00  0.00    +0.000 A 
ATOM      7  C   UNL     1      -0.978   9.457  17.916  0.00  0.00    +0.000 A 
ATOM      8  C   UNL     1      -0.451  10.600  18.547  0.00  0.00    +0.000 A 
ATOM      9  N   UNL     1       0.356  10.445  19.683  0.00  0.00    +0.000 N 
ATOM     10  C   UNL     1       0.295  11.489  20.752  0.00  0.00    +0.000 C 
ENDROOT
BRANCH   5  11
ATOM     11  C   UNL     1      -3.334  10.944  15.451  0.00  0.00    +0.000 C 
ATOM     12  N   UNL     1      -4.159  11.047  14.645  0.00  0.00    +0.000 NA
ENDBRANCH   5  11
BRANCH   1  13
ATOM     13  N   UNL     1      -2.126  12.506  21.111  0.00  0.00    +0.000 NA
BRANCH  13  14
ATOM     14  S   UNL     1      -2.186  12.650  22.839  0.00  0.00    +0.000 S 
ATOM     15  O   UNL     1      -2.052  11.308  23.375  0.00  0.00    +0.000 OA
ATOM     16  O   UNL     1      -1.233  13.677  23.215  0.00  0.00    +0.000 OA
BRANCH  14  17
ATOM     17  C   UNL     1      -3.731  13.231  23.513  0.00  0.00    +0.000 A 
ATOM     18  C   UNL     1      -4.150  14.554  23.594  0.00  0.00    +0.000 A 
ATOM     19  N   UNL     1      -5.478  14.508  23.928  0.00  0.00    +0.000 N 
ATOM     20  C   UNL     1      -6.400  15.620  23.965  0.00  0.00    +0.000 C 
ATOM     21  C   UNL     1      -5.815  13.200  24.104  0.00  0.00    +0.000 A 
ATOM     22  N   UNL     1      -4.794  12.396  23.855  0.00  0.00    +0.000 NA
ENDBRANCH  14  17
ENDBRANCH  13  14
BRANCH  13  23
ATOM     23  C   UNL     1      -3.237  13.233  20.442  0.00  0.00    +0.000 C 
BRANCH  23  24
ATOM     24  C   UNL     1      -4.359  12.284  20.059  0.00  0.00    +0.000 C 
BRANCH  24  25
ATOM     25  C   UNL     1      -5.472  12.948  19.278  0.00  0.00    +0.000 C 
BRANCH  25  27
ATOM     26  C   UNL     1      -6.017  10.938  18.061  0.00  0.00    +0.000 C 
ATOM     27  N   UNL     1      -5.633  12.345  17.960  0.00  0.00    +0.000 NA
ATOM     28  C   UNL     1      -6.605  13.118  17.201  0.00  0.00    +0.000 C 
ENDBRANCH  25  27
ENDBRANCH  24  25
ENDBRANCH  23  24
ENDBRANCH  13  23
ENDBRANCH   1  13
BRANCH   9  29
ATOM     29  C   UNL     1       1.660   9.832  19.383  0.00  0.00    +0.000 C 
BRANCH  29  30
ATOM     30  C   UNL     1       1.803   8.402  19.764  0.00  0.00    +0.000 A 
ATOM     31  C   UNL     1       1.386   7.754  20.909  0.00  0.00    +0.000 A 
ATOM     32  N   UNL     1       1.690   6.422  20.864  0.00  0.00    +0.000 NA
ATOM     33  C   UNL     1       2.307   6.249  19.720  0.00  0.00    +0.000 A 
ATOM     34  N   UNL     1       2.457   7.429  19.044  0.00  0.00    +0.000 N 
ATOM     35  C   UNL     1       3.211   7.577  17.825  0.00  0.00    +0.000 C 
ENDBRANCH  29  30
ENDBRANCH   9  29
TORSDOF 10
ENDMDL
MODEL 7
REMARK VINA RESULT:      -6.0      2.996      6.695
REMARK  Name = 
REMARK  14 active torsions:
REMARK  status: ('A' for Active; 'I' for Inactive)
REMARK    1  A    between atoms: C_1  and  N_2
REMARK    2  A    between atoms: N_2  and  C_3
REMARK    3  A    between atoms: N_2  and  C_4
REMARK    4  A    between atoms: C_4  and  C_5
REMARK    5  A    between atoms: C_5  and  C_6
REMARK    6  A    between atoms: C_6  and  N_7
REMARK    7  A    between atoms: N_7  and  C_8
REMARK    8  A    between atoms: N_7  and  S_27
REMARK    9  A    between atoms: C_12  and  C_13
REMARK   10  A    between atoms: N_18  and  C_19
REMARK   11  A    between atoms: C_19  and  C_20
REMARK   12  A    between atoms: N_24  and  C_25
REMARK   13  A    between atoms: S_27  and  C_30
REMARK   14  A    between atoms: N_32  and  C_33
REMARK                            x       y       z     vdW  Elec       q    Type
REMARK                         _______ _______ _______ _____ _____    ______ ____
ROOT
ATOM      1  C   UNL     1      -2.173  13.602  21.232  0.00  0.00    +0.000 C 
ATOM      2  C   UNL     1      -1.874  13.797  19.736  0.00  0.00    +0.000 C 
ATOM      3  C   UNL     1      -1.510  12.481  19.094  0.00  0.00    +0.000 A 
ATOM      4  C   UNL     1      -2.084  12.094  17.873  0.00  0.00    +0.000 A 
ATOM      5  C   UNL     1      -1.991  10.765  17.444  0.00  0.00    +0.000 A 
ATOM      6  C   UNL     1      -1.277   9.837  18.203  0.00  0.00    +0.000 A 
ATOM      7  C   UNL     1      -0.607  10.257  19.352  0.00  0.00    +0.000 A 
ATOM      8  C   UNL     1      -0.712  11.583  19.815  0.00  0.00    +0.000 A 
ATOM      9  N   UNL     1      -0.203  11.910  21.080  0.00  0.00    +0.000 N 
ATOM     10  C   UNL     1      -0.904  12.959  21.883  0.00  0.00    +0.000 C 
ENDROOT
BRANCH   5  11
ATOM     11  C   UNL     1      -2.682  10.341  16.265  0.00  0.00    +0.000 C 
ATOM     12  N   UNL     1      -3.248   9.974  15.324  0.00  0.00    +0.000 NA
ENDBRANCH   5  11
BRANCH   1  13
ATOM     13  N   UNL     1      -3.539  12.934  21.602  0.00  0.00    +0.000 NA
BRANCH  13  14
ATOM     14  S   UNL     1      -3.819  12.797  23.309  0.00  0.00    +0.000 S 
ATOM     15  O   UNL     1      -5.225  12.484  23.479  0.00  0.00    +0.000 OA
ATOM     16  O   UNL     1      -2.808  11.900  23.836  0.00  0.00    +0.000 OA
BRANCH  14  17
ATOM     17  C   UNL     1      -3.595  14.295  24.251  0.00  0.00    +0.000 A 
ATOM     18  C   UNL     1      -2.440  14.684  24.919  0.00  0.00    +0.000 A 
ATOM     19  N   UNL     1      -2.632  15.995  25.271  0.00  0.00    +0.000 N 
ATOM     20  C   UNL     1      -1.651  16.892  25.836  0.00  0.00    +0.000 C 
ATOM     21  C   UNL     1      -3.890  16.346  24.883  0.00  0.00    +0.000 A 
ATOM     22  N   UNL     1      -4.501  15.355  24.254  0.00  0.00    +0.000 NA
ENDBRANCH  14  17
ENDBRANCH  13  14
BRANCH  13  23
ATOM     23  C   UNL     1      -4.745  13.396  20.865  0.00  0.00    +0.000 C 
BRANCH  23  24
ATOM     24  C   UNL     1      -5.415  12.246  20.135  0.00  0.00    +0.000 C 
BRANCH  24  25
ATOM     25  C   UNL     1      -6.639  12.659  19.348  0.00  0.00    +0.000 C 
BRANCH  25  27
ATOM     26  C   UNL     1      -5.872  12.160  17.117  0.00  0.00    +0.000 C 
ATOM     27  N   UNL     1      -6.826  11.820  18.170  0.00  0.00    +0.000 NA
ATOM     28  C   UNL     1      -6.720  10.422  18.565  0.00  0.00    +0.000 C 
ENDBRANCH  25  27
ENDBRANCH  24  25
ENDBRANCH  23  24
ENDBRANCH  13  23
ENDBRANCH   1  13
BRANCH   9  29
ATOM     29  C   UNL     1       1.265  11.852  21.141  0.00  0.00    +0.000 C 
BRANCH  29  30
ATOM     30  C   UNL     1       1.980  13.050  20.624  0.00  0.00    +0.000 A 
ATOM     31  C   UNL     1       2.244  14.251  21.253  0.00  0.00    +0.000 A 
ATOM     32  N   UNL     1       2.951  15.091  20.438  0.00  0.00    +0.000 NA
ATOM     33  C   UNL     1       3.102  14.432  19.313  0.00  0.00    +0.000 A 
ATOM     34  N   UNL     1       2.478  13.216  19.353  0.00  0.00    +0.000 N 
ATOM     35  C   UNL     1       2.356  12.328  18.225  0.00  0.00    +0.000 C 
ENDBRANCH  29  30
ENDBRANCH   9  29
TORSDOF 10
ENDMDL
MODEL 8
REMARK VINA RESULT:      -6.0      2.076      6.932
REMARK  Name = 
REMARK  14 active torsions:
REMARK  status: ('A' for Active; 'I' for Inactive)
REMARK    1  A    between atoms: C_1  and  N_2
REMARK    2  A    between atoms: N_2  and  C_3
REMARK    3  A    between atoms: N_2  and  C_4
REMARK    4  A    between atoms: C_4  and  C_5
REMARK    5  A    between atoms: C_5  and  C_6
REMARK    6  A    between atoms: C_6  and  N_7
REMARK    7  A    between atoms: N_7  and  C_8
REMARK    8  A    between atoms: N_7  and  S_27
REMARK    9  A    between atoms: C_12  and  C_13
REMARK   10  A    between atoms: N_18  and  C_19
REMARK   11  A    between atoms: C_19  and  C_20
REMARK   12  A    between atoms: N_24  and  C_25
REMARK   13  A    between atoms: S_27  and  C_30
REMARK   14  A    between atoms: N_32  and  C_33
REMARK                            x       y       z     vdW  Elec       q    Type
REMARK                         _______ _______ _______ _____ _____    ______ ____
ROOT
ATOM      1  C   UNL     1       0.931  11.833  20.168  0.00  0.00    +0.000 C 
ATOM      2  C   UNL     1       0.671  12.385  21.580  0.00  0.00    +0.000 C 
ATOM      3  C   UNL     1      -0.728  12.940  21.679  0.00  0.00    +0.000 A 
ATOM      4  C   UNL     1      -1.552  12.622  22.771  0.00  0.00    +0.000 A 
ATOM      5  C   UNL     1      -2.927  12.875  22.709  0.00  0.00    +0.000 A 
ATOM      6  C   UNL     1      -3.470  13.496  21.584  0.00  0.00    +0.000 A 
ATOM      7  C   UNL     1      -2.628  13.919  20.556  0.00  0.00    +0.000 A 
ATOM      8  C   UNL     1      -1.246  13.649  20.588  0.00  0.00    +0.000 A 
ATOM      9  N   UNL     1      -0.473  13.900  19.445  0.00  0.00    +0.000 N 
ATOM     10  C   UNL     1       0.687  13.001  19.157  0.00  0.00    +0.000 C 
ENDROOT
BRANCH   5  11
ATOM     11  C   UNL     1      -3.785  12.436  23.767  0.00  0.00    +0.000 C 
ATOM     12  N   UNL     1      -4.479  12.107  24.633  0.00  0.00    +0.000 NA
ENDBRANCH   5  11
BRANCH   1  13
ATOM     13  N   UNL     1       0.260  10.467  19.804  0.00  0.00    +0.000 NA
BRANCH  13  14
ATOM     14  S   UNL     1       0.726   9.154  20.839  0.00  0.00    +0.000 S 
ATOM     15  O   UNL     1       1.717   9.679  21.759  0.00  0.00    +0.000 OA
ATOM     16  O   UNL     1      -0.495   8.561  21.350  0.00  0.00    +0.000 OA
BRANCH  14  17
ATOM     17  C   UNL     1       1.559   7.797  20.037  0.00  0.00    +0.000 A 
ATOM     18  C   UNL     1       2.292   7.861  18.858  0.00  0.00    +0.000 A 
ATOM     19  N   UNL     1       2.958   6.666  18.762  0.00  0.00    +0.000 N 
ATOM     20  C   UNL     1       3.976   6.317  17.801  0.00  0.00    +0.000 C 
ATOM     21  C   UNL     1       2.574   5.896  19.819  0.00  0.00    +0.000 A 
ATOM     22  N   UNL     1       1.740   6.542  20.617  0.00  0.00    +0.000 NA
ENDBRANCH  14  17
ENDBRANCH  13  14
BRANCH  13  23
ATOM     23  C   UNL     1      -1.201  10.479  19.525  0.00  0.00    +0.000 C 
BRANCH  23  24
ATOM     24  C   UNL     1      -1.473  10.469  18.032  0.00  0.00    +0.000 C 
BRANCH  24  25
ATOM     25  C   UNL     1      -2.696   9.666  17.645  0.00  0.00    +0.000 C 
BRANCH  25  27
ATOM     26  C   UNL     1      -4.112  11.605  17.414  0.00  0.00    +0.000 C 
ATOM     27  N   UNL     1      -3.569  10.420  16.753  0.00  0.00    +0.000 NA
ATOM     28  C   UNL     1      -2.828  10.765  15.547  0.00  0.00    +0.000 C 
ENDBRANCH  25  27
ENDBRANCH  24  25
ENDBRANCH  23  24
ENDBRANCH  13  23
ENDBRANCH   1  13
BRANCH   9  29
ATOM     29  C   UNL     1      -0.333  15.333  19.148  0.00  0.00    +0.000 C 
BRANCH  29  30
ATOM     30  C   UNL     1       0.731  16.047  19.904  0.00  0.00    +0.000 A 
ATOM     31  C   UNL     1       0.695  16.576  21.178  0.00  0.00    +0.000 A 
ATOM     32  N   UNL     1       1.896  17.136  21.517  0.00  0.00    +0.000 NA
ATOM     33  C   UNL     1       2.658  16.978  20.461  0.00  0.00    +0.000 A 
ATOM     34  N   UNL     1       1.980  16.380  19.434  0.00  0.00    +0.000 N 
ATOM     35  C   UNL     1       2.512  16.197  18.107  0.00  0.00    +0.000 C 
ENDBRANCH  29  30
ENDBRANCH   9  29
TORSDOF 10
ENDMDL
MODEL 9
REMARK VINA RESULT:      -5.9      3.057      7.811
REMARK  Name = 
REMARK  14 active torsions:
REMARK  status: ('A' for Active; 'I' for Inactive)
REMARK    1  A    between atoms: C_1  and  N_2
REMARK    2  A    between atoms: N_2  and  C_3
REMARK    3  A    between atoms: N_2  and  C_4
REMARK    4  A    between atoms: C_4  and  C_5
REMARK    5  A    between atoms: C_5  and  C_6
REMARK    6  A    between atoms: C_6  and  N_7
REMARK    7  A    between atoms: N_7  and  C_8
REMARK    8  A    between atoms: N_7  and  S_27
REMARK    9  A    between atoms: C_12  and  C_13
REMARK   10  A    between atoms: N_18  and  C_19
REMARK   11  A    between atoms: C_19  and  C_20
REMARK   12  A    between atoms: N_24  and  C_25
REMARK   13  A    between atoms: S_27  and  C_30
REMARK   14  A    between atoms: N_32  and  C_33
REMARK                            x       y       z     vdW  Elec       q    Type
REMARK                         _______ _______ _______ _____ _____    ______ ____
ROOT
ATOM      1  C   UNL     1      -0.775  13.182  22.049  0.00  0.00    +0.000 C 
ATOM      2  C   UNL     1      -1.948  12.703  22.924  0.00  0.00    +0.000 C 
ATOM      3  C   UNL     1      -3.225  13.395  22.518  0.00  0.00    +0.000 A 
ATOM      4  C   UNL     1      -4.411  12.666  22.337  0.00  0.00    +0.000 A 
ATOM      5  C   UNL     1      -5.496  13.246  21.670  0.00  0.00    +0.000 A 
ATOM      6  C   UNL     1      -5.419  14.569  21.235  0.00  0.00    +0.000 A 
ATOM      7  C   UNL     1      -4.283  15.325  21.526  0.00  0.00    +0.000 A 
ATOM      8  C   UNL     1      -3.171  14.751  22.172  0.00  0.00    +0.000 A 
ATOM      9  N   UNL     1      -1.976  15.480  22.254  0.00  0.00    +0.000 N 
ATOM     10  C   UNL     1      -0.680  14.735  22.205  0.00  0.00    +0.000 C 
ENDROOT
BRANCH   5  11
ATOM     11  C   UNL     1      -6.657  12.463  21.372  0.00  0.00    +0.000 C 
ATOM     12  N   UNL     1      -7.607  11.853  21.118  0.00  0.00    +0.000 NA
ENDBRANCH   5  11
BRANCH   1  13
ATOM     13  N   UNL     1      -0.716  12.640  20.582  0.00  0.00    +0.000 NA
BRANCH  13  14
ATOM     14  S   UNL     1       0.875  12.181  20.063  0.00  0.00    +0.000 S 
ATOM     15  O   UNL     1       1.084  12.795  18.765  0.00  0.00    +0.000 OA
ATOM     16  O   UNL     1       1.780  12.474  21.157  0.00  0.00    +0.000 OA
BRANCH  14  17
ATOM     17  C   UNL     1       1.116  10.441  19.759  0.00  0.00    +0.000 A 
ATOM     18  C   UNL     1       1.543   9.863  18.569  0.00  0.00    +0.000 A 
ATOM     19  N   UNL     1       1.835   8.557  18.868  0.00  0.00    +0.000 N 
ATOM     20  C   UNL     1       2.474   7.594  18.003  0.00  0.00    +0.000 C 
ATOM     21  C   UNL     1       1.525   8.355  20.179  0.00  0.00    +0.000 A 
ATOM     22  N   UNL     1       1.098   9.467  20.757  0.00  0.00    +0.000 NA
ENDBRANCH  14  17
ENDBRANCH  13  14
BRANCH  13  23
ATOM     23  C   UNL     1      -1.752  11.651  20.180  0.00  0.00    +0.000 C 
BRANCH  23  24
ATOM     24  C   UNL     1      -2.568  12.161  19.005  0.00  0.00    +0.000 C 
BRANCH  24  25
ATOM     25  C   UNL     1      -2.105  11.625  17.668  0.00  0.00    +0.000 C 
BRANCH  25  27
ATOM     26  C   UNL     1      -2.906  10.866  15.524  0.00  0.00    +0.000 C 
ATOM     27  N   UNL     1      -3.189  10.960  16.955  0.00  0.00    +0.000 NA
ATOM     28  C   UNL     1      -3.413   9.649  17.549  0.00  0.00    +0.000 C 
ENDBRANCH  25  27
ENDBRANCH  24  25
ENDBRANCH  23  24
ENDBRANCH  13  23
ENDBRANCH   1  13
BRANCH   9  29
ATOM     29  C   UNL     1      -2.073  16.646  23.146  0.00  0.00    +0.000 C 
BRANCH  29  30
ATOM     30  C   UNL     1      -1.421  16.499  24.474  0.00  0.00    +0.000 A 
ATOM     31  C   UNL     1      -1.800  15.728  25.555  0.00  0.00    +0.000 A 
ATOM     32  N   UNL     1      -0.913  15.854  26.589  0.00  0.00    +0.000 NA
ATOM     33  C   UNL     1      -0.011  16.707  26.165  0.00  0.00    +0.000 A 
ATOM     34  N   UNL     1      -0.307  17.175  24.914  0.00  0.00    +0.000 N 
ATOM     35  C   UNL     1       0.424  18.220  24.244  0.00  0.00    +0.000 C 
ENDBRANCH  29  30
ENDBRANCH   9  29
TORSDOF 10
ENDMDL
