MODEL 1
REMARK VINA RESULT:      -8.0      0.000      0.000
REMARK  Name = 
REMARK  7 active torsions:
REMARK  status: ('A' for Active; 'I' for Inactive)
REMARK    1  A    between atoms: C_1  and  O_2
REMARK    2  A    between atoms: O_2  and  C_3
REMARK    3  A    between atoms: C_6  and  C_7
REMARK    4  A    between atoms: C_10  and  N_11
REMARK    5  A    between atoms: C_12  and  C_13
REMARK    6  A    between atoms: C_16  and  O_17
REMARK    7  A    between atoms: O_17  and  C_18
REMARK                            x       y       z     vdW  Elec       q    Type
REMARK                         _______ _______ _______ _____ _____    ______ ____
ROOT
ATOM      1  C   UNL     1       3.079   4.847  19.795  0.00  0.00    +0.000 A 
ATOM      2  N   UNL     1       2.518   4.143  20.796  0.00  0.00    +0.000 NA
ATOM      3  O   UNL     1       3.161   2.929  20.823  0.00  0.00    +0.000 OA
ATOM      4  C   UNL     1       4.127   2.892  19.872  0.00  0.00    +0.000 A 
ATOM      5  C   UNL     1       4.143   4.090  19.186  0.00  0.00    +0.000 A 
ENDROOT
BRANCH   1   9
ATOM      6  C   UNL     1       1.721   8.812  18.898  0.00  0.00    +0.000 A 
ATOM      7  C   UNL     1       1.521   8.269  20.167  0.00  0.00    +0.000 A 
ATOM      8  C   UNL     1       1.958   6.972  20.459  0.00  0.00    +0.000 A 
ATOM      9  C   UNL     1       2.578   6.188  19.476  0.00  0.00    +0.000 A 
ATOM     10  C   UNL     1       2.703   6.719  18.186  0.00  0.00    +0.000 A 
ATOM     11  C   UNL     1       2.299   8.028  17.903  0.00  0.00    +0.000 A 
BRANCH   6  13
ATOM     12  C   UNL     1      -0.128  10.250  18.593  0.00  0.00    +0.000 C 
ATOM     13  O   UNL     1       1.280  10.096  18.730  0.00  0.00    +0.000 OA
ENDBRANCH   6  13
ENDBRANCH   1   9
BRANCH   5  14
ATOM     14  C   UNL     1       5.079   4.415  18.112  0.00  0.00    +0.000 A 
ATOM     15  C   UNL     1       4.829   4.021  16.791  0.00  0.00    +0.000 A 
ATOM     16  C   UNL     1       5.724   4.344  15.766  0.00  0.00    +0.000 A 
ATOM     17  C   UNL     1       6.857   5.112  16.030  0.00  0.00    +0.000 A 
ATOM     18  C   UNL     1       7.118   5.513  17.338  0.00  0.00    +0.000 A 
ATOM     19  C   UNL     1       6.246   5.146  18.373  0.00  0.00    +0.000 A 
BRANCH  17  20
ATOM     20  O   UNL     1       7.652   5.369  14.949  0.00  0.00    +0.000 OA
ATOM     21  C   UNL     1       7.197   4.845  13.706  0.00  0.00    +0.000 C 
ENDBRANCH  17  20
ENDBRANCH   5  14
BRANCH   4  22
ATOM     22  N   UNL     1       4.849   1.757  19.803  0.00  0.00    +0.000 N 
ATOM     23  H   UNL     1       5.834   1.809  20.040  0.00  0.00    +0.000 HD
ATOM     24  H   UNL     1       4.634   1.068  19.090  0.00  0.00    +0.000 HD
ENDBRANCH   4  22
TORSDOF 5
ENDMDL
MODEL 2
REMARK VINA RESULT:      -7.9      0.152      1.037
REMARK  Name = 
REMARK  7 active torsions:
REMARK  status: ('A' for Active; 'I' for Inactive)
REMARK    1  A    between atoms: C_1  and  O_2
REMARK    2  A    between atoms: O_2  and  C_3
REMARK    3  A    between atoms: C_6  and  C_7
REMARK    4  A    between atoms: C_10  and  N_11
REMARK    5  A    between atoms: C_12  and  C_13
REMARK    6  A    between atoms: C_16  and  O_17
REMARK    7  A    between atoms: O_17  and  C_18
REMARK                            x       y       z     vdW  Elec       q    Type
REMARK                         _______ _______ _______ _____ _____    ______ ____
ROOT
ATOM      1  C   UNL     1       3.080   4.988  19.781  0.00  0.00    +0.000 A 
ATOM      2  N   UNL     1       2.510   4.286  20.778  0.00  0.00    +0.000 NA
ATOM      3  O   UNL     1       3.125   3.057  20.787  0.00  0.00    +0.000 OA
ATOM      4  C   UNL     1       4.083   3.009  19.828  0.00  0.00    +0.000 A 
ATOM      5  C   UNL     1       4.122   4.213  19.155  0.00  0.00    +0.000 A 
ENDROOT
BRANCH   1   9
ATOM      6  C   UNL     1       1.596   8.904  18.867  0.00  0.00    +0.000 A 
ATOM      7  C   UNL     1       2.267   8.160  17.896  0.00  0.00    +0.000 A 
ATOM      8  C   UNL     1       2.758   6.885  18.195  0.00  0.00    +0.000 A 
ATOM      9  C   UNL     1       2.608   6.344  19.480  0.00  0.00    +0.000 A 
ATOM     10  C   UNL     1       1.999   7.133  20.465  0.00  0.00    +0.000 A 
ATOM     11  C   UNL     1       1.478   8.393  20.157  0.00  0.00    +0.000 A 
BRANCH   6  13
ATOM     12  C   UNL     1      -0.280  10.254  18.380  0.00  0.00    +0.000 C 
ATOM     13  O   UNL     1       1.135  10.125  18.459  0.00  0.00    +0.000 OA
ENDBRANCH   6  13
ENDBRANCH   1   9
BRANCH   5  14
ATOM     14  C   UNL     1       5.057   4.529  18.077  0.00  0.00    +0.000 A 
ATOM     15  C   UNL     1       4.802   4.131  16.758  0.00  0.00    +0.000 A 
ATOM     16  C   UNL     1       5.696   4.444  15.730  0.00  0.00    +0.000 A 
ATOM     17  C   UNL     1       6.834   5.206  15.988  0.00  0.00    +0.000 A 
ATOM     18  C   UNL     1       7.100   5.612  17.294  0.00  0.00    +0.000 A 
ATOM     19  C   UNL     1       6.229   5.254  18.333  0.00  0.00    +0.000 A 
BRANCH  17  20
ATOM     20  O   UNL     1       7.628   5.455  14.904  0.00  0.00    +0.000 OA
ATOM     21  C   UNL     1       7.224   4.837  13.686  0.00  0.00    +0.000 C 
ENDBRANCH  17  20
ENDBRANCH   5  14
BRANCH   4  22
ATOM     22  N   UNL     1       4.779   1.858  19.741  0.00  0.00    +0.000 N 
ATOM     23  H   UNL     1       5.784   1.922  19.621  0.00  0.00    +0.000 HD
ATOM     24  H   UNL     1       4.361   1.052  19.287  0.00  0.00    +0.000 HD
ENDBRANCH   4  22
TORSDOF 5
ENDMDL
MODEL 3
REMARK VINA RESULT:      -7.9      0.354      1.083
REMARK  Name = 
REMARK  7 active torsions:
REMARK  status: ('A' for Active; 'I' for Inactive)
REMARK    1  A    between atoms: C_1  and  O_2
REMARK    2  A    between atoms: O_2  and  C_3
REMARK    3  A    between atoms: C_6  and  C_7
REMARK    4  A    between atoms: C_10  and  N_11
REMARK    5  A    between atoms: C_12  and  C_13
REMARK    6  A    between atoms: C_16  and  O_17
REMARK    7  A    between atoms: O_17  and  C_18
REMARK                            x       y       z     vdW  Elec       q    Type
REMARK                         _______ _______ _______ _____ _____    ______ ____
ROOT
ATOM      1  C   UNL     1       3.097   4.860  19.770  0.00  0.00    +0.000 A 
ATOM      2  N   UNL     1       2.580   4.156  20.794  0.00  0.00    +0.000 NA
ATOM      3  O   UNL     1       3.221   2.941  20.792  0.00  0.00    +0.000 OA
ATOM      4  C   UNL     1       4.144   2.904  19.799  0.00  0.00    +0.000 A 
ATOM      5  C   UNL     1       4.131   4.102  19.113  0.00  0.00    +0.000 A 
ENDROOT
BRANCH   1   9
ATOM      6  C   UNL     1       1.706   8.828  18.941  0.00  0.00    +0.000 A 
ATOM      7  C   UNL     1       1.525   8.268  20.206  0.00  0.00    +0.000 A 
ATOM      8  C   UNL     1       1.972   6.970  20.475  0.00  0.00    +0.000 A 
ATOM      9  C   UNL     1       2.585   6.202  19.475  0.00  0.00    +0.000 A 
ATOM     10  C   UNL     1       2.691   6.751  18.190  0.00  0.00    +0.000 A 
ATOM     11  C   UNL     1       2.275   8.060  17.929  0.00  0.00    +0.000 A 
BRANCH   6  13
ATOM     12  C   UNL     1       0.571  10.655  19.919  0.00  0.00    +0.000 C 
ATOM     13  O   UNL     1       1.255  10.111  18.796  0.00  0.00    +0.000 OA
ENDBRANCH   6  13
ENDBRANCH   1   9
BRANCH   5  14
ATOM     14  C   UNL     1       5.019   4.426  17.998  0.00  0.00    +0.000 A 
ATOM     15  C   UNL     1       6.235   5.090  18.213  0.00  0.00    +0.000 A 
ATOM     16  C   UNL     1       7.084   5.389  17.143  0.00  0.00    +0.000 A 
ATOM     17  C   UNL     1       6.763   4.985  15.849  0.00  0.00    +0.000 A 
ATOM     18  C   UNL     1       5.560   4.322  15.620  0.00  0.00    +0.000 A 
ATOM     19  C   UNL     1       4.685   4.067  16.686  0.00  0.00    +0.000 A 
BRANCH  17  20
ATOM     20  O   UNL     1       7.673   5.328  14.888  0.00  0.00    +0.000 OA
ATOM     21  C   UNL     1       7.365   4.905  13.564  0.00  0.00    +0.000 C 
ENDBRANCH  17  20
ENDBRANCH   5  14
BRANCH   4  22
ATOM     22  N   UNL     1       4.861   1.767  19.697  0.00  0.00    +0.000 N 
ATOM     23  H   UNL     1       5.333   1.584  18.818  0.00  0.00    +0.000 HD
ATOM     24  H   UNL     1       4.544   0.929  20.175  0.00  0.00    +0.000 HD
ENDBRANCH   4  22
TORSDOF 5
ENDMDL
MODEL 4
REMARK VINA RESULT:      -7.8      1.025      1.447
REMARK  Name = 
REMARK  7 active torsions:
REMARK  status: ('A' for Active; 'I' for Inactive)
REMARK    1  A    between atoms: C_1  and  O_2
REMARK    2  A    between atoms: O_2  and  C_3
REMARK    3  A    between atoms: C_6  and  C_7
REMARK    4  A    between atoms: C_10  and  N_11
REMARK    5  A    between atoms: C_12  and  C_13
REMARK    6  A    between atoms: C_16  and  O_17
REMARK    7  A    between atoms: O_17  and  C_18
REMARK                            x       y       z     vdW  Elec       q    Type
REMARK                         _______ _______ _______ _____ _____    ______ ____
ROOT
ATOM      1  C   UNL     1       2.659   4.139  19.174  0.00  0.00    +0.000 A 
ATOM      2  N   UNL     1       1.906   3.266  19.869  0.00  0.00    +0.000 NA
ATOM      3  O   UNL     1       2.371   2.013  19.551  0.00  0.00    +0.000 OA
ATOM      4  C   UNL     1       3.417   2.109  18.694  0.00  0.00    +0.000 A 
ATOM      5  C   UNL     1       3.668   3.439  18.420  0.00  0.00    +0.000 A 
ENDROOT
BRANCH   1   9
ATOM      6  C   UNL     1       1.737   8.318  19.402  0.00  0.00    +0.000 A 
ATOM      7  C   UNL     1       2.233   7.769  18.219  0.00  0.00    +0.000 A 
ATOM      8  C   UNL     1       2.541   6.406  18.146  0.00  0.00    +0.000 A 
ATOM      9  C   UNL     1       2.382   5.576  19.264  0.00  0.00    +0.000 A 
ATOM     10  C   UNL     1       1.956   6.157  20.466  0.00  0.00    +0.000 A 
ATOM     11  C   UNL     1       1.615   7.511  20.531  0.00  0.00    +0.000 A 
BRANCH   6  13
ATOM     12  C   UNL     1       1.807  10.320  18.150  0.00  0.00    +0.000 C 
ATOM     13  O   UNL     1       1.445   9.653  19.354  0.00  0.00    +0.000 OA
ENDBRANCH   6  13
ENDBRANCH   1   9
BRANCH   5  14
ATOM     14  C   UNL     1       4.748   3.917  17.557  0.00  0.00    +0.000 A 
ATOM     15  C   UNL     1       4.591   3.970  16.166  0.00  0.00    +0.000 A 
ATOM     16  C   UNL     1       5.624   4.438  15.348  0.00  0.00    +0.000 A 
ATOM     17  C   UNL     1       6.810   4.910  15.904  0.00  0.00    +0.000 A 
ATOM     18  C   UNL     1       6.980   4.866  17.286  0.00  0.00    +0.000 A 
ATOM     19  C   UNL     1       5.964   4.350  18.103  0.00  0.00    +0.000 A 
BRANCH  17  20
ATOM     20  O   UNL     1       7.743   5.348  15.005  0.00  0.00    +0.000 OA
ATOM     21  C   UNL     1       7.494   5.015  13.644  0.00  0.00    +0.000 C 
ENDBRANCH  17  20
ENDBRANCH   5  14
BRANCH   4  22
ATOM     22  N   UNL     1       3.982   0.946  18.313  0.00  0.00    +0.000 N 
ATOM     23  H   UNL     1       4.944   0.970  17.994  0.00  0.00    +0.000 HD
ATOM     24  H   UNL     1       3.415   0.240  17.854  0.00  0.00    +0.000 HD
ENDBRANCH   4  22
TORSDOF 5
ENDMDL
MODEL 5
REMARK VINA RESULT:      -7.8      0.226      1.467
REMARK  Name = 
REMARK  7 active torsions:
REMARK  status: ('A' for Active; 'I' for Inactive)
REMARK    1  A    between atoms: C_1  and  O_2
REMARK    2  A    between atoms: O_2  and  C_3
REMARK    3  A    between atoms: C_6  and  C_7
REMARK    4  A    between atoms: C_10  and  N_11
REMARK    5  A    between atoms: C_12  and  C_13
REMARK    6  A    between atoms: C_16  and  O_17
REMARK    7  A    between atoms: O_17  and  C_18
REMARK                            x       y       z     vdW  Elec       q    Type
REMARK                         _______ _______ _______ _____ _____    ______ ____
ROOT
ATOM      1  C   UNL     1       3.088   5.006  19.733  0.00  0.00    +0.000 A 
ATOM      2  N   UNL     1       2.549   4.319  20.757  0.00  0.00    +0.000 NA
ATOM      3  O   UNL     1       3.154   3.085  20.757  0.00  0.00    +0.000 OA
ATOM      4  C   UNL     1       4.076   3.019  19.765  0.00  0.00    +0.000 A 
ATOM      5  C   UNL     1       4.100   4.216  19.078  0.00  0.00    +0.000 A 
ENDROOT
BRANCH   1   9
ATOM      6  C   UNL     1       1.606   8.925  18.826  0.00  0.00    +0.000 A 
ATOM      7  C   UNL     1       2.304   8.194  17.864  0.00  0.00    +0.000 A 
ATOM      8  C   UNL     1       2.794   6.918  18.161  0.00  0.00    +0.000 A 
ATOM      9  C   UNL     1       2.616   6.363  19.436  0.00  0.00    +0.000 A 
ATOM     10  C   UNL     1       1.980   7.139  20.414  0.00  0.00    +0.000 A 
ATOM     11  C   UNL     1       1.460   8.400  20.108  0.00  0.00    +0.000 A 
BRANCH   6  13
ATOM     12  C   UNL     1      -0.108  10.545  18.957  0.00  0.00    +0.000 C 
ATOM     13  O   UNL     1       1.149  10.148  18.420  0.00  0.00    +0.000 OA
ENDBRANCH   6  13
ENDBRANCH   1   9
BRANCH   5  14
ATOM     14  C   UNL     1       4.998   4.513  17.964  0.00  0.00    +0.000 A 
ATOM     15  C   UNL     1       6.220   5.166  18.175  0.00  0.00    +0.000 A 
ATOM     16  C   UNL     1       7.079   5.438  17.106  0.00  0.00    +0.000 A 
ATOM     17  C   UNL     1       6.762   5.017  15.816  0.00  0.00    +0.000 A 
ATOM     18  C   UNL     1       5.552   4.365  15.591  0.00  0.00    +0.000 A 
ATOM     19  C   UNL     1       4.668   4.137  16.655  0.00  0.00    +0.000 A 
BRANCH  17  20
ATOM     20  O   UNL     1       7.682   5.335  14.856  0.00  0.00    +0.000 OA
ATOM     21  C   UNL     1       7.366   4.915  13.533  0.00  0.00    +0.000 C 
ENDBRANCH  17  20
ENDBRANCH   5  14
BRANCH   4  22
ATOM     22  N   UNL     1       4.758   1.861  19.665  0.00  0.00    +0.000 N 
ATOM     23  H   UNL     1       5.687   1.825  20.071  0.00  0.00    +0.000 HD
ATOM     24  H   UNL     1       4.649   1.284  18.838  0.00  0.00    +0.000 HD
ENDBRANCH   4  22
TORSDOF 5
ENDMDL
MODEL 6
REMARK VINA RESULT:      -7.5      0.924      6.003
REMARK  Name = 
REMARK  7 active torsions:
REMARK  status: ('A' for Active; 'I' for Inactive)
REMARK    1  A    between atoms: C_1  and  O_2
REMARK    2  A    between atoms: O_2  and  C_3
REMARK    3  A    between atoms: C_6  and  C_7
REMARK    4  A    between atoms: C_10  and  N_11
REMARK    5  A    between atoms: C_12  and  C_13
REMARK    6  A    between atoms: C_16  and  O_17
REMARK    7  A    between atoms: O_17  and  C_18
REMARK                            x       y       z     vdW  Elec       q    Type
REMARK                         _______ _______ _______ _____ _____    ______ ____
ROOT
ATOM      1  C   UNL     1       3.686   3.539  18.548  0.00  0.00    +0.000 A 
ATOM      2  N   UNL     1       3.552   2.227  18.815  0.00  0.00    +0.000 NA
ATOM      3  O   UNL     1       2.492   2.114  19.682  0.00  0.00    +0.000 OA
ATOM      4  C   UNL     1       1.958   3.337  19.924  0.00  0.00    +0.000 A 
ATOM      5  C   UNL     1       2.660   4.295  19.221  0.00  0.00    +0.000 A 
ENDROOT
BRANCH   1   9
ATOM      6  C   UNL     1       6.809   4.994  15.997  0.00  0.00    +0.000 A 
ATOM      7  C   UNL     1       5.639   4.467  15.449  0.00  0.00    +0.000 A 
ATOM      8  C   UNL     1       4.622   3.986  16.281  0.00  0.00    +0.000 A 
ATOM      9  C   UNL     1       4.771   3.999  17.674  0.00  0.00    +0.000 A 
ATOM     10  C   UNL     1       5.982   4.461  18.207  0.00  0.00    +0.000 A 
ATOM     11  C   UNL     1       6.985   4.974  17.378  0.00  0.00    +0.000 A 
BRANCH   6  13
ATOM     12  C   UNL     1       7.520   5.054  13.745  0.00  0.00    +0.000 C 
ATOM     13  O   UNL     1       7.724   5.460  15.094  0.00  0.00    +0.000 OA
ENDBRANCH   6  13
ENDBRANCH   1   9
BRANCH   5  14
ATOM     14  C   UNL     1       2.341   5.721  19.220  0.00  0.00    +0.000 A 
ATOM     15  C   UNL     1       1.963   6.378  20.399  0.00  0.00    +0.000 A 
ATOM     16  C   UNL     1       1.668   7.745  20.393  0.00  0.00    +0.000 A 
ATOM     17  C   UNL     1       1.796   8.492  19.224  0.00  0.00    +0.000 A 
ATOM     18  C   UNL     1       2.173   7.854  18.044  0.00  0.00    +0.000 A 
ATOM     19  C   UNL     1       2.420   6.474  18.040  0.00  0.00    +0.000 A 
BRANCH  17  20
ATOM     20  O   UNL     1       1.487   9.819  19.343  0.00  0.00    +0.000 OA
ATOM     21  C   UNL     1       0.114  10.117  19.572  0.00  0.00    +0.000 C 
ENDBRANCH  17  20
ENDBRANCH   5  14
BRANCH   4  22
ATOM     22  N   UNL     1       0.893   3.366  20.750  0.00  0.00    +0.000 N 
ATOM     23  H   UNL     1       0.796   4.166  21.367  0.00  0.00    +0.000 HD
ATOM     24  H   UNL     1       0.538   2.500  21.142  0.00  0.00    +0.000 HD
ENDBRANCH   4  22
TORSDOF 5
ENDMDL
MODEL 7
REMARK VINA RESULT:      -7.5      1.118      5.907
REMARK  Name = 
REMARK  7 active torsions:
REMARK  status: ('A' for Active; 'I' for Inactive)
REMARK    1  A    between atoms: C_1  and  O_2
REMARK    2  A    between atoms: O_2  and  C_3
REMARK    3  A    between atoms: C_6  and  C_7
REMARK    4  A    between atoms: C_10  and  N_11
REMARK    5  A    between atoms: C_12  and  C_13
REMARK    6  A    between atoms: C_16  and  O_17
REMARK    7  A    between atoms: O_17  and  C_18
REMARK                            x       y       z     vdW  Elec       q    Type
REMARK                         _______ _______ _______ _____ _____    ______ ____
ROOT
ATOM      1  C   UNL     1       3.539   3.377  18.363  0.00  0.00    +0.000 A 
ATOM      2  N   UNL     1       3.347   2.051  18.486  0.00  0.00    +0.000 NA
ATOM      3  O   UNL     1       2.282   1.891  19.340  0.00  0.00    +0.000 OA
ATOM      4  C   UNL     1       1.802   3.102  19.717  0.00  0.00    +0.000 A 
ATOM      5  C   UNL     1       2.547   4.099  19.120  0.00  0.00    +0.000 A 
ENDROOT
BRANCH   1   9
ATOM      6  C   UNL     1       6.720   4.961  15.966  0.00  0.00    +0.000 A 
ATOM      7  C   UNL     1       5.561   4.471  15.365  0.00  0.00    +0.000 A 
ATOM      8  C   UNL     1       4.525   3.947  16.146  0.00  0.00    +0.000 A 
ATOM      9  C   UNL     1       4.644   3.882  17.541  0.00  0.00    +0.000 A 
ATOM     10  C   UNL     1       5.844   4.308  18.125  0.00  0.00    +0.000 A 
ATOM     11  C   UNL     1       6.866   4.863  17.348  0.00  0.00    +0.000 A 
BRANCH   6  13
ATOM     12  C   UNL     1       7.534   5.070  13.752  0.00  0.00    +0.000 C 
ATOM     13  O   UNL     1       7.655   5.474  15.111  0.00  0.00    +0.000 OA
ENDBRANCH   6  13
ENDBRANCH   1   9
BRANCH   5  14
ATOM     14  C   UNL     1       2.291   5.530  19.276  0.00  0.00    +0.000 A 
ATOM     15  C   UNL     1       2.406   6.407  18.190  0.00  0.00    +0.000 A 
ATOM     16  C   UNL     1       2.151   7.773  18.345  0.00  0.00    +0.000 A 
ATOM     17  C   UNL     1       1.724   8.281  19.570  0.00  0.00    +0.000 A 
ATOM     18  C   UNL     1       1.603   7.420  20.659  0.00  0.00    +0.000 A 
ATOM     19  C   UNL     1       1.908   6.059  20.516  0.00  0.00    +0.000 A 
BRANCH  17  20
ATOM     20  O   UNL     1       1.499   9.629  19.597  0.00  0.00    +0.000 OA
ATOM     21  C   UNL     1       0.948  10.189  18.410  0.00  0.00    +0.000 C 
ENDBRANCH  17  20
ENDBRANCH   5  14
BRANCH   4  22
ATOM     22  N   UNL     1       0.740   3.088  20.546  0.00  0.00    +0.000 N 
ATOM     23  H   UNL     1       0.908   3.254  21.532  0.00  0.00    +0.000 HD
ATOM     24  H   UNL     1      -0.031   2.453  20.362  0.00  0.00    +0.000 HD
ENDBRANCH   4  22
TORSDOF 5
ENDMDL
MODEL 8
REMARK VINA RESULT:      -7.3      0.656      5.924
REMARK  Name = 
REMARK  7 active torsions:
REMARK  status: ('A' for Active; 'I' for Inactive)
REMARK    1  A    between atoms: C_1  and  O_2
REMARK    2  A    between atoms: O_2  and  C_3
REMARK    3  A    between atoms: C_6  and  C_7
REMARK    4  A    between atoms: C_10  and  N_11
REMARK    5  A    between atoms: C_12  and  C_13
REMARK    6  A    between atoms: C_16  and  O_17
REMARK    7  A    between atoms: O_17  and  C_18
REMARK                            x       y       z     vdW  Elec       q    Type
REMARK                         _______ _______ _______ _____ _____    ______ ____
ROOT
ATOM      1  C   UNL     1       3.987   3.744  18.732  0.00  0.00    +0.000 A 
ATOM      2  N   UNL     1       3.995   2.463  19.143  0.00  0.00    +0.000 NA
ATOM      3  O   UNL     1       3.044   2.367  20.131  0.00  0.00    +0.000 OA
ATOM      4  C   UNL     1       2.435   3.566  20.307  0.00  0.00    +0.000 A 
ATOM      5  C   UNL     1       2.976   4.490  19.437  0.00  0.00    +0.000 A 
ENDROOT
BRANCH   1   9
ATOM      6  C   UNL     1       6.800   4.926  15.721  0.00  0.00    +0.000 A 
ATOM      7  C   UNL     1       7.081   5.139  17.071  0.00  0.00    +0.000 A 
ATOM      8  C   UNL     1       6.160   4.760  18.054  0.00  0.00    +0.000 A 
ATOM      9  C   UNL     1       4.932   4.186  17.700  0.00  0.00    +0.000 A 
ATOM     10  C   UNL     1       4.632   4.048  16.338  0.00  0.00    +0.000 A 
ATOM     11  C   UNL     1       5.566   4.395  15.357  0.00  0.00    +0.000 A 
BRANCH   6  13
ATOM     12  C   UNL     1       7.499   5.090  13.471  0.00  0.00    +0.000 C 
ATOM     13  O   UNL     1       7.780   5.310  14.849  0.00  0.00    +0.000 OA
ENDBRANCH   6  13
ENDBRANCH   1   9
BRANCH   5  14
ATOM     14  C   UNL     1       2.536   5.881  19.328  0.00  0.00    +0.000 A 
ATOM     15  C   UNL     1       2.064   6.578  20.447  0.00  0.00    +0.000 A 
ATOM     16  C   UNL     1       1.654   7.911  20.338  0.00  0.00    +0.000 A 
ATOM     17  C   UNL     1       1.759   8.588  19.125  0.00  0.00    +0.000 A 
ATOM     18  C   UNL     1       2.229   7.908  18.004  0.00  0.00    +0.000 A 
ATOM     19  C   UNL     1       2.592   6.557  18.102  0.00  0.00    +0.000 A 
BRANCH  17  20
ATOM     20  O   UNL     1       1.334   9.887  19.143  0.00  0.00    +0.000 OA
ATOM     21  C   UNL     1       0.102  10.146  18.478  0.00  0.00    +0.000 C 
ENDBRANCH  17  20
ENDBRANCH   5  14
BRANCH   4  22
ATOM     22  N   UNL     1       1.463   3.606  21.241  0.00  0.00    +0.000 N 
ATOM     23  H   UNL     1       0.505   3.695  20.921  0.00  0.00    +0.000 HD
ATOM     24  H   UNL     1       1.642   4.057  22.132  0.00  0.00    +0.000 HD
ENDBRANCH   4  22
TORSDOF 5
ENDMDL
MODEL 9
REMARK VINA RESULT:      -7.3      0.836      5.959
REMARK  Name = 
REMARK  7 active torsions:
REMARK  status: ('A' for Active; 'I' for Inactive)
REMARK    1  A    between atoms: C_1  and  O_2
REMARK    2  A    between atoms: O_2  and  C_3
REMARK    3  A    between atoms: C_6  and  C_7
REMARK    4  A    between atoms: C_10  and  N_11
REMARK    5  A    between atoms: C_12  and  C_13
REMARK    6  A    between atoms: C_16  and  O_17
REMARK    7  A    between atoms: O_17  and  C_18
REMARK                            x       y       z     vdW  Elec       q    Type
REMARK                         _______ _______ _______ _____ _____    ______ ____
ROOT
ATOM      1  C   UNL     1       3.848   3.738  18.532  0.00  0.00    +0.000 A 
ATOM      2  N   UNL     1       3.784   2.434  18.860  0.00  0.00    +0.000 NA
ATOM      3  O   UNL     1       2.805   2.324  19.818  0.00  0.00    +0.000 OA
ATOM      4  C   UNL     1       2.250   3.538  20.058  0.00  0.00    +0.000 A 
ATOM      5  C   UNL     1       2.857   4.488  19.261  0.00  0.00    +0.000 A 
ENDROOT
BRANCH   1   9
ATOM      6  C   UNL     1       6.791   4.966  15.667  0.00  0.00    +0.000 A 
ATOM      7  C   UNL     1       7.044   5.086  17.034  0.00  0.00    +0.000 A 
ATOM      8  C   UNL     1       6.082   4.692  17.970  0.00  0.00    +0.000 A 
ATOM      9  C   UNL     1       4.839   4.196  17.552  0.00  0.00    +0.000 A 
ATOM     10  C   UNL     1       4.570   4.152  16.177  0.00  0.00    +0.000 A 
ATOM     11  C   UNL     1       5.544   4.513  15.241  0.00  0.00    +0.000 A 
BRANCH   6  13
ATOM     12  C   UNL     1       7.619   5.087  13.458  0.00  0.00    +0.000 C 
ATOM     13  O   UNL     1       7.810   5.355  14.843  0.00  0.00    +0.000 OA
ENDBRANCH   6  13
ENDBRANCH   1   9
BRANCH   5  14
ATOM     14  C   UNL     1       2.489   5.902  19.233  0.00  0.00    +0.000 A 
ATOM     15  C   UNL     1       2.514   6.631  18.037  0.00  0.00    +0.000 A 
ATOM     16  C   UNL     1       2.151   7.982  18.015  0.00  0.00    +0.000 A 
ATOM     17  C   UNL     1       1.705   8.615  19.174  0.00  0.00    +0.000 A 
ATOM     18  C   UNL     1       1.673   7.902  20.370  0.00  0.00    +0.000 A 
ATOM     19  C   UNL     1       2.085   6.562  20.402  0.00  0.00    +0.000 A 
BRANCH  17  20
ATOM     20  O   UNL     1       1.372   9.932  19.027  0.00  0.00    +0.000 OA
ATOM     21  C   UNL     1       0.503  10.465  20.021  0.00  0.00    +0.000 C 
ENDBRANCH  17  20
ENDBRANCH   5  14
BRANCH   4  22
ATOM     22  N   UNL     1       1.259   3.567  20.971  0.00  0.00    +0.000 N 
ATOM     23  H   UNL     1       1.205   2.802  21.635  0.00  0.00    +0.000 HD
ATOM     24  H   UNL     1       0.355   3.955  20.718  0.00  0.00    +0.000 HD
ENDBRANCH   4  22
TORSDOF 5
ENDMDL
