MODEL 1
REMARK VINA RESULT:      -6.4      0.000      0.000
REMARK  Name = 
REMARK  5 active torsions:
REMARK  status: ('A' for Active; 'I' for Inactive)
REMARK    1  A    between atoms: C_1  and  C_2
REMARK    2  A    between atoms: C_2  and  O_3
REMARK    3  A    between atoms: O_3  and  C_4
REMARK    4  A    between atoms: C_5  and  N_6
REMARK    5  A    between atoms: N_14  and  C_15
REMARK                            x       y       z     vdW  Elec       q    Type
REMARK                         _______ _______ _______ _____ _____    ______ ____
ROOT
ATOM      1  C   UNL     1       3.365   5.104  19.374  0.00  0.00    +0.000 A 
ATOM      2  C   UNL     1       4.234   4.222  18.817  0.00  0.00    +0.000 A 
ATOM      3  C   UNL     1       4.073   2.810  19.270  0.00  0.00    +0.000 A 
ATOM      4  N   UNL     1       3.222   2.342  20.123  0.00  0.00    +0.000 NA
ATOM      5  N   UNL     1       2.361   3.249  20.677  0.00  0.00    +0.000 N 
ATOM      6  C   UNL     1       1.406   2.740  21.647  0.00  0.00    +0.000 C 
ATOM      7  C   UNL     1       2.345   4.599  20.362  0.00  0.00    +0.000 A 
ATOM      8  O   UNL     1       1.540   5.383  20.874  0.00  0.00    +0.000 OA
ENDROOT
BRANCH   2   9
ATOM      9  N   UNL     1       5.301   4.475  17.941  0.00  0.00    +0.000 N 
ATOM     10  C   UNL     1       5.086   4.620  16.484  0.00  0.00    +0.000 C 
ATOM     11  C   UNL     1       6.304   4.032  15.752  0.00  0.00    +0.000 C 
ATOM     12  O   UNL     1       7.516   4.703  16.141  0.00  0.00    +0.000 OA
ATOM     13  C   UNL     1       7.733   4.591  17.557  0.00  0.00    +0.000 C 
ATOM     14  C   UNL     1       6.543   5.162  18.364  0.00  0.00    +0.000 C 
ENDBRANCH   2   9
BRANCH   1  15
ATOM     15  O   UNL     1       3.310   6.484  19.182  0.00  0.00    +0.000 OA
BRANCH  15  17
ATOM     16  C   UNL     1       2.168   8.388  18.181  0.00  0.00    +0.000 C 
ATOM     17  C   UNL     1       2.682   6.975  18.012  0.00  0.00    +0.000 C 
ENDBRANCH  15  17
ENDBRANCH   1  15
TORSDOF 3
ENDMDL
MODEL 2
REMARK VINA RESULT:      -6.4      0.776      1.397
REMARK  Name = 
REMARK  5 active torsions:
REMARK  status: ('A' for Active; 'I' for Inactive)
REMARK    1  A    between atoms: C_1  and  C_2
REMARK    2  A    between atoms: C_2  and  O_3
REMARK    3  A    between atoms: O_3  and  C_4
REMARK    4  A    between atoms: C_5  and  N_6
REMARK    5  A    between atoms: N_14  and  C_15
REMARK                            x       y       z     vdW  Elec       q    Type
REMARK                         _______ _______ _______ _____ _____    ______ ____
ROOT
ATOM      1  C   UNL     1       3.451   5.309  19.450  0.00  0.00    +0.000 A 
ATOM      2  C   UNL     1       4.477   4.580  18.942  0.00  0.00    +0.000 A 
ATOM      3  C   UNL     1       4.530   3.162  19.403  0.00  0.00    +0.000 A 
ATOM      4  N   UNL     1       3.731   2.564  20.224  0.00  0.00    +0.000 NA
ATOM      5  N   UNL     1       2.708   3.319  20.728  0.00  0.00    +0.000 N 
ATOM      6  C   UNL     1       1.806   2.663  21.661  0.00  0.00    +0.000 C 
ATOM      7  C   UNL     1       2.484   4.646  20.398  0.00  0.00    +0.000 A 
ATOM      8  O   UNL     1       1.539   5.289  20.865  0.00  0.00    +0.000 OA
ENDROOT
BRANCH   2   9
ATOM      9  N   UNL     1       5.526   5.002  18.110  0.00  0.00    +0.000 N 
ATOM     10  C   UNL     1       6.737   5.649  18.662  0.00  0.00    +0.000 C 
ATOM     11  C   UNL     1       7.224   6.706  17.658  0.00  0.00    +0.000 C 
ATOM     12  O   UNL     1       7.522   6.110  16.382  0.00  0.00    +0.000 OA
ATOM     13  C   UNL     1       6.363   5.458  15.837  0.00  0.00    +0.000 C 
ATOM     14  C   UNL     1       5.811   4.378  16.797  0.00  0.00    +0.000 C 
ENDBRANCH   2   9
BRANCH   1  15
ATOM     15  O   UNL     1       3.178   6.660  19.241  0.00  0.00    +0.000 OA
BRANCH  15  17
ATOM     16  C   UNL     1       2.317   8.529  17.938  0.00  0.00    +0.000 C 
ATOM     17  C   UNL     1       2.615   7.047  18.000  0.00  0.00    +0.000 C 
ENDBRANCH  15  17
ENDBRANCH   1  15
TORSDOF 3
ENDMDL
MODEL 3
REMARK VINA RESULT:      -6.1      2.578      5.357
REMARK  Name = 
REMARK  5 active torsions:
REMARK  status: ('A' for Active; 'I' for Inactive)
REMARK    1  A    between atoms: C_1  and  C_2
REMARK    2  A    between atoms: C_2  and  O_3
REMARK    3  A    between atoms: O_3  and  C_4
REMARK    4  A    between atoms: C_5  and  N_6
REMARK    5  A    between atoms: N_14  and  C_15
REMARK                            x       y       z     vdW  Elec       q    Type
REMARK                         _______ _______ _______ _____ _____    ______ ____
ROOT
ATOM      1  C   UNL     1       5.467   5.008  16.962  0.00  0.00    +0.000 A 
ATOM      2  C   UNL     1       4.737   4.551  18.011  0.00  0.00    +0.000 A 
ATOM      3  C   UNL     1       5.297   4.878  19.356  0.00  0.00    +0.000 A 
ATOM      4  N   UNL     1       6.380   5.527  19.628  0.00  0.00    +0.000 NA
ATOM      5  N   UNL     1       7.103   5.972  18.556  0.00  0.00    +0.000 N 
ATOM      6  C   UNL     1       8.331   6.695  18.846  0.00  0.00    +0.000 C 
ATOM      7  C   UNL     1       6.730   5.785  17.234  0.00  0.00    +0.000 A 
ATOM      8  O   UNL     1       7.404   6.217  16.294  0.00  0.00    +0.000 OA
ENDROOT
BRANCH   2   9
ATOM      9  N   UNL     1       3.583   3.754  17.997  0.00  0.00    +0.000 N 
ATOM     10  C   UNL     1       2.275   4.296  17.567  0.00  0.00    +0.000 C 
ATOM     11  C   UNL     1       1.172   3.631  18.407  0.00  0.00    +0.000 C 
ATOM     12  O   UNL     1       1.190   2.201  18.245  0.00  0.00    +0.000 OA
ATOM     13  C   UNL     1       2.460   1.656  18.639  0.00  0.00    +0.000 C 
ATOM     14  C   UNL     1       3.624   2.282  17.836  0.00  0.00    +0.000 C 
ENDBRANCH   2   9
BRANCH   1  15
ATOM     15  O   UNL     1       5.221   4.815  15.603  0.00  0.00    +0.000 OA
BRANCH  15  17
ATOM     16  C   UNL     1       6.250   3.969  13.564  0.00  0.00    +0.000 C 
ATOM     17  C   UNL     1       5.785   3.678  14.973  0.00  0.00    +0.000 C 
ENDBRANCH  15  17
ENDBRANCH   1  15
TORSDOF 3
ENDMDL
MODEL 4
REMARK VINA RESULT:      -5.9      1.226      1.580
REMARK  Name = 
REMARK  5 active torsions:
REMARK  status: ('A' for Active; 'I' for Inactive)
REMARK    1  A    between atoms: C_1  and  C_2
REMARK    2  A    between atoms: C_2  and  O_3
REMARK    3  A    between atoms: O_3  and  C_4
REMARK    4  A    between atoms: C_5  and  N_6
REMARK    5  A    between atoms: N_14  and  C_15
REMARK                            x       y       z     vdW  Elec       q    Type
REMARK                         _______ _______ _______ _____ _____    ______ ____
ROOT
ATOM      1  C   UNL     1       2.740   4.878  18.768  0.00  0.00    +0.000 A 
ATOM      2  C   UNL     1       3.883   4.323  18.290  0.00  0.00    +0.000 A 
ATOM      3  C   UNL     1       4.376   3.142  19.056  0.00  0.00    +0.000 A 
ATOM      4  N   UNL     1       3.853   2.603  20.108  0.00  0.00    +0.000 NA
ATOM      5  N   UNL     1       2.706   3.182  20.576  0.00  0.00    +0.000 N 
ATOM      6  C   UNL     1       2.111   2.594  21.765  0.00  0.00    +0.000 C 
ATOM      7  C   UNL     1       2.087   4.272  19.984  0.00  0.00    +0.000 A 
ATOM      8  O   UNL     1       1.042   4.755  20.429  0.00  0.00    +0.000 OA
ENDROOT
BRANCH   2   9
ATOM      9  N   UNL     1       4.693   4.757  17.230  0.00  0.00    +0.000 N 
ATOM     10  C   UNL     1       5.376   6.070  17.266  0.00  0.00    +0.000 C 
ATOM     11  C   UNL     1       5.414   6.638  15.838  0.00  0.00    +0.000 C 
ATOM     12  O   UNL     1       6.106   5.748  14.945  0.00  0.00    +0.000 OA
ATOM     13  C   UNL     1       5.470   4.459  14.909  0.00  0.00    +0.000 C 
ATOM     14  C   UNL     1       5.392   3.823  16.317  0.00  0.00    +0.000 C 
ENDBRANCH   2   9
BRANCH   1  15
ATOM     15  O   UNL     1       2.078   6.010  18.294  0.00  0.00    +0.000 OA
BRANCH  15  17
ATOM     16  C   UNL     1       2.121   8.400  17.832  0.00  0.00    +0.000 C 
ATOM     17  C   UNL     1       2.482   7.278  18.778  0.00  0.00    +0.000 C 
ENDBRANCH  15  17
ENDBRANCH   1  15
TORSDOF 3
ENDMDL
MODEL 5
REMARK VINA RESULT:      -5.9      1.838      5.068
REMARK  Name = 
REMARK  5 active torsions:
REMARK  status: ('A' for Active; 'I' for Inactive)
REMARK    1  A    between atoms: C_1  and  C_2
REMARK    2  A    between atoms: C_2  and  O_3
REMARK    3  A    between atoms: O_3  and  C_4
REMARK    4  A    between atoms: C_5  and  N_6
REMARK    5  A    between atoms: N_14  and  C_15
REMARK                            x       y       z     vdW  Elec       q    Type
REMARK                         _______ _______ _______ _____ _____    ______ ____
ROOT
ATOM      1  C   UNL     1       4.137   5.817  17.637  0.00  0.00    +0.000 A 
ATOM      2  C   UNL     1       3.739   4.572  17.999  0.00  0.00    +0.000 A 
ATOM      3  C   UNL     1       4.365   3.461  17.223  0.00  0.00    +0.000 A 
ATOM      4  N   UNL     1       5.220   3.551  16.258  0.00  0.00    +0.000 NA
ATOM      5  N   UNL     1       5.602   4.817  15.906  0.00  0.00    +0.000 N 
ATOM      6  C   UNL     1       6.555   4.935  14.815  0.00  0.00    +0.000 C 
ATOM      7  C   UNL     1       5.146   5.969  16.527  0.00  0.00    +0.000 A 
ATOM      8  O   UNL     1       5.528   7.092  16.189  0.00  0.00    +0.000 OA
ENDROOT
BRANCH   2   9
ATOM      9  N   UNL     1       2.769   4.199  18.943  0.00  0.00    +0.000 N 
ATOM     10  C   UNL     1       2.843   4.656  20.348  0.00  0.00    +0.000 C 
ATOM     11  C   UNL     1       2.307   3.534  21.253  0.00  0.00    +0.000 C 
ATOM     12  O   UNL     1       0.949   3.200  20.914  0.00  0.00    +0.000 OA
ATOM     13  C   UNL     1       0.852   2.772  19.545  0.00  0.00    +0.000 C 
ATOM     14  C   UNL     1       1.378   3.852  18.571  0.00  0.00    +0.000 C 
ENDBRANCH   2   9
BRANCH   1  15
ATOM     15  O   UNL     1       3.690   7.037  18.145  0.00  0.00    +0.000 OA
BRANCH  15  17
ATOM     16  C   UNL     1       2.168   8.901  17.772  0.00  0.00    +0.000 C 
ATOM     17  C   UNL     1       2.342   7.406  17.919  0.00  0.00    +0.000 C 
ENDBRANCH  15  17
ENDBRANCH   1  15
TORSDOF 3
ENDMDL
MODEL 6
REMARK VINA RESULT:      -5.9      1.797      4.906
REMARK  Name = 
REMARK  5 active torsions:
REMARK  status: ('A' for Active; 'I' for Inactive)
REMARK    1  A    between atoms: C_1  and  C_2
REMARK    2  A    between atoms: C_2  and  O_3
REMARK    3  A    between atoms: O_3  and  C_4
REMARK    4  A    between atoms: C_5  and  N_6
REMARK    5  A    between atoms: N_14  and  C_15
REMARK                            x       y       z     vdW  Elec       q    Type
REMARK                         _______ _______ _______ _____ _____    ______ ____
ROOT
ATOM      1  C   UNL     1       4.094   5.530  17.950  0.00  0.00    +0.000 A 
ATOM      2  C   UNL     1       3.785   4.231  18.193  0.00  0.00    +0.000 A 
ATOM      3  C   UNL     1       4.388   3.254  17.241  0.00  0.00    +0.000 A 
ATOM      4  N   UNL     1       5.149   3.501  16.225  0.00  0.00    +0.000 NA
ATOM      5  N   UNL     1       5.442   4.817  15.996  0.00  0.00    +0.000 N 
ATOM      6  C   UNL     1       6.287   5.112  14.851  0.00  0.00    +0.000 C 
ATOM      7  C   UNL     1       4.992   5.863  16.786  0.00  0.00    +0.000 A 
ATOM      8  O   UNL     1       5.292   7.037  16.554  0.00  0.00    +0.000 OA
ENDROOT
BRANCH   2   9
ATOM      9  N   UNL     1       2.921   3.700  19.163  0.00  0.00    +0.000 N 
ATOM     10  C   UNL     1       1.455   3.688  18.967  0.00  0.00    +0.000 C 
ATOM     11  C   UNL     1       0.780   3.904  20.332  0.00  0.00    +0.000 C 
ATOM     12  O   UNL     1       1.161   2.878  21.266  0.00  0.00    +0.000 OA
ATOM     13  C   UNL     1       2.586   2.860  21.456  0.00  0.00    +0.000 C 
ATOM     14  C   UNL     1       3.337   2.649  20.120  0.00  0.00    +0.000 C 
ENDBRANCH   2   9
BRANCH   1  15
ATOM     15  O   UNL     1       3.641   6.658  18.636  0.00  0.00    +0.000 OA
BRANCH  15  17
ATOM     16  C   UNL     1       2.366   8.552  17.791  0.00  0.00    +0.000 C 
ATOM     17  C   UNL     1       2.344   7.145  18.344  0.00  0.00    +0.000 C 
ENDBRANCH  15  17
ENDBRANCH   1  15
TORSDOF 3
ENDMDL
MODEL 7
REMARK VINA RESULT:      -5.8      1.501      1.513
REMARK  Name = 
REMARK  5 active torsions:
REMARK  status: ('A' for Active; 'I' for Inactive)
REMARK    1  A    between atoms: C_1  and  C_2
REMARK    2  A    between atoms: C_2  and  O_3
REMARK    3  A    between atoms: O_3  and  C_4
REMARK    4  A    between atoms: C_5  and  N_6
REMARK    5  A    between atoms: N_14  and  C_15
REMARK                            x       y       z     vdW  Elec       q    Type
REMARK                         _______ _______ _______ _____ _____    ______ ____
ROOT
ATOM      1  C   UNL     1       3.030   5.052  18.829  0.00  0.00    +0.000 A 
ATOM      2  C   UNL     1       3.862   4.592  17.862  0.00  0.00    +0.000 A 
ATOM      3  C   UNL     1       3.501   3.255  17.306  0.00  0.00    +0.000 A 
ATOM      4  N   UNL     1       2.510   2.497  17.642  0.00  0.00    +0.000 NA
ATOM      5  N   UNL     1       1.687   2.979  18.623  0.00  0.00    +0.000 N 
ATOM      6  C   UNL     1       0.573   2.133  19.020  0.00  0.00    +0.000 C 
ATOM      7  C   UNL     1       1.850   4.209  19.241  0.00  0.00    +0.000 A 
ATOM      8  O   UNL     1       1.076   4.614  20.112  0.00  0.00    +0.000 OA
ENDROOT
BRANCH   2   9
ATOM      9  N   UNL     1       5.048   5.165  17.377  0.00  0.00    +0.000 N 
ATOM     10  C   UNL     1       5.142   5.699  16.000  0.00  0.00    +0.000 C 
ATOM     11  C   UNL     1       6.563   5.439  15.473  0.00  0.00    +0.000 C 
ATOM     12  O   UNL     1       7.548   6.068  16.313  0.00  0.00    +0.000 OA
ATOM     13  C   UNL     1       7.462   5.577  17.661  0.00  0.00    +0.000 C 
ATOM     14  C   UNL     1       6.053   5.801  18.260  0.00  0.00    +0.000 C 
ENDBRANCH   2   9
BRANCH   1  15
ATOM     15  O   UNL     1       3.142   6.235  19.560  0.00  0.00    +0.000 OA
BRANCH  15  17
ATOM     16  C   UNL     1       2.822   7.995  17.907  0.00  0.00    +0.000 C 
ATOM     17  C   UNL     1       2.339   7.338  19.181  0.00  0.00    +0.000 C 
ENDBRANCH  15  17
ENDBRANCH   1  15
TORSDOF 3
ENDMDL
MODEL 8
REMARK VINA RESULT:      -5.7      1.747      4.992
REMARK  Name = 
REMARK  5 active torsions:
REMARK  status: ('A' for Active; 'I' for Inactive)
REMARK    1  A    between atoms: C_1  and  C_2
REMARK    2  A    between atoms: C_2  and  O_3
REMARK    3  A    between atoms: O_3  and  C_4
REMARK    4  A    between atoms: C_5  and  N_6
REMARK    5  A    between atoms: N_14  and  C_15
REMARK                            x       y       z     vdW  Elec       q    Type
REMARK                         _______ _______ _______ _____ _____    ______ ____
ROOT
ATOM      1  C   UNL     1       3.778   5.843  18.092  0.00  0.00    +0.000 A 
ATOM      2  C   UNL     1       3.840   4.770  18.921  0.00  0.00    +0.000 A 
ATOM      3  C   UNL     1       5.179   4.117  19.004  0.00  0.00    +0.000 A 
ATOM      4  N   UNL     1       6.262   4.445  18.380  0.00  0.00    +0.000 NA
ATOM      5  N   UNL     1       6.175   5.525  17.546  0.00  0.00    +0.000 N 
ATOM      6  C   UNL     1       7.383   5.900  16.828  0.00  0.00    +0.000 C 
ATOM      7  C   UNL     1       5.023   6.271  17.357  0.00  0.00    +0.000 A 
ATOM      8  O   UNL     1       4.990   7.249  16.605  0.00  0.00    +0.000 OA
ENDROOT
BRANCH   2   9
ATOM      9  N   UNL     1       2.804   4.156  19.641  0.00  0.00    +0.000 N 
ATOM     10  C   UNL     1       2.487   4.554  21.031  0.00  0.00    +0.000 C 
ATOM     11  C   UNL     1       2.037   3.304  21.805  0.00  0.00    +0.000 C 
ATOM     12  O   UNL     1       0.884   2.702  21.189  0.00  0.00    +0.000 OA
ATOM     13  C   UNL     1       1.166   2.325  19.831  0.00  0.00    +0.000 C 
ATOM     14  C   UNL     1       1.629   3.535  18.987  0.00  0.00    +0.000 C 
ENDBRANCH   2   9
BRANCH   1  15
ATOM     15  O   UNL     1       2.660   6.615  17.778  0.00  0.00    +0.000 OA
BRANCH  15  17
ATOM     16  C   UNL     1       1.873   8.919  17.849  0.00  0.00    +0.000 C 
ATOM     17  C   UNL     1       2.338   7.705  18.623  0.00  0.00    +0.000 C 
ENDBRANCH  15  17
ENDBRANCH   1  15
TORSDOF 3
ENDMDL
MODEL 9
REMARK VINA RESULT:      -5.7      2.405      4.291
REMARK  Name = 
REMARK  5 active torsions:
REMARK  status: ('A' for Active; 'I' for Inactive)
REMARK    1  A    between atoms: C_1  and  C_2
REMARK    2  A    between atoms: C_2  and  O_3
REMARK    3  A    between atoms: O_3  and  C_4
REMARK    4  A    between atoms: C_5  and  N_6
REMARK    5  A    between atoms: N_14  and  C_15
REMARK                            x       y       z     vdW  Elec       q    Type
REMARK                         _______ _______ _______ _____ _____    ______ ____
ROOT
ATOM      1  C   UNL     1       2.406   6.096  19.643  0.00  0.00    +0.000 A 
ATOM      2  C   UNL     1       3.168   5.478  18.705  0.00  0.00    +0.000 A 
ATOM      3  C   UNL     1       3.608   6.351  17.578  0.00  0.00    +0.000 A 
ATOM      4  N   UNL     1       3.345   7.603  17.394  0.00  0.00    +0.000 NA
ATOM      5  N   UNL     1       2.571   8.204  18.348  0.00  0.00    +0.000 N 
ATOM      6  C   UNL     1       2.256   9.609  18.149  0.00  0.00    +0.000 C 
ATOM      7  C   UNL     1       2.088   7.561  19.477  0.00  0.00    +0.000 A 
ATOM      8  O   UNL     1       1.405   8.144  20.323  0.00  0.00    +0.000 OA
ENDROOT
BRANCH   2   9
ATOM      9  N   UNL     1       3.525   4.124  18.617  0.00  0.00    +0.000 N 
ATOM     10  C   UNL     1       3.127   3.294  17.458  0.00  0.00    +0.000 C 
ATOM     11  C   UNL     1       2.850   1.865  17.955  0.00  0.00    +0.000 C 
ATOM     12  O   UNL     1       4.013   1.303  18.588  0.00  0.00    +0.000 OA
ATOM     13  C   UNL     1       4.428   2.106  19.706  0.00  0.00    +0.000 C 
ATOM     14  C   UNL     1       4.724   3.564  19.282  0.00  0.00    +0.000 C 
ENDBRANCH   2   9
BRANCH   1  15
ATOM     15  O   UNL     1       1.815   5.529  20.772  0.00  0.00    +0.000 OA
BRANCH  15  17
ATOM     16  C   UNL     1       1.489   3.212  21.445  0.00  0.00    +0.000 C 
ATOM     17  C   UNL     1       1.014   4.373  20.602  0.00  0.00    +0.000 C 
ENDBRANCH  15  17
ENDBRANCH   1  15
TORSDOF 3
ENDMDL
