MODEL 1
REMARK VINA RESULT:      -7.9      0.000      0.000
REMARK  Name = 
REMARK  3 active torsions:
REMARK  status: ('A' for Active; 'I' for Inactive)
REMARK    1  A    between atoms: C_2  and  O_3
REMARK    2  A    between atoms: C_2  and  C_16
REMARK    3  A    between atoms: O_3  and  N_4
REMARK                            x       y       z     vdW  Elec       q    Type
REMARK                         _______ _______ _______ _____ _____    ______ ____
ROOT
ATOM      1  N   UNL     1       3.242   7.829  17.775  0.00  0.00    +0.000 NA
ATOM      2  C   UNL     1       3.496   6.563  17.889  0.00  0.00    +0.000 C 
ATOM      3  C   UNL     1       2.467   5.474  18.190  0.00  0.00    +0.000 C 
ATOM      4  C   UNL     1       2.971   4.485  19.239  0.00  0.00    +0.000 C 
ATOM      5  S   UNL     1       4.382   3.564  18.645  0.00  0.00    +0.000 S 
ATOM      6  O   UNL     1       5.140   3.070  19.774  0.00  0.00    +0.000 OA
ATOM      7  O   UNL     1       3.975   2.735  17.531  0.00  0.00    +0.000 OA
ATOM      8  C   UNL     1       5.312   4.885  17.940  0.00  0.00    +0.000 A 
ATOM      9  S   UNL     1       6.932   4.601  17.516  0.00  0.00    +0.000 S 
ATOM     10  C   UNL     1       7.119   6.213  16.964  0.00  0.00    +0.000 A 
ATOM     11  C   UNL     1       5.958   6.944  17.106  0.00  0.00    +0.000 A 
ATOM     12  C   UNL     1       4.886   6.165  17.651  0.00  0.00    +0.000 A 
ENDROOT
BRANCH   1  13
ATOM     13  O   UNL     1       1.867   8.131  17.835  0.00  0.00    +0.000 OA
BRANCH  13  15
ATOM     14  O   UNL     1       2.100  10.412  17.603  0.00  0.00    +0.000 OA
ATOM     15  C   UNL     1       1.712   9.432  18.224  0.00  0.00    +0.000 C 
BRANCH  15  16
ATOM     16  C   UNL     1       0.985   9.518  19.523  0.00  0.00    +0.000 A 
ATOM     17  C   UNL     1       1.276   8.557  20.507  0.00  0.00    +0.000 A 
ATOM     18  C   UNL     1       0.687   8.638  21.773  0.00  0.00    +0.000 A 
ATOM     19  C   UNL     1      -0.194   9.676  22.053  0.00  0.00    +0.000 A 
ATOM     20  F   UNL     1      -0.746   9.764  23.270  0.00  0.00    +0.000 F 
ATOM     21  C   UNL     1      -0.502  10.630  21.089  0.00  0.00    +0.000 A 
ATOM     22  C   UNL     1       0.086  10.555  19.823  0.00  0.00    +0.000 A 
ENDBRANCH  15  16
ENDBRANCH  13  15
ENDBRANCH   1  13
TORSDOF 3
ENDMDL
MODEL 2
REMARK VINA RESULT:      -7.8      0.074      1.034
REMARK  Name = 
REMARK  3 active torsions:
REMARK  status: ('A' for Active; 'I' for Inactive)
REMARK    1  A    between atoms: C_2  and  O_3
REMARK    2  A    between atoms: C_2  and  C_16
REMARK    3  A    between atoms: O_3  and  N_4
REMARK                            x       y       z     vdW  Elec       q    Type
REMARK                         _______ _______ _______ _____ _____    ______ ____
ROOT
ATOM      1  N   UNL     1       3.234   7.817  17.778  0.00  0.00    +0.000 NA
ATOM      2  C   UNL     1       3.490   6.552  17.893  0.00  0.00    +0.000 C 
ATOM      3  C   UNL     1       2.463   5.462  18.196  0.00  0.00    +0.000 C 
ATOM      4  C   UNL     1       2.969   4.473  19.245  0.00  0.00    +0.000 C 
ATOM      5  S   UNL     1       4.381   3.554  18.650  0.00  0.00    +0.000 S 
ATOM      6  O   UNL     1       5.141   3.062  19.778  0.00  0.00    +0.000 OA
ATOM      7  O   UNL     1       3.974   2.724  17.537  0.00  0.00    +0.000 OA
ATOM      8  C   UNL     1       5.309   4.876  17.943  0.00  0.00    +0.000 A 
ATOM      9  S   UNL     1       6.929   4.595  17.518  0.00  0.00    +0.000 S 
ATOM     10  C   UNL     1       7.112   6.206  16.965  0.00  0.00    +0.000 A 
ATOM     11  C   UNL     1       5.950   6.936  17.107  0.00  0.00    +0.000 A 
ATOM     12  C   UNL     1       4.880   6.156  17.654  0.00  0.00    +0.000 A 
ENDROOT
BRANCH   1  13
ATOM     13  O   UNL     1       1.859   8.117  17.840  0.00  0.00    +0.000 OA
BRANCH  13  15
ATOM     14  O   UNL     1       2.019  10.400  17.565  0.00  0.00    +0.000 OA
ATOM     15  C   UNL     1       1.702   9.419  18.224  0.00  0.00    +0.000 C 
BRANCH  15  16
ATOM     16  C   UNL     1       1.072   9.506  19.573  0.00  0.00    +0.000 A 
ATOM     17  C   UNL     1       0.194  10.575  19.823  0.00  0.00    +0.000 A 
ATOM     18  C   UNL     1      -0.490  10.661  21.040  0.00  0.00    +0.000 A 
ATOM     19  C   UNL     1      -0.293   9.682  22.006  0.00  0.00    +0.000 A 
ATOM     20  F   UNL     1      -0.960   9.753  23.165  0.00  0.00    +0.000 F 
ATOM     21  C   UNL     1       0.579   8.622  21.781  0.00  0.00    +0.000 A 
ATOM     22  C   UNL     1       1.263   8.531  20.565  0.00  0.00    +0.000 A 
ENDBRANCH  15  16
ENDBRANCH  13  15
ENDBRANCH   1  13
TORSDOF 3
ENDMDL
MODEL 3
REMARK VINA RESULT:      -7.8      4.118      6.503
REMARK  Name = 
REMARK  3 active torsions:
REMARK  status: ('A' for Active; 'I' for Inactive)
REMARK    1  A    between atoms: C_2  and  O_3
REMARK    2  A    between atoms: C_2  and  C_16
REMARK    3  A    between atoms: O_3  and  N_4
REMARK                            x       y       z     vdW  Elec       q    Type
REMARK                         _______ _______ _______ _____ _____    ______ ____
ROOT
ATOM      1  N   UNL     1       4.273   4.361  16.996  0.00  0.00    +0.000 NA
ATOM      2  C   UNL     1       3.760   3.975  18.122  0.00  0.00    +0.000 C 
ATOM      3  C   UNL     1       3.889   2.577  18.724  0.00  0.00    +0.000 C 
ATOM      4  C   UNL     1       2.560   2.066  19.276  0.00  0.00    +0.000 C 
ATOM      5  S   UNL     1       2.000   3.057  20.654  0.00  0.00    +0.000 S 
ATOM      6  O   UNL     1       0.567   2.916  20.794  0.00  0.00    +0.000 OA
ATOM      7  O   UNL     1       2.929   2.911  21.753  0.00  0.00    +0.000 OA
ATOM      8  C   UNL     1       2.296   4.664  19.992  0.00  0.00    +0.000 A 
ATOM      9  S   UNL     1       1.619   6.005  20.785  0.00  0.00    +0.000 S 
ATOM     10  C   UNL     1       2.292   7.083  19.635  0.00  0.00    +0.000 A 
ATOM     11  C   UNL     1       3.019   6.418  18.668  0.00  0.00    +0.000 A 
ATOM     12  C   UNL     1       3.049   5.002  18.886  0.00  0.00    +0.000 A 
ENDROOT
BRANCH   1  13
ATOM     13  O   UNL     1       5.095   3.388  16.393  0.00  0.00    +0.000 OA
BRANCH  13  15
ATOM     14  O   UNL     1       6.427   3.835  14.566  0.00  0.00    +0.000 OA
ATOM     15  C   UNL     1       6.118   4.011  15.736  0.00  0.00    +0.000 C 
BRANCH  15  16
ATOM     16  C   UNL     1       6.826   4.967  16.636  0.00  0.00    +0.000 A 
ATOM     17  C   UNL     1       6.794   6.333  16.305  0.00  0.00    +0.000 A 
ATOM     18  C   UNL     1       7.369   7.282  17.156  0.00  0.00    +0.000 A 
ATOM     19  C   UNL     1       7.979   6.866  18.334  0.00  0.00    +0.000 A 
ATOM     20  F   UNL     1       8.514   7.775  19.157  0.00  0.00    +0.000 F 
ATOM     21  C   UNL     1       8.029   5.518  18.673  0.00  0.00    +0.000 A 
ATOM     22  C   UNL     1       7.454   4.566  17.827  0.00  0.00    +0.000 A 
ENDBRANCH  15  16
ENDBRANCH  13  15
ENDBRANCH   1  13
TORSDOF 3
ENDMDL
MODEL 4
REMARK VINA RESULT:      -7.8      4.117      6.373
REMARK  Name = 
REMARK  3 active torsions:
REMARK  status: ('A' for Active; 'I' for Inactive)
REMARK    1  A    between atoms: C_2  and  O_3
REMARK    2  A    between atoms: C_2  and  C_16
REMARK    3  A    between atoms: O_3  and  N_4
REMARK                            x       y       z     vdW  Elec       q    Type
REMARK                         _______ _______ _______ _____ _____    ______ ____
ROOT
ATOM      1  N   UNL     1       4.187   4.378  16.782  0.00  0.00    +0.000 NA
ATOM      2  C   UNL     1       3.730   3.963  17.921  0.00  0.00    +0.000 C 
ATOM      3  C   UNL     1       3.884   2.548  18.478  0.00  0.00    +0.000 C 
ATOM      4  C   UNL     1       2.582   2.024  19.081  0.00  0.00    +0.000 C 
ATOM      5  S   UNL     1       2.094   2.978  20.510  0.00  0.00    +0.000 S 
ATOM      6  O   UNL     1       0.669   2.834  20.716  0.00  0.00    +0.000 OA
ATOM      7  O   UNL     1       3.075   2.800  21.559  0.00  0.00    +0.000 OA
ATOM      8  C   UNL     1       2.360   4.602  19.879  0.00  0.00    +0.000 A 
ATOM      9  S   UNL     1       1.727   5.922  20.740  0.00  0.00    +0.000 S 
ATOM     10  C   UNL     1       2.345   7.030  19.588  0.00  0.00    +0.000 A 
ATOM     11  C   UNL     1       3.021   6.391  18.569  0.00  0.00    +0.000 A 
ATOM     12  C   UNL     1       3.059   4.969  18.747  0.00  0.00    +0.000 A 
ENDROOT
BRANCH   1  13
ATOM     13  O   UNL     1       4.976   3.421  16.113  0.00  0.00    +0.000 OA
BRANCH  13  15
ATOM     14  O   UNL     1       6.541   3.828  14.471  0.00  0.00    +0.000 OA
ATOM     15  C   UNL     1       6.073   4.038  15.581  0.00  0.00    +0.000 C 
BRANCH  15  16
ATOM     16  C   UNL     1       6.641   5.034  16.535  0.00  0.00    +0.000 A 
ATOM     17  C   UNL     1       7.394   4.552  17.621  0.00  0.00    +0.000 A 
ATOM     18  C   UNL     1       8.019   5.443  18.499  0.00  0.00    +0.000 A 
ATOM     19  C   UNL     1       7.889   6.811  18.295  0.00  0.00    +0.000 A 
ATOM     20  F   UNL     1       8.502   7.664  19.125  0.00  0.00    +0.000 F 
ATOM     21  C   UNL     1       7.140   7.306  17.233  0.00  0.00    +0.000 A 
ATOM     22  C   UNL     1       6.514   6.420  16.351  0.00  0.00    +0.000 A 
ENDBRANCH  15  16
ENDBRANCH  13  15
ENDBRANCH   1  13
TORSDOF 3
ENDMDL
MODEL 5
REMARK VINA RESULT:      -7.5      1.691      2.391
REMARK  Name = 
REMARK  3 active torsions:
REMARK  status: ('A' for Active; 'I' for Inactive)
REMARK    1  A    between atoms: C_2  and  O_3
REMARK    2  A    between atoms: C_2  and  C_16
REMARK    3  A    between atoms: O_3  and  N_4
REMARK                            x       y       z     vdW  Elec       q    Type
REMARK                         _______ _______ _______ _____ _____    ______ ____
ROOT
ATOM      1  N   UNL     1       2.430   7.399  19.670  0.00  0.00    +0.000 NA
ATOM      2  C   UNL     1       2.438   6.103  19.660  0.00  0.00    +0.000 C 
ATOM      3  C   UNL     1       1.604   5.202  20.570  0.00  0.00    +0.000 C 
ATOM      4  C   UNL     1       2.424   4.046  21.138  0.00  0.00    +0.000 C 
ATOM      5  S   UNL     1       2.969   2.935  19.849  0.00  0.00    +0.000 S 
ATOM      6  O   UNL     1       4.134   2.209  20.304  0.00  0.00    +0.000 OA
ATOM      7  O   UNL     1       1.816   2.301  19.248  0.00  0.00    +0.000 OA
ATOM      8  C   UNL     1       3.531   4.118  18.668  0.00  0.00    +0.000 A 
ATOM      9  S   UNL     1       4.469   3.577  17.360  0.00  0.00    +0.000 S 
ATOM     10  C   UNL     1       4.607   5.168  16.741  0.00  0.00    +0.000 A 
ATOM     11  C   UNL     1       3.944   6.088  17.527  0.00  0.00    +0.000 A 
ATOM     12  C   UNL     1       3.287   5.476  18.644  0.00  0.00    +0.000 A 
ENDROOT
BRANCH   1  13
ATOM     13  O   UNL     1       1.466   7.946  20.540  0.00  0.00    +0.000 OA
BRANCH  13  15
ATOM     14  O   UNL     1       1.219   9.533  18.887  0.00  0.00    +0.000 OA
ATOM     15  C   UNL     1       1.019   9.130  20.025  0.00  0.00    +0.000 C 
BRANCH  15  16
ATOM     16  C   UNL     1       0.227   9.888  21.036  0.00  0.00    +0.000 A 
ATOM     17  C   UNL     1      -0.397  11.080  20.628  0.00  0.00    +0.000 A 
ATOM     18  C   UNL     1      -1.219  11.787  21.510  0.00  0.00    +0.000 A 
ATOM     19  C   UNL     1      -1.414  11.307  22.799  0.00  0.00    +0.000 A 
ATOM     20  F   UNL     1      -2.214  11.974  23.639  0.00  0.00    +0.000 F 
ATOM     21  C   UNL     1      -0.797  10.135  23.225  0.00  0.00    +0.000 A 
ATOM     22  C   UNL     1       0.024   9.423  22.346  0.00  0.00    +0.000 A 
ENDBRANCH  15  16
ENDBRANCH  13  15
ENDBRANCH   1  13
TORSDOF 3
ENDMDL
MODEL 6
REMARK VINA RESULT:      -7.5      1.687      2.186
REMARK  Name = 
REMARK  3 active torsions:
REMARK  status: ('A' for Active; 'I' for Inactive)
REMARK    1  A    between atoms: C_2  and  O_3
REMARK    2  A    between atoms: C_2  and  C_16
REMARK    3  A    between atoms: O_3  and  N_4
REMARK                            x       y       z     vdW  Elec       q    Type
REMARK                         _______ _______ _______ _____ _____    ______ ____
ROOT
ATOM      1  N   UNL     1       2.482   7.445  19.651  0.00  0.00    +0.000 NA
ATOM      2  C   UNL     1       2.454   6.149  19.658  0.00  0.00    +0.000 C 
ATOM      3  C   UNL     1       1.606   5.284  20.589  0.00  0.00    +0.000 C 
ATOM      4  C   UNL     1       2.399   4.112  21.163  0.00  0.00    +0.000 C 
ATOM      5  S   UNL     1       2.897   2.970  19.881  0.00  0.00    +0.000 S 
ATOM      6  O   UNL     1       4.047   2.217  20.332  0.00  0.00    +0.000 OA
ATOM      7  O   UNL     1       1.719   2.362  19.302  0.00  0.00    +0.000 OA
ATOM      8  C   UNL     1       3.477   4.122  18.679  0.00  0.00    +0.000 A 
ATOM      9  S   UNL     1       4.384   3.538  17.367  0.00  0.00    +0.000 S 
ATOM     10  C   UNL     1       4.560   5.117  16.725  0.00  0.00    +0.000 A 
ATOM     11  C   UNL     1       3.933   6.065  17.508  0.00  0.00    +0.000 A 
ATOM     12  C   UNL     1       3.272   5.486  18.640  0.00  0.00    +0.000 A 
ENDROOT
BRANCH   1  13
ATOM     13  O   UNL     1       1.545   8.030  20.526  0.00  0.00    +0.000 OA
BRANCH  13  15
ATOM     14  O   UNL     1       1.218   9.502  18.783  0.00  0.00    +0.000 OA
ATOM     15  C   UNL     1       1.015   9.141  19.934  0.00  0.00    +0.000 C 
BRANCH  15  16
ATOM     16  C   UNL     1       0.126   9.877  20.879  0.00  0.00    +0.000 A 
ATOM     17  C   UNL     1      -0.025   9.363  22.179  0.00  0.00    +0.000 A 
ATOM     18  C   UNL     1      -0.779  10.055  23.132  0.00  0.00    +0.000 A 
ATOM     19  C   UNL     1      -1.384  11.257  22.785  0.00  0.00    +0.000 A 
ATOM     20  F   UNL     1      -2.092  11.929  23.701  0.00  0.00    +0.000 F 
ATOM     21  C   UNL     1      -1.255  11.776  21.501  0.00  0.00    +0.000 A 
ATOM     22  C   UNL     1      -0.501  11.089  20.545  0.00  0.00    +0.000 A 
ENDBRANCH  15  16
ENDBRANCH  13  15
ENDBRANCH   1  13
TORSDOF 3
ENDMDL
MODEL 7
REMARK VINA RESULT:      -7.5      3.253      4.498
REMARK  Name = 
REMARK  3 active torsions:
REMARK  status: ('A' for Active; 'I' for Inactive)
REMARK    1  A    between atoms: C_2  and  O_3
REMARK    2  A    between atoms: C_2  and  C_16
REMARK    3  A    between atoms: O_3  and  N_4
REMARK                            x       y       z     vdW  Elec       q    Type
REMARK                         _______ _______ _______ _____ _____    ______ ____
ROOT
ATOM      1  N   UNL     1       3.524   2.937  17.334  0.00  0.00    +0.000 NA
ATOM      2  C   UNL     1       4.635   3.542  17.619  0.00  0.00    +0.000 C 
ATOM      3  C   UNL     1       5.167   3.804  19.026  0.00  0.00    +0.000 C 
ATOM      4  C   UNL     1       5.706   5.225  19.180  0.00  0.00    +0.000 C 
ATOM      5  S   UNL     1       7.135   5.498  18.142  0.00  0.00    +0.000 S 
ATOM      6  O   UNL     1       7.280   6.916  17.893  0.00  0.00    +0.000 OA
ATOM      7  O   UNL     1       8.218   4.651  18.591  0.00  0.00    +0.000 OA
ATOM      8  C   UNL     1       6.548   4.771  16.647  0.00  0.00    +0.000 A 
ATOM      9  S   UNL     1       7.411   5.058  15.213  0.00  0.00    +0.000 S 
ATOM     10  C   UNL     1       6.308   4.110  14.306  0.00  0.00    +0.000 A 
ATOM     11  C   UNL     1       5.304   3.589  15.096  0.00  0.00    +0.000 A 
ATOM     12  C   UNL     1       5.454   3.949  16.475  0.00  0.00    +0.000 A 
ENDROOT
BRANCH   1  13
ATOM     13  O   UNL     1       2.867   2.411  18.464  0.00  0.00    +0.000 OA
BRANCH  13  15
ATOM     14  O   UNL     1       0.567   2.388  18.325  0.00  0.00    +0.000 OA
ATOM     15  C   UNL     1       1.622   2.964  18.555  0.00  0.00    +0.000 C 
BRANCH  15  16
ATOM     16  C   UNL     1       1.700   4.388  18.992  0.00  0.00    +0.000 A 
ATOM     17  C   UNL     1       1.589   4.663  20.367  0.00  0.00    +0.000 A 
ATOM     18  C   UNL     1       1.739   5.970  20.842  0.00  0.00    +0.000 A 
ATOM     19  C   UNL     1       1.995   7.000  19.944  0.00  0.00    +0.000 A 
ATOM     20  F   UNL     1       2.155   8.249  20.400  0.00  0.00    +0.000 F 
ATOM     21  C   UNL     1       2.098   6.748  18.580  0.00  0.00    +0.000 A 
ATOM     22  C   UNL     1       1.951   5.444  18.101  0.00  0.00    +0.000 A 
ENDBRANCH  15  16
ENDBRANCH  13  15
ENDBRANCH   1  13
TORSDOF 3
ENDMDL
MODEL 8
REMARK VINA RESULT:      -7.3      3.208      4.470
REMARK  Name = 
REMARK  3 active torsions:
REMARK  status: ('A' for Active; 'I' for Inactive)
REMARK    1  A    between atoms: C_2  and  O_3
REMARK    2  A    between atoms: C_2  and  C_16
REMARK    3  A    between atoms: O_3  and  N_4
REMARK                            x       y       z     vdW  Elec       q    Type
REMARK                         _______ _______ _______ _____ _____    ______ ____
ROOT
ATOM      1  N   UNL     1       3.490   3.067  17.253  0.00  0.00    +0.000 NA
ATOM      2  C   UNL     1       4.639   3.608  17.514  0.00  0.00    +0.000 C 
ATOM      3  C   UNL     1       5.228   3.815  18.908  0.00  0.00    +0.000 C 
ATOM      4  C   UNL     1       5.845   5.203  19.069  0.00  0.00    +0.000 C 
ATOM      5  S   UNL     1       7.253   5.422  17.992  0.00  0.00    +0.000 S 
ATOM      6  O   UNL     1       7.464   6.835  17.763  0.00  0.00    +0.000 OA
ATOM      7  O   UNL     1       8.303   4.511  18.390  0.00  0.00    +0.000 OA
ATOM      8  C   UNL     1       6.584   4.755  16.504  0.00  0.00    +0.000 A 
ATOM      9  S   UNL     1       7.415   5.025  15.047  0.00  0.00    +0.000 S 
ATOM     10  C   UNL     1       6.237   4.153  14.159  0.00  0.00    +0.000 A 
ATOM     11  C   UNL     1       5.232   3.669  14.972  0.00  0.00    +0.000 A 
ATOM     12  C   UNL     1       5.443   3.994  16.351  0.00  0.00    +0.000 A 
ENDROOT
BRANCH   1  13
ATOM     13  O   UNL     1       2.842   2.554  18.394  0.00  0.00    +0.000 OA
BRANCH  13  15
ATOM     14  O   UNL     1       0.544   2.677  18.274  0.00  0.00    +0.000 OA
ATOM     15  C   UNL     1       1.632   3.171  18.537  0.00  0.00    +0.000 C 
BRANCH  15  16
ATOM     16  C   UNL     1       1.797   4.552  19.077  0.00  0.00    +0.000 A 
ATOM     17  C   UNL     1       2.085   5.586  18.169  0.00  0.00    +0.000 A 
ATOM     18  C   UNL     1       2.167   6.911  18.607  0.00  0.00    +0.000 A 
ATOM     19  C   UNL     1       1.965   7.202  19.951  0.00  0.00    +0.000 A 
ATOM     20  F   UNL     1       2.027   8.472  20.369  0.00  0.00    +0.000 F 
ATOM     21  C   UNL     1       1.689   6.191  20.866  0.00  0.00    +0.000 A 
ATOM     22  C   UNL     1       1.604   4.865  20.433  0.00  0.00    +0.000 A 
ENDBRANCH  15  16
ENDBRANCH  13  15
ENDBRANCH   1  13
TORSDOF 3
ENDMDL
MODEL 9
REMARK VINA RESULT:      -7.2      4.684      7.689
REMARK  Name = 
REMARK  3 active torsions:
REMARK  status: ('A' for Active; 'I' for Inactive)
REMARK    1  A    between atoms: C_2  and  O_3
REMARK    2  A    between atoms: C_2  and  C_16
REMARK    3  A    between atoms: O_3  and  N_4
REMARK                            x       y       z     vdW  Elec       q    Type
REMARK                         _______ _______ _______ _____ _____    ______ ____
ROOT
ATOM      1  N   UNL     1       0.927   8.750  19.627  0.00  0.00    +0.000 NA
ATOM      2  C   UNL     1       0.517   9.633  20.484  0.00  0.00    +0.000 C 
ATOM      3  C   UNL     1       0.970   9.736  21.939  0.00  0.00    +0.000 C 
ATOM      4  C   UNL     1      -0.203   9.970  22.889  0.00  0.00    +0.000 C 
ATOM      5  S   UNL     1      -0.983  11.550  22.588  0.00  0.00    +0.000 S 
ATOM      6  O   UNL     1      -2.343  11.513  23.081  0.00  0.00    +0.000 OA
ATOM      7  O   UNL     1      -0.048  12.609  22.900  0.00  0.00    +0.000 OA
ATOM      8  C   UNL     1      -1.073  11.497  20.829  0.00  0.00    +0.000 A 
ATOM      9  S   UNL     1      -2.048  12.636  20.031  0.00  0.00    +0.000 S 
ATOM     10  C   UNL     1      -1.645  11.978  18.501  0.00  0.00    +0.000 A 
ATOM     11  C   UNL     1      -0.781  10.908  18.610  0.00  0.00    +0.000 A 
ATOM     12  C   UNL     1      -0.418  10.637  19.970  0.00  0.00    +0.000 A 
ENDROOT
BRANCH   1  13
ATOM     13  O   UNL     1       1.955   7.925  20.124  0.00  0.00    +0.000 OA
BRANCH  13  15
ATOM     14  O   UNL     1       3.208   7.605  18.216  0.00  0.00    +0.000 OA
ATOM     15  C   UNL     1       2.470   7.186  19.097  0.00  0.00    +0.000 C 
BRANCH  15  16
ATOM     16  C   UNL     1       2.022   5.766  19.184  0.00  0.00    +0.000 A 
ATOM     17  C   UNL     1       2.039   4.995  18.008  0.00  0.00    +0.000 A 
ATOM     18  C   UNL     1       1.710   3.636  18.047  0.00  0.00    +0.000 A 
ATOM     19  C   UNL     1       1.361   3.050  19.258  0.00  0.00    +0.000 A 
ATOM     20  F   UNL     1       1.063   1.746  19.299  0.00  0.00    +0.000 F 
ATOM     21  C   UNL     1       1.329   3.799  20.430  0.00  0.00    +0.000 A 
ATOM     22  C   UNL     1       1.659   5.157  20.397  0.00  0.00    +0.000 A 
ENDBRANCH  15  16
ENDBRANCH  13  15
ENDBRANCH   1  13
TORSDOF 3
ENDMDL
