MODEL 1
REMARK VINA RESULT:      -7.7      0.000      0.000
REMARK  Name = 
REMARK  10 active torsions:
REMARK  status: ('A' for Active; 'I' for Inactive)
REMARK    1  A    between atoms: C_1  and  N_2
REMARK    2  A    between atoms: C_6  and  S_7
REMARK    3  A    between atoms: S_7  and  C_8
REMARK    4  A    between atoms: C_8  and  C_9
REMARK    5  A    between atoms: CA_10  and  C_11
REMARK    6  A    between atoms: C_11  and  OXT_13
REMARK    7  A    between atoms: CA_17  and  N_18
REMARK    8  A    between atoms: C_19  and  C_21
REMARK    9  A    between atoms: C_21  and  S_22
REMARK   10  A    between atoms: S_22  and  C_23
REMARK                            x       y       z     vdW  Elec       q    Type
REMARK                         _______ _______ _______ _____ _____    ______ ____
ROOT
ATOM      1  C   UNL     1       2.413   6.451  19.929  0.00  0.00    +0.000 C 
ATOM      2  CA  UNL     1       2.747   5.144  20.081  0.00  0.00    +0.000 C 
ATOM      3  N   UNL     1       3.875   4.605  19.506  0.00  0.00    +0.000 N 
ATOM      4  C   UNL     1       3.937   3.500  18.702  0.00  0.00    +0.000 C 
ATOM      5  O   UNL     1       3.194   2.562  18.552  0.00  0.00    +0.000 OA
ATOM      6  CA  UNL     1       5.268   4.008  18.092  0.00  0.00    +0.000 C 
ATOM      7  C   UNL     1       4.840   5.375  18.716  0.00  0.00    +0.000 C 
ATOM      8  S   UNL     1       3.942   6.509  17.609  0.00  0.00    +0.000 S 
ATOM      9  C   UNL     1       3.148   7.386  18.984  0.00  0.00    +0.000 C 
ENDROOT
BRANCH   6  10
ATOM     10  N   UNL     1       5.449   3.947  16.619  0.00  0.00    +0.000 N 
ATOM     11  C   UNL     1       6.687   4.221  16.076  0.00  0.00    +0.000 C 
ATOM     12  O   UNL     1       7.635   4.549  16.787  0.00  0.00    +0.000 OA
ATOM     13  H   UNL     1       4.665   3.714  16.015  0.00  0.00    +0.000 HD
BRANCH  11  14
ATOM     14  C   UNL     1       6.770   4.083  14.565  0.00  0.00    +0.000 C 
BRANCH  14  15
ATOM     15  S   UNL     1       5.150   3.798  13.800  0.00  0.00    +0.000 S 
BRANCH  15  16
ATOM     16  C   UNL     1       5.688   3.365  12.149  0.00  0.00    +0.000 C 
ATOM     17  F   UNL     1       5.838   2.029  11.981  0.00  0.00    +0.000 F 
ATOM     18  F   UNL     1       4.771   3.767  11.236  0.00  0.00    +0.000 F 
ATOM     19  F   UNL     1       6.861   3.954  11.825  0.00  0.00    +0.000 F 
ENDBRANCH  15  16
ENDBRANCH  14  15
ENDBRANCH  11  14
ENDBRANCH   6  10
BRANCH   2  20
ATOM     20  C   UNL     1       1.926   4.222  20.947  0.00  0.00    +0.000 C 
ATOM     21  O   UNL     1       2.258   3.809  22.043  0.00  0.00    +0.000 OA
BRANCH  20  22
ATOM     22  OXT UNL     1       0.800   3.802  20.320  0.00  0.00    +0.000 OA
ATOM     23  HXT UNL     1      -0.016   4.079  20.776  0.00  0.00    +0.000 HD
ENDBRANCH  20  22
ENDBRANCH   2  20
BRANCH   1  24
ATOM     24  C   UNL     1       1.223   7.127  20.602  0.00  0.00    +0.000 C 
BRANCH  24  25
ATOM     25  S   UNL     1       1.076   8.894  20.212  0.00  0.00    +0.000 S 
BRANCH  25  31
ATOM     26  C   UNL     1      -0.953  11.383  20.747  0.00  0.00    +0.000 C 
ATOM     27  N   UNL     1      -0.323  10.616  21.787  0.00  0.00    +0.000 N 
ATOM     28  N   UNL     1      -0.591  10.869  23.079  0.00  0.00    +0.000 NA
ATOM     29  N   UNL     1       0.131   9.985  23.762  0.00  0.00    +0.000 NA
ATOM     30  N   UNL     1       0.839   9.166  22.913  0.00  0.00    +0.000 NA
ATOM     31  C   UNL     1       0.538   9.562  21.700  0.00  0.00    +0.000 A 
ENDBRANCH  25  31
ENDBRANCH  24  25
ENDBRANCH   1  24
TORSDOF 9
ENDMDL
MODEL 2
REMARK VINA RESULT:      -7.6      0.903      1.301
REMARK  Name = 
REMARK  10 active torsions:
REMARK  status: ('A' for Active; 'I' for Inactive)
REMARK    1  A    between atoms: C_1  and  N_2
REMARK    2  A    between atoms: C_6  and  S_7
REMARK    3  A    between atoms: S_7  and  C_8
REMARK    4  A    between atoms: C_8  and  C_9
REMARK    5  A    between atoms: CA_10  and  C_11
REMARK    6  A    between atoms: C_11  and  OXT_13
REMARK    7  A    between atoms: CA_17  and  N_18
REMARK    8  A    between atoms: C_19  and  C_21
REMARK    9  A    between atoms: C_21  and  S_22
REMARK   10  A    between atoms: S_22  and  C_23
REMARK                            x       y       z     vdW  Elec       q    Type
REMARK                         _______ _______ _______ _____ _____    ______ ____
ROOT
ATOM      1  C   UNL     1       2.221   6.338  20.051  0.00  0.00    +0.000 C 
ATOM      2  CA  UNL     1       2.643   5.054  20.167  0.00  0.00    +0.000 C 
ATOM      3  N   UNL     1       3.805   4.609  19.579  0.00  0.00    +0.000 N 
ATOM      4  C   UNL     1       3.943   3.534  18.745  0.00  0.00    +0.000 C 
ATOM      5  O   UNL     1       3.266   2.552  18.567  0.00  0.00    +0.000 OA
ATOM      6  CA  UNL     1       5.237   4.149  18.153  0.00  0.00    +0.000 C 
ATOM      7  C   UNL     1       4.716   5.465  18.814  0.00  0.00    +0.000 C 
ATOM      8  S   UNL     1       3.743   6.566  17.737  0.00  0.00    +0.000 S 
ATOM      9  C   UNL     1       2.891   7.348  19.134  0.00  0.00    +0.000 C 
ENDROOT
BRANCH   6  10
ATOM     10  N   UNL     1       5.422   4.142  16.679  0.00  0.00    +0.000 N 
ATOM     11  C   UNL     1       6.682   4.340  16.153  0.00  0.00    +0.000 C 
ATOM     12  O   UNL     1       7.648   4.557  16.881  0.00  0.00    +0.000 OA
ATOM     13  H   UNL     1       4.626   4.001  16.062  0.00  0.00    +0.000 HD
BRANCH  11  14
ATOM     14  C   UNL     1       6.764   4.266  14.637  0.00  0.00    +0.000 C 
BRANCH  14  15
ATOM     15  S   UNL     1       5.166   3.875  13.870  0.00  0.00    +0.000 S 
BRANCH  15  16
ATOM     16  C   UNL     1       5.739   3.430  12.234  0.00  0.00    +0.000 C 
ATOM     17  F   UNL     1       5.971   2.101  12.104  0.00  0.00    +0.000 F 
ATOM     18  F   UNL     1       4.804   3.749  11.307  0.00  0.00    +0.000 F 
ATOM     19  F   UNL     1       6.874   4.081  11.898  0.00  0.00    +0.000 F 
ENDBRANCH  15  16
ENDBRANCH  14  15
ENDBRANCH  11  14
ENDBRANCH   6  10
BRANCH   2  20
ATOM     20  C   UNL     1       1.887   4.053  21.004  0.00  0.00    +0.000 C 
ATOM     21  O   UNL     1       2.252   3.625  22.085  0.00  0.00    +0.000 OA
BRANCH  20  22
ATOM     22  OXT UNL     1       0.784   3.586  20.369  0.00  0.00    +0.000 OA
ATOM     23  HXT UNL     1       0.914   2.703  19.980  0.00  0.00    +0.000 HD
ENDBRANCH  20  22
ENDBRANCH   2  20
BRANCH   1  24
ATOM     24  C   UNL     1       0.988   6.912  20.739  0.00  0.00    +0.000 C 
BRANCH  24  25
ATOM     25  S   UNL     1       1.310   8.455  21.640  0.00  0.00    +0.000 S 
BRANCH  25  31
ATOM     26  C   UNL     1      -0.789  10.641  22.828  0.00  0.00    +0.000 C 
ATOM     27  N   UNL     1      -0.518  10.460  21.428  0.00  0.00    +0.000 N 
ATOM     28  N   UNL     1      -1.104  11.248  20.511  0.00  0.00    +0.000 NA
ATOM     29  N   UNL     1      -0.630  10.829  19.342  0.00  0.00    +0.000 NA
ATOM     30  N   UNL     1       0.262   9.796  19.512  0.00  0.00    +0.000 NA
ATOM     31  C   UNL     1       0.327   9.589  20.806  0.00  0.00    +0.000 A 
ENDBRANCH  25  31
ENDBRANCH  24  25
ENDBRANCH   1  24
TORSDOF 9
ENDMDL
MODEL 3
REMARK VINA RESULT:      -7.4      5.348      8.672
REMARK  Name = 
REMARK  10 active torsions:
REMARK  status: ('A' for Active; 'I' for Inactive)
REMARK    1  A    between atoms: C_1  and  N_2
REMARK    2  A    between atoms: C_6  and  S_7
REMARK    3  A    between atoms: S_7  and  C_8
REMARK    4  A    between atoms: C_8  and  C_9
REMARK    5  A    between atoms: CA_10  and  C_11
REMARK    6  A    between atoms: C_11  and  OXT_13
REMARK    7  A    between atoms: CA_17  and  N_18
REMARK    8  A    between atoms: C_19  and  C_21
REMARK    9  A    between atoms: C_21  and  S_22
REMARK   10  A    between atoms: S_22  and  C_23
REMARK                            x       y       z     vdW  Elec       q    Type
REMARK                         _______ _______ _______ _____ _____    ______ ____
ROOT
ATOM      1  C   UNL     1       4.341   4.708  17.046  0.00  0.00    +0.000 C 
ATOM      2  CA  UNL     1       3.683   4.151  18.093  0.00  0.00    +0.000 C 
ATOM      3  N   UNL     1       2.695   4.820  18.779  0.00  0.00    +0.000 N 
ATOM      4  C   UNL     1       2.630   5.027  20.130  0.00  0.00    +0.000 C 
ATOM      5  O   UNL     1       3.145   4.463  21.063  0.00  0.00    +0.000 OA
ATOM      6  CA  UNL     1       1.707   6.252  19.906  0.00  0.00    +0.000 C 
ATOM      7  C   UNL     1       2.226   6.165  18.435  0.00  0.00    +0.000 C 
ATOM      8  S   UNL     1       3.659   7.216  18.032  0.00  0.00    +0.000 S 
ATOM      9  C   UNL     1       4.170   6.165  16.646  0.00  0.00    +0.000 C 
ENDROOT
BRANCH   6  10
ATOM     10  N   UNL     1       1.981   7.501  20.663  0.00  0.00    +0.000 N 
ATOM     11  C   UNL     1       0.947   8.137  21.318  0.00  0.00    +0.000 C 
ATOM     12  O   UNL     1      -0.203   7.708  21.257  0.00  0.00    +0.000 OA
ATOM     13  H   UNL     1       2.920   7.888  20.691  0.00  0.00    +0.000 HD
BRANCH  11  14
ATOM     14  C   UNL     1       1.348   9.377  22.099  0.00  0.00    +0.000 C 
BRANCH  14  15
ATOM     15  S   UNL     1       0.792  10.912  21.306  0.00  0.00    +0.000 S 
BRANCH  15  16
ATOM     16  C   UNL     1      -0.623  11.269  22.342  0.00  0.00    +0.000 C 
ATOM     17  F   UNL     1      -1.791  11.259  21.655  0.00  0.00    +0.000 F 
ATOM     18  F   UNL     1      -0.741  10.333  23.314  0.00  0.00    +0.000 F 
ATOM     19  F   UNL     1      -0.516  12.470  22.953  0.00  0.00    +0.000 F 
ENDBRANCH  15  16
ENDBRANCH  14  15
ENDBRANCH  11  14
ENDBRANCH   6  10
BRANCH   2  20
ATOM     20  C   UNL     1       3.960   2.733  18.526  0.00  0.00    +0.000 C 
ATOM     21  O   UNL     1       3.260   1.771  18.265  0.00  0.00    +0.000 OA
BRANCH  20  22
ATOM     22  OXT UNL     1       5.037   2.650  19.346  0.00  0.00    +0.000 OA
ATOM     23  HXT UNL     1       5.807   2.230  18.922  0.00  0.00    +0.000 HD
ENDBRANCH  20  22
ENDBRANCH   2  20
BRANCH   1  24
ATOM     24  C   UNL     1       5.387   3.995  16.198  0.00  0.00    +0.000 C 
BRANCH  24  25
ATOM     25  S   UNL     1       6.886   4.979  15.914  0.00  0.00    +0.000 S 
BRANCH  25  31
ATOM     26  C   UNL     1       7.568   7.819  17.352  0.00  0.00    +0.000 C 
ATOM     27  N   UNL     1       7.689   6.538  17.994  0.00  0.00    +0.000 N 
ATOM     28  N   UNL     1       8.056   6.454  19.284  0.00  0.00    +0.000 NA
ATOM     29  N   UNL     1       8.053   5.153  19.560  0.00  0.00    +0.000 NA
ATOM     30  N   UNL     1       7.670   4.417  18.462  0.00  0.00    +0.000 NA
ATOM     31  C   UNL     1       7.439   5.288  17.510  0.00  0.00    +0.000 A 
ENDBRANCH  25  31
ENDBRANCH  24  25
ENDBRANCH   1  24
TORSDOF 9
ENDMDL
MODEL 4
REMARK VINA RESULT:      -7.4      0.804      1.129
REMARK  Name = 
REMARK  10 active torsions:
REMARK  status: ('A' for Active; 'I' for Inactive)
REMARK    1  A    between atoms: C_1  and  N_2
REMARK    2  A    between atoms: C_6  and  S_7
REMARK    3  A    between atoms: S_7  and  C_8
REMARK    4  A    between atoms: C_8  and  C_9
REMARK    5  A    between atoms: CA_10  and  C_11
REMARK    6  A    between atoms: C_11  and  OXT_13
REMARK    7  A    between atoms: CA_17  and  N_18
REMARK    8  A    between atoms: C_19  and  C_21
REMARK    9  A    between atoms: C_21  and  S_22
REMARK   10  A    between atoms: S_22  and  C_23
REMARK                            x       y       z     vdW  Elec       q    Type
REMARK                         _______ _______ _______ _____ _____    ______ ____
ROOT
ATOM      1  C   UNL     1       2.375   6.227  20.086  0.00  0.00    +0.000 C 
ATOM      2  CA  UNL     1       2.646   4.905  20.221  0.00  0.00    +0.000 C 
ATOM      3  N   UNL     1       3.688   4.299  19.557  0.00  0.00    +0.000 N 
ATOM      4  C   UNL     1       3.618   3.188  18.760  0.00  0.00    +0.000 C 
ATOM      5  O   UNL     1       2.812   2.295  18.682  0.00  0.00    +0.000 OA
ATOM      6  CA  UNL     1       4.920   3.616  18.036  0.00  0.00    +0.000 C 
ATOM      7  C   UNL     1       4.625   5.008  18.682  0.00  0.00    +0.000 C 
ATOM      8  S   UNL     1       3.703   6.188  17.645  0.00  0.00    +0.000 S 
ATOM      9  C   UNL     1       3.081   7.115  19.073  0.00  0.00    +0.000 C 
ENDROOT
BRANCH   6  10
ATOM     10  N   UNL     1       4.971   3.539  16.554  0.00  0.00    +0.000 N 
ATOM     11  C   UNL     1       6.126   3.908  15.895  0.00  0.00    +0.000 C 
ATOM     12  O   UNL     1       7.102   4.332  16.511  0.00  0.00    +0.000 OA
ATOM     13  H   UNL     1       4.160   3.226  16.028  0.00  0.00    +0.000 HD
BRANCH  11  14
ATOM     14  C   UNL     1       6.084   3.744  14.385  0.00  0.00    +0.000 C 
BRANCH  14  15
ATOM     15  S   UNL     1       7.388   4.686  13.544  0.00  0.00    +0.000 S 
BRANCH  15  16
ATOM     16  C   UNL     1       7.053   4.188  11.858  0.00  0.00    +0.000 C 
ATOM     17  F   UNL     1       7.364   5.151  10.956  0.00  0.00    +0.000 F 
ATOM     18  F   UNL     1       7.797   3.104  11.533  0.00  0.00    +0.000 F 
ATOM     19  F   UNL     1       5.757   3.855  11.673  0.00  0.00    +0.000 F 
ENDBRANCH  15  16
ENDBRANCH  14  15
ENDBRANCH  11  14
ENDBRANCH   6  10
BRANCH   2  20
ATOM     20  C   UNL     1       1.849   4.035  21.160  0.00  0.00    +0.000 C 
ATOM     21  O   UNL     1       2.247   3.612  22.231  0.00  0.00    +0.000 OA
BRANCH  20  22
ATOM     22  OXT UNL     1       0.655   3.673  20.632  0.00  0.00    +0.000 OA
ATOM     23  HXT UNL     1       0.504   4.040  19.742  0.00  0.00    +0.000 HD
ENDBRANCH  20  22
ENDBRANCH   2  20
BRANCH   1  24
ATOM     24  C   UNL     1       1.288   6.974  20.850  0.00  0.00    +0.000 C 
BRANCH  24  25
ATOM     25  S   UNL     1       1.023   8.672  20.264  0.00  0.00    +0.000 S 
BRANCH  25  31
ATOM     26  C   UNL     1      -0.401  11.582  20.577  0.00  0.00    +0.000 C 
ATOM     27  N   UNL     1      -0.095  10.710  21.678  0.00  0.00    +0.000 N 
ATOM     28  N   UNL     1      -0.440  11.047  22.932  0.00  0.00    +0.000 NA
ATOM     29  N   UNL     1      -0.033  10.032  23.688  0.00  0.00    +0.000 NA
ATOM     30  N   UNL     1       0.551   9.050  22.921  0.00  0.00    +0.000 NA
ATOM     31  C   UNL     1       0.494   9.480  21.683  0.00  0.00    +0.000 A 
ENDBRANCH  25  31
ENDBRANCH  24  25
ENDBRANCH   1  24
TORSDOF 9
ENDMDL
MODEL 5
REMARK VINA RESULT:      -7.0      5.420      8.727
REMARK  Name = 
REMARK  10 active torsions:
REMARK  status: ('A' for Active; 'I' for Inactive)
REMARK    1  A    between atoms: C_1  and  N_2
REMARK    2  A    between atoms: C_6  and  S_7
REMARK    3  A    between atoms: S_7  and  C_8
REMARK    4  A    between atoms: C_8  and  C_9
REMARK    5  A    between atoms: CA_10  and  C_11
REMARK    6  A    between atoms: C_11  and  OXT_13
REMARK    7  A    between atoms: CA_17  and  N_18
REMARK    8  A    between atoms: C_19  and  C_21
REMARK    9  A    between atoms: C_21  and  S_22
REMARK   10  A    between atoms: S_22  and  C_23
REMARK                            x       y       z     vdW  Elec       q    Type
REMARK                         _______ _______ _______ _____ _____    ______ ____
ROOT
ATOM      1  C   UNL     1       4.064   4.482  17.504  0.00  0.00    +0.000 C 
ATOM      2  CA  UNL     1       3.343   3.960  18.528  0.00  0.00    +0.000 C 
ATOM      3  N   UNL     1       2.355   4.674  19.167  0.00  0.00    +0.000 N 
ATOM      4  C   UNL     1       2.243   4.897  20.512  0.00  0.00    +0.000 C 
ATOM      5  O   UNL     1       2.696   4.322  21.471  0.00  0.00    +0.000 OA
ATOM      6  CA  UNL     1       1.380   6.155  20.241  0.00  0.00    +0.000 C 
ATOM      7  C   UNL     1       1.955   6.034  18.794  0.00  0.00    +0.000 C 
ATOM      8  S   UNL     1       3.443   7.024  18.442  0.00  0.00    +0.000 S 
ATOM      9  C   UNL     1       3.968   5.940  17.086  0.00  0.00    +0.000 C 
ENDROOT
BRANCH   6  10
ATOM     10  N   UNL     1       1.672   7.399  20.999  0.00  0.00    +0.000 N 
ATOM     11  C   UNL     1       0.628   8.134  21.522  0.00  0.00    +0.000 C 
ATOM     12  O   UNL     1      -0.540   7.798  21.343  0.00  0.00    +0.000 OA
ATOM     13  H   UNL     1       2.631   7.710  21.124  0.00  0.00    +0.000 HD
BRANCH  11  14
ATOM     14  C   UNL     1       1.043   9.360  22.318  0.00  0.00    +0.000 C 
BRANCH  14  15
ATOM     15  S   UNL     1       0.694  10.912  21.444  0.00  0.00    +0.000 S 
BRANCH  15  16
ATOM     16  C   UNL     1      -0.710  11.468  22.404  0.00  0.00    +0.000 C 
ATOM     17  F   UNL     1      -0.964  10.671  23.471  0.00  0.00    +0.000 F 
ATOM     18  F   UNL     1      -0.478  12.709  22.897  0.00  0.00    +0.000 F 
ATOM     19  F   UNL     1      -1.839  11.536  21.664  0.00  0.00    +0.000 F 
ENDBRANCH  15  16
ENDBRANCH  14  15
ENDBRANCH  11  14
ENDBRANCH   6  10
BRANCH   2  20
ATOM     20  C   UNL     1       3.545   2.537  18.983  0.00  0.00    +0.000 C 
ATOM     21  O   UNL     1       4.428   2.159  19.732  0.00  0.00    +0.000 OA
BRANCH  20  22
ATOM     22  OXT UNL     1       2.689   1.680  18.375  0.00  0.00    +0.000 OA
ATOM     23  HXT UNL     1       2.035   1.296  18.987  0.00  0.00    +0.000 HD
ENDBRANCH  20  22
ENDBRANCH   2  20
BRANCH   1  24
ATOM     24  C   UNL     1       5.116   3.720  16.705  0.00  0.00    +0.000 C 
BRANCH  24  25
ATOM     25  S   UNL     1       6.460   4.771  16.086  0.00  0.00    +0.000 S 
BRANCH  25  31
ATOM     26  C   UNL     1       7.157   7.727  17.259  0.00  0.00    +0.000 C 
ATOM     27  N   UNL     1       7.517   6.495  17.907  0.00  0.00    +0.000 N 
ATOM     28  N   UNL     1       8.139   6.507  19.098  0.00  0.00    +0.000 NA
ATOM     29  N   UNL     1       8.308   5.227  19.413  0.00  0.00    +0.000 NA
ATOM     30  N   UNL     1       7.783   4.406  18.441  0.00  0.00    +0.000 NA
ATOM     31  C   UNL     1       7.290   5.206  17.526  0.00  0.00    +0.000 A 
ENDBRANCH  25  31
ENDBRANCH  24  25
ENDBRANCH   1  24
TORSDOF 9
ENDMDL
MODEL 6
REMARK VINA RESULT:      -7.0      1.244      1.653
REMARK  Name = 
REMARK  10 active torsions:
REMARK  status: ('A' for Active; 'I' for Inactive)
REMARK    1  A    between atoms: C_1  and  N_2
REMARK    2  A    between atoms: C_6  and  S_7
REMARK    3  A    between atoms: S_7  and  C_8
REMARK    4  A    between atoms: C_8  and  C_9
REMARK    5  A    between atoms: CA_10  and  C_11
REMARK    6  A    between atoms: C_11  and  OXT_13
REMARK    7  A    between atoms: CA_17  and  N_18
REMARK    8  A    between atoms: C_19  and  C_21
REMARK    9  A    between atoms: C_21  and  S_22
REMARK   10  A    between atoms: S_22  and  C_23
REMARK                            x       y       z     vdW  Elec       q    Type
REMARK                         _______ _______ _______ _____ _____    ______ ____
ROOT
ATOM      1  C   UNL     1       2.207   6.426  20.063  0.00  0.00    +0.000 C 
ATOM      2  CA  UNL     1       2.614   5.137  20.169  0.00  0.00    +0.000 C 
ATOM      3  N   UNL     1       3.769   4.682  19.574  0.00  0.00    +0.000 N 
ATOM      4  C   UNL     1       3.891   3.610  18.732  0.00  0.00    +0.000 C 
ATOM      5  O   UNL     1       3.201   2.638  18.551  0.00  0.00    +0.000 OA
ATOM      6  CA  UNL     1       5.190   4.213  18.139  0.00  0.00    +0.000 C 
ATOM      7  C   UNL     1       4.687   5.531  18.811  0.00  0.00    +0.000 C 
ATOM      8  S   UNL     1       3.723   6.651  17.745  0.00  0.00    +0.000 S 
ATOM      9  C   UNL     1       2.886   7.434  19.150  0.00  0.00    +0.000 C 
ENDROOT
BRANCH   6  10
ATOM     10  N   UNL     1       5.369   4.214  16.665  0.00  0.00    +0.000 N 
ATOM     11  C   UNL     1       6.634   4.367  16.136  0.00  0.00    +0.000 C 
ATOM     12  O   UNL     1       7.611   4.538  16.862  0.00  0.00    +0.000 OA
ATOM     13  H   UNL     1       4.566   4.111  16.050  0.00  0.00    +0.000 HD
BRANCH  11  14
ATOM     14  C   UNL     1       6.708   4.304  14.620  0.00  0.00    +0.000 C 
BRANCH  14  15
ATOM     15  S   UNL     1       5.163   3.717  13.869  0.00  0.00    +0.000 S 
BRANCH  15  16
ATOM     16  C   UNL     1       5.754   3.409  12.208  0.00  0.00    +0.000 C 
ATOM     17  F   UNL     1       4.911   3.879  11.257  0.00  0.00    +0.000 F 
ATOM     18  F   UNL     1       6.942   4.030  12.011  0.00  0.00    +0.000 F 
ATOM     19  F   UNL     1       5.947   2.093  11.972  0.00  0.00    +0.000 F 
ENDBRANCH  15  16
ENDBRANCH  14  15
ENDBRANCH  11  14
ENDBRANCH   6  10
BRANCH   2  20
ATOM     20  C   UNL     1       1.849   4.140  21.003  0.00  0.00    +0.000 C 
ATOM     21  O   UNL     1       2.214   3.698  22.077  0.00  0.00    +0.000 OA
BRANCH  20  22
ATOM     22  OXT UNL     1       0.736   3.693  20.371  0.00  0.00    +0.000 OA
ATOM     23  HXT UNL     1       0.282   4.389  19.862  0.00  0.00    +0.000 HD
ENDBRANCH  20  22
ENDBRANCH   2  20
BRANCH   1  24
ATOM     24  C   UNL     1       0.983   7.011  20.759  0.00  0.00    +0.000 C 
BRANCH  24  25
ATOM     25  S   UNL     1       1.248   8.684  21.412  0.00  0.00    +0.000 S 
BRANCH  25  31
ATOM     26  C   UNL     1       1.347  11.889  20.848  0.00  0.00    +0.000 C 
ATOM     27  N   UNL     1       0.398  10.992  20.247  0.00  0.00    +0.000 N 
ATOM     28  N   UNL     1      -0.497  11.444  19.353  0.00  0.00    +0.000 NA
ATOM     29  N   UNL     1      -1.197  10.373  18.991  0.00  0.00    +0.000 NA
ATOM     30  N   UNL     1      -0.741   9.246  19.636  0.00  0.00    +0.000 NA
ATOM     31  C   UNL     1       0.249   9.645  20.398  0.00  0.00    +0.000 A 
ENDBRANCH  25  31
ENDBRANCH  24  25
ENDBRANCH   1  24
TORSDOF 9
ENDMDL
MODEL 7
REMARK VINA RESULT:      -6.8      5.320      9.613
REMARK  Name = 
REMARK  10 active torsions:
REMARK  status: ('A' for Active; 'I' for Inactive)
REMARK    1  A    between atoms: C_1  and  N_2
REMARK    2  A    between atoms: C_6  and  S_7
REMARK    3  A    between atoms: S_7  and  C_8
REMARK    4  A    between atoms: C_8  and  C_9
REMARK    5  A    between atoms: CA_10  and  C_11
REMARK    6  A    between atoms: C_11  and  OXT_13
REMARK    7  A    between atoms: CA_17  and  N_18
REMARK    8  A    between atoms: C_19  and  C_21
REMARK    9  A    between atoms: C_21  and  S_22
REMARK   10  A    between atoms: S_22  and  C_23
REMARK                            x       y       z     vdW  Elec       q    Type
REMARK                         _______ _______ _______ _____ _____    ______ ____
ROOT
ATOM      1  C   UNL     1       4.601   4.815  17.475  0.00  0.00    +0.000 C 
ATOM      2  CA  UNL     1       3.808   4.242  18.415  0.00  0.00    +0.000 C 
ATOM      3  N   UNL     1       2.749   4.909  18.985  0.00  0.00    +0.000 N 
ATOM      4  C   UNL     1       2.513   5.085  20.322  0.00  0.00    +0.000 C 
ATOM      5  O   UNL     1       2.898   4.492  21.299  0.00  0.00    +0.000 OA
ATOM      6  CA  UNL     1       1.641   6.329  20.013  0.00  0.00    +0.000 C 
ATOM      7  C   UNL     1       2.344   6.269  18.619  0.00  0.00    +0.000 C 
ATOM      8  S   UNL     1       3.828   7.308  18.429  0.00  0.00    +0.000 S 
ATOM      9  C   UNL     1       4.500   6.282  17.093  0.00  0.00    +0.000 C 
ENDROOT
BRANCH   6  10
ATOM     10  N   UNL     1       1.831   7.555  20.830  0.00  0.00    +0.000 N 
ATOM     11  C   UNL     1       0.730   8.178  21.383  0.00  0.00    +0.000 C 
ATOM     12  O   UNL     1      -0.407   7.756  21.182  0.00  0.00    +0.000 OA
ATOM     13  H   UNL     1       2.761   7.937  20.975  0.00  0.00    +0.000 HD
BRANCH  11  14
ATOM     14  C   UNL     1       1.043   9.394  22.238  0.00  0.00    +0.000 C 
BRANCH  14  15
ATOM     15  S   UNL     1       0.525  10.948  21.458  0.00  0.00    +0.000 S 
BRANCH  15  16
ATOM     16  C   UNL     1      -0.888  11.325  22.489  0.00  0.00    +0.000 C 
ATOM     17  F   UNL     1      -0.746  12.491  23.166  0.00  0.00    +0.000 F 
ATOM     18  F   UNL     1      -2.002  11.456  21.728  0.00  0.00    +0.000 F 
ATOM     19  F   UNL     1      -1.132  10.352  23.394  0.00  0.00    +0.000 F 
ENDBRANCH  15  16
ENDBRANCH  14  15
ENDBRANCH  11  14
ENDBRANCH   6  10
BRANCH   2  20
ATOM     20  C   UNL     1       4.011   2.810  18.843  0.00  0.00    +0.000 C 
ATOM     21  O   UNL     1       3.331   1.867  18.480  0.00  0.00    +0.000 OA
BRANCH  20  22
ATOM     22  OXT UNL     1       4.984   2.690  19.779  0.00  0.00    +0.000 OA
ATOM     23  HXT UNL     1       5.557   3.476  19.835  0.00  0.00    +0.000 HD
ENDBRANCH  20  22
ENDBRANCH   2  20
BRANCH   1  24
ATOM     24  C   UNL     1       5.739   4.106  16.749  0.00  0.00    +0.000 C 
BRANCH  24  25
ATOM     25  S   UNL     1       5.340   3.653  15.037  0.00  0.00    +0.000 S 
BRANCH  25  31
ATOM     26  C   UNL     1       6.214   3.242  11.929  0.00  0.00    +0.000 C 
ATOM     27  N   UNL     1       6.854   4.156  12.833  0.00  0.00    +0.000 N 
ATOM     28  N   UNL     1       7.851   4.950  12.409  0.00  0.00    +0.000 NA
ATOM     29  N   UNL     1       8.200   5.668  13.472  0.00  0.00    +0.000 NA
ATOM     30  N   UNL     1       7.421   5.346  14.560  0.00  0.00    +0.000 NA
ATOM     31  C   UNL     1       6.590   4.421  14.145  0.00  0.00    +0.000 A 
ENDBRANCH  25  31
ENDBRANCH  24  25
ENDBRANCH   1  24
TORSDOF 9
ENDMDL
MODEL 8
REMARK VINA RESULT:      -6.7      5.287      9.596
REMARK  Name = 
REMARK  10 active torsions:
REMARK  status: ('A' for Active; 'I' for Inactive)
REMARK    1  A    between atoms: C_1  and  N_2
REMARK    2  A    between atoms: C_6  and  S_7
REMARK    3  A    between atoms: S_7  and  C_8
REMARK    4  A    between atoms: C_8  and  C_9
REMARK    5  A    between atoms: CA_10  and  C_11
REMARK    6  A    between atoms: C_11  and  OXT_13
REMARK    7  A    between atoms: CA_17  and  N_18
REMARK    8  A    between atoms: C_19  and  C_21
REMARK    9  A    between atoms: C_21  and  S_22
REMARK   10  A    between atoms: S_22  and  C_23
REMARK                            x       y       z     vdW  Elec       q    Type
REMARK                         _______ _______ _______ _____ _____    ______ ____
ROOT
ATOM      1  C   UNL     1       4.624   4.664  17.183  0.00  0.00    +0.000 C 
ATOM      2  CA  UNL     1       3.830   4.144  18.153  0.00  0.00    +0.000 C 
ATOM      3  N   UNL     1       2.795   4.859  18.713  0.00  0.00    +0.000 N 
ATOM      4  C   UNL     1       2.583   5.086  20.045  0.00  0.00    +0.000 C 
ATOM      5  O   UNL     1       2.965   4.517  21.037  0.00  0.00    +0.000 OA
ATOM      6  CA  UNL     1       1.739   6.341  19.704  0.00  0.00    +0.000 C 
ATOM      7  C   UNL     1       2.420   6.215  18.305  0.00  0.00    +0.000 C 
ATOM      8  S   UNL     1       3.928   7.208  18.061  0.00  0.00    +0.000 S 
ATOM      9  C   UNL     1       4.556   6.120  16.753  0.00  0.00    +0.000 C 
ENDROOT
BRANCH   6  10
ATOM     10  N   UNL     1       1.970   7.589  20.476  0.00  0.00    +0.000 N 
ATOM     11  C   UNL     1       0.938   8.131  21.214  0.00  0.00    +0.000 C 
ATOM     12  O   UNL     1      -0.180   7.620  21.215  0.00  0.00    +0.000 OA
ATOM     13  H   UNL     1       2.878   8.044  20.455  0.00  0.00    +0.000 HD
BRANCH  11  14
ATOM     14  C   UNL     1       1.298   9.380  22.001  0.00  0.00    +0.000 C 
BRANCH  14  15
ATOM     15  S   UNL     1       0.714  10.901  21.204  0.00  0.00    +0.000 S 
BRANCH  15  16
ATOM     16  C   UNL     1      -0.716  11.228  22.231  0.00  0.00    +0.000 C 
ATOM     17  F   UNL     1      -0.572  12.343  22.987  0.00  0.00    +0.000 F 
ATOM     18  F   UNL     1      -1.812  11.425  21.460  0.00  0.00    +0.000 F 
ATOM     19  F   UNL     1      -0.990  10.199  23.063  0.00  0.00    +0.000 F 
ENDBRANCH  15  16
ENDBRANCH  14  15
ENDBRANCH  11  14
ENDBRANCH   6  10
BRANCH   2  20
ATOM     20  C   UNL     1       4.001   2.724  18.628  0.00  0.00    +0.000 C 
ATOM     21  O   UNL     1       3.309   1.782  18.286  0.00  0.00    +0.000 OA
BRANCH  20  22
ATOM     22  OXT UNL     1       4.961   2.616  19.579  0.00  0.00    +0.000 OA
ATOM     23  HXT UNL     1       5.597   3.354  19.564  0.00  0.00    +0.000 HD
ENDBRANCH  20  22
ENDBRANCH   2  20
BRANCH   1  24
ATOM     24  C   UNL     1       5.734   3.902  16.469  0.00  0.00    +0.000 C 
BRANCH  24  25
ATOM     25  S   UNL     1       6.873   4.972  15.545  0.00  0.00    +0.000 S 
BRANCH  25  31
ATOM     26  C   UNL     1       8.526   5.809  12.868  0.00  0.00    +0.000 C 
ATOM     27  N   UNL     1       7.471   4.833  12.894  0.00  0.00    +0.000 N 
ATOM     28  N   UNL     1       7.138   4.158  11.781  0.00  0.00    +0.000 NA
ATOM     29  N   UNL     1       6.157   3.340  12.152  0.00  0.00    +0.000 NA
ATOM     30  N   UNL     1       5.880   3.480  13.492  0.00  0.00    +0.000 NA
ATOM     31  C   UNL     1       6.707   4.396  13.936  0.00  0.00    +0.000 A 
ENDBRANCH  25  31
ENDBRANCH  24  25
ENDBRANCH   1  24
TORSDOF 9
ENDMDL
MODEL 9
REMARK VINA RESULT:      -6.7      5.061      8.540
REMARK  Name = 
REMARK  10 active torsions:
REMARK  status: ('A' for Active; 'I' for Inactive)
REMARK    1  A    between atoms: C_1  and  N_2
REMARK    2  A    between atoms: C_6  and  S_7
REMARK    3  A    between atoms: S_7  and  C_8
REMARK    4  A    between atoms: C_8  and  C_9
REMARK    5  A    between atoms: CA_10  and  C_11
REMARK    6  A    between atoms: C_11  and  OXT_13
REMARK    7  A    between atoms: CA_17  and  N_18
REMARK    8  A    between atoms: C_19  and  C_21
REMARK    9  A    between atoms: C_21  and  S_22
REMARK   10  A    between atoms: S_22  and  C_23
REMARK                            x       y       z     vdW  Elec       q    Type
REMARK                         _______ _______ _______ _____ _____    ______ ____
ROOT
ATOM      1  C   UNL     1       4.438   4.970  17.058  0.00  0.00    +0.000 C 
ATOM      2  CA  UNL     1       3.763   4.310  18.032  0.00  0.00    +0.000 C 
ATOM      3  N   UNL     1       2.743   4.900  18.744  0.00  0.00    +0.000 N 
ATOM      4  C   UNL     1       2.636   4.985  20.105  0.00  0.00    +0.000 C 
ATOM      5  O   UNL     1       3.135   4.351  21.000  0.00  0.00    +0.000 OA
ATOM      6  CA  UNL     1       1.695   6.209  19.962  0.00  0.00    +0.000 C 
ATOM      7  C   UNL     1       2.257   6.262  18.505  0.00  0.00    +0.000 C 
ATOM      8  S   UNL     1       3.679   7.368  18.239  0.00  0.00    +0.000 S 
ATOM      9  C   UNL     1       4.250   6.453  16.782  0.00  0.00    +0.000 C 
ENDROOT
BRANCH   6  10
ATOM     10  N   UNL     1       1.923   7.391  20.834  0.00  0.00    +0.000 N 
ATOM     11  C   UNL     1       0.842   8.029  21.406  0.00  0.00    +0.000 C 
ATOM     12  O   UNL     1      -0.308   7.659  21.180  0.00  0.00    +0.000 OA
ATOM     13  H   UNL     1       2.866   7.731  21.000  0.00  0.00    +0.000 HD
BRANCH  11  14
ATOM     14  C   UNL     1       1.193   9.194  22.315  0.00  0.00    +0.000 C 
BRANCH  14  15
ATOM     15  S   UNL     1      -0.267  10.143  22.829  0.00  0.00    +0.000 S 
BRANCH  15  16
ATOM     16  C   UNL     1      -0.217  11.432  21.587  0.00  0.00    +0.000 C 
ATOM     17  F   UNL     1      -1.362  11.507  20.866  0.00  0.00    +0.000 F 
ATOM     18  F   UNL     1      -0.053  12.642  22.175  0.00  0.00    +0.000 F 
ATOM     19  F   UNL     1       0.806  11.265  20.720  0.00  0.00    +0.000 F 
ENDBRANCH  15  16
ENDBRANCH  14  15
ENDBRANCH  11  14
ENDBRANCH   6  10
BRANCH   2  20
ATOM     20  C   UNL     1       4.055   2.865  18.347  0.00  0.00    +0.000 C 
ATOM     21  O   UNL     1       3.441   1.912  17.901  0.00  0.00    +0.000 OA
BRANCH  20  22
ATOM     22  OXT UNL     1       5.028   2.733  19.282  0.00  0.00    +0.000 OA
ATOM     23  HXT UNL     1       4.694   2.820  20.193  0.00  0.00    +0.000 HD
ENDBRANCH  20  22
ENDBRANCH   2  20
BRANCH   1  24
ATOM     24  C   UNL     1       5.522   4.353  16.181  0.00  0.00    +0.000 C 
BRANCH  24  25
ATOM     25  S   UNL     1       7.146   4.265  16.987  0.00  0.00    +0.000 S 
BRANCH  25  31
ATOM     26  C   UNL     1       7.896   5.694  19.815  0.00  0.00    +0.000 C 
ATOM     27  N   UNL     1       7.793   6.389  18.561  0.00  0.00    +0.000 N 
ATOM     28  N   UNL     1       8.061   7.704  18.485  0.00  0.00    +0.000 NA
ATOM     29  N   UNL     1       7.889   8.019  17.205  0.00  0.00    +0.000 NA
ATOM     30  N   UNL     1       7.533   6.913  16.469  0.00  0.00    +0.000 NA
ATOM     31  C   UNL     1       7.490   5.915  17.319  0.00  0.00    +0.000 A 
ENDBRANCH  25  31
ENDBRANCH  24  25
ENDBRANCH   1  24
TORSDOF 9
ENDMDL
