MODEL 1
REMARK VINA RESULT:      -8.2      0.000      0.000
REMARK  Name = 
REMARK  4 active torsions:
REMARK  status: ('A' for Active; 'I' for Inactive)
REMARK    1  A    between atoms: C_1  and  C_2
REMARK    2  A    between atoms: C_2  and  C_3
REMARK    3  A    between atoms: C_7  and  N_8
REMARK    4  A    between atoms: C_9  and  C_11
REMARK                            x       y       z     vdW  Elec       q    Type
REMARK                         _______ _______ _______ _____ _____    ______ ____
ROOT
ATOM      1  C   UNL     1       4.028   4.897  18.484  0.00  0.00    +0.000 A 
ATOM      2  C   UNL     1       3.814   3.645  19.085  0.00  0.00    +0.000 A 
ATOM      3  C   UNL     1       2.985   3.505  20.201  0.00  0.00    +0.000 A 
ATOM      4  C   UNL     1       2.339   4.614  20.726  0.00  0.00    +0.000 A 
ATOM      5  C   UNL     1       2.500   5.872  20.150  0.00  0.00    +0.000 A 
ATOM      6  C   UNL     1       3.337   6.004  19.028  0.00  0.00    +0.000 A 
ENDROOT
BRANCH   1   8
ATOM      7  C   UNL     1       4.362   4.266  16.042  0.00  0.00    +0.000 C 
ATOM      8  C   UNL     1       4.958   5.041  17.257  0.00  0.00    +0.000 C 
ATOM      9  C   UNL     1       5.063   6.523  16.841  0.00  0.00    +0.000 C 
ATOM     10  C   UNL     1       6.332   7.306  17.137  0.00  0.00    +0.000 C 
ATOM     11  S   UNL     1       7.550   6.549  18.207  0.00  0.00    +0.000 S 
ATOM     12  C   UNL     1       7.330   4.890  17.802  0.00  0.00    +0.000 C 
ATOM     13  N   UNL     1       8.434   4.129  17.980  0.00  0.00    +0.000 N 
ATOM     14  N   UNL     1       6.234   4.352  17.443  0.00  0.00    +0.000 NA
ATOM     15  H   UNL     1       9.116   4.523  18.614  0.00  0.00    +0.000 HD
ATOM     16  H   UNL     1       8.203   3.159  18.165  0.00  0.00    +0.000 HD
ENDBRANCH   1   8
BRANCH   5  17
ATOM     17  N   UNL     1       1.860   7.029  20.651  0.00  0.00    +0.000 N 
ATOM     18  C   UNL     1       1.600   8.198  19.960  0.00  0.00    +0.000 C 
ATOM     19  O   UNL     1       1.893   8.452  18.794  0.00  0.00    +0.000 OA
ATOM     20  H   UNL     1       1.538   7.013  21.614  0.00  0.00    +0.000 HD
BRANCH  18  21
ATOM     21  C   UNL     1       0.879   9.243  20.753  0.00  0.00    +0.000 A 
ATOM     22  C   UNL     1       0.253   8.876  21.943  0.00  0.00    +0.000 A 
ATOM     23  C   UNL     1      -0.414   9.854  22.676  0.00  0.00    +0.000 A 
ATOM     24  C   UNL     1      -0.433  11.160  22.196  0.00  0.00    +0.000 A 
ATOM     25 CL   UNL     1      -1.244  12.394  23.069  0.00  0.00    +0.000 Cl
ATOM     26  C   UNL     1       0.218  11.437  20.999  0.00  0.00    +0.000 A 
ATOM     27  N   UNL     1       0.878  10.512  20.255  0.00  0.00    +0.000 NA
ENDBRANCH  18  21
ENDBRANCH   5  17
TORSDOF 3
ENDMDL
MODEL 2
REMARK VINA RESULT:      -8.2      4.719      6.760
REMARK  Name = 
REMARK  4 active torsions:
REMARK  status: ('A' for Active; 'I' for Inactive)
REMARK    1  A    between atoms: C_1  and  C_2
REMARK    2  A    between atoms: C_2  and  C_3
REMARK    3  A    between atoms: C_7  and  N_8
REMARK    4  A    between atoms: C_9  and  C_11
REMARK                            x       y       z     vdW  Elec       q    Type
REMARK                         _______ _______ _______ _____ _____    ______ ____
ROOT
ATOM      1  C   UNL     1       4.748   5.082  17.559  0.00  0.00    +0.000 A 
ATOM      2  C   UNL     1       5.118   4.369  16.406  0.00  0.00    +0.000 A 
ATOM      3  C   UNL     1       6.094   4.854  15.533  0.00  0.00    +0.000 A 
ATOM      4  C   UNL     1       6.731   6.055  15.805  0.00  0.00    +0.000 A 
ATOM      5  C   UNL     1       6.417   6.786  16.948  0.00  0.00    +0.000 A 
ATOM      6  C   UNL     1       5.433   6.291  17.822  0.00  0.00    +0.000 A 
ENDROOT
BRANCH   1   8
ATOM      7  C   UNL     1       3.010   5.717  19.306  0.00  0.00    +0.000 C 
ATOM      8  C   UNL     1       3.658   4.541  18.513  0.00  0.00    +0.000 C 
ATOM      9  C   UNL     1       2.531   3.866  17.703  0.00  0.00    +0.000 C 
ATOM     10  C   UNL     1       2.414   2.350  17.683  0.00  0.00    +0.000 C 
ATOM     11  S   UNL     1       3.761   1.399  18.379  0.00  0.00    +0.000 S 
ATOM     12  C   UNL     1       4.277   2.464  19.630  0.00  0.00    +0.000 C 
ATOM     13  N   UNL     1       4.862   1.839  20.678  0.00  0.00    +0.000 N 
ATOM     14  N   UNL     1       4.218   3.735  19.597  0.00  0.00    +0.000 NA
ATOM     15  H   UNL     1       5.218   0.916  20.469  0.00  0.00    +0.000 HD
ATOM     16  H   UNL     1       5.520   2.440  21.162  0.00  0.00    +0.000 HD
ENDBRANCH   1   8
BRANCH   5  17
ATOM     17  N   UNL     1       7.043   8.013  17.266  0.00  0.00    +0.000 N 
ATOM     18  C   UNL     1       8.056   8.214  18.185  0.00  0.00    +0.000 C 
ATOM     19  O   UNL     1       8.584   7.369  18.905  0.00  0.00    +0.000 OA
ATOM     20  H   UNL     1       6.739   8.844  16.767  0.00  0.00    +0.000 HD
BRANCH  18  21
ATOM     21  C   UNL     1       8.538   9.628  18.283  0.00  0.00    +0.000 A 
ATOM     22  C   UNL     1       9.543   9.937  19.198  0.00  0.00    +0.000 A 
ATOM     23  C   UNL     1       9.987  11.254  19.282  0.00  0.00    +0.000 A 
ATOM     24  C   UNL     1       9.414  12.212  18.452  0.00  0.00    +0.000 A 
ATOM     25 CL   UNL     1       9.934  13.846  18.525  0.00  0.00    +0.000 Cl
ATOM     26  C   UNL     1       8.418  11.815  17.568  0.00  0.00    +0.000 A 
ATOM     27  N   UNL     1       7.957  10.542  17.456  0.00  0.00    +0.000 NA
ENDBRANCH  18  21
ENDBRANCH   5  17
TORSDOF 3
ENDMDL
MODEL 3
REMARK VINA RESULT:      -8.1      2.197      3.611
REMARK  Name = 
REMARK  4 active torsions:
REMARK  status: ('A' for Active; 'I' for Inactive)
REMARK    1  A    between atoms: C_1  and  C_2
REMARK    2  A    between atoms: C_2  and  C_3
REMARK    3  A    between atoms: C_7  and  N_8
REMARK    4  A    between atoms: C_9  and  C_11
REMARK                            x       y       z     vdW  Elec       q    Type
REMARK                         _______ _______ _______ _____ _____    ______ ____
ROOT
ATOM      1  C   UNL     1       2.379   6.561  19.136  0.00  0.00    +0.000 A 
ATOM      2  C   UNL     1       3.015   7.003  17.963  0.00  0.00    +0.000 A 
ATOM      3  C   UNL     1       2.894   8.324  17.523  0.00  0.00    +0.000 A 
ATOM      4  C   UNL     1       2.146   9.232  18.258  0.00  0.00    +0.000 A 
ATOM      5  C   UNL     1       1.518   8.847  19.440  0.00  0.00    +0.000 A 
ATOM      6  C   UNL     1       1.645   7.516  19.876  0.00  0.00    +0.000 A 
ENDROOT
BRANCH   1   8
ATOM      7  C   UNL     1       2.064   4.968  21.094  0.00  0.00    +0.000 C 
ATOM      8  C   UNL     1       2.512   5.094  19.606  0.00  0.00    +0.000 C 
ATOM      9  C   UNL     1       1.583   4.183  18.775  0.00  0.00    +0.000 C 
ATOM     10  C   UNL     1       2.170   3.264  17.717  0.00  0.00    +0.000 C 
ATOM     11  S   UNL     1       3.894   3.479  17.287  0.00  0.00    +0.000 S 
ATOM     12  C   UNL     1       4.530   3.986  18.804  0.00  0.00    +0.000 C 
ATOM     13  N   UNL     1       5.838   3.684  18.980  0.00  0.00    +0.000 N 
ATOM     14  N   UNL     1       3.905   4.659  19.685  0.00  0.00    +0.000 NA
ATOM     15  H   UNL     1       6.347   3.515  18.125  0.00  0.00    +0.000 HD
ATOM     16  H   UNL     1       6.294   4.326  19.619  0.00  0.00    +0.000 HD
ENDBRANCH   1   8
BRANCH   5  17
ATOM     17  N   UNL     1       0.749   9.739  20.222  0.00  0.00    +0.000 N 
ATOM     18  C   UNL     1       0.896   9.997  21.573  0.00  0.00    +0.000 C 
ATOM     19  O   UNL     1       1.706   9.485  22.343  0.00  0.00    +0.000 OA
ATOM     20  H   UNL     1       0.016  10.266  19.757  0.00  0.00    +0.000 HD
BRANCH  18  21
ATOM     21  C   UNL     1      -0.052  11.018  22.119  0.00  0.00    +0.000 A 
ATOM     22  C   UNL     1      -1.131  10.592  22.893  0.00  0.00    +0.000 A 
ATOM     23  C   UNL     1      -2.008  11.548  23.399  0.00  0.00    +0.000 A 
ATOM     24  C   UNL     1      -1.778  12.890  23.117  0.00  0.00    +0.000 A 
ATOM     25 CL   UNL     1      -2.834  14.099  23.722  0.00  0.00    +0.000 Cl
ATOM     26  C   UNL     1      -0.676  13.226  22.338  0.00  0.00    +0.000 A 
ATOM     27  N   UNL     1       0.201  12.324  21.824  0.00  0.00    +0.000 NA
ENDBRANCH  18  21
ENDBRANCH   5  17
TORSDOF 3
ENDMDL
MODEL 4
REMARK VINA RESULT:      -8.1      2.432      3.564
REMARK  Name = 
REMARK  4 active torsions:
REMARK  status: ('A' for Active; 'I' for Inactive)
REMARK    1  A    between atoms: C_1  and  C_2
REMARK    2  A    between atoms: C_2  and  C_3
REMARK    3  A    between atoms: C_7  and  N_8
REMARK    4  A    between atoms: C_9  and  C_11
REMARK                            x       y       z     vdW  Elec       q    Type
REMARK                         _______ _______ _______ _____ _____    ______ ____
ROOT
ATOM      1  C   UNL     1       2.377   5.152  19.385  0.00  0.00    +0.000 A 
ATOM      2  C   UNL     1       3.191   5.381  18.262  0.00  0.00    +0.000 A 
ATOM      3  C   UNL     1       3.420   6.673  17.782  0.00  0.00    +0.000 A 
ATOM      4  C   UNL     1       2.851   7.762  18.426  0.00  0.00    +0.000 A 
ATOM      5  C   UNL     1       2.058   7.587  19.557  0.00  0.00    +0.000 A 
ATOM      6  C   UNL     1       1.832   6.283  20.034  0.00  0.00    +0.000 A 
ENDROOT
BRANCH   1   8
ATOM      7  C   UNL     1       1.302   3.763  21.227  0.00  0.00    +0.000 C 
ATOM      8  C   UNL     1       2.122   3.716  19.901  0.00  0.00    +0.000 C 
ATOM      9  C   UNL     1       1.280   2.926  18.877  0.00  0.00    +0.000 C 
ATOM     10  C   UNL     1       1.937   1.854  18.021  0.00  0.00    +0.000 C 
ATOM     11  S   UNL     1       3.723   1.746  18.043  0.00  0.00    +0.000 S 
ATOM     12  C   UNL     1       4.042   2.234  19.663  0.00  0.00    +0.000 C 
ATOM     13  N   UNL     1       5.188   1.726  20.174  0.00  0.00    +0.000 N 
ATOM     14  N   UNL     1       3.350   3.058  20.342  0.00  0.00    +0.000 NA
ATOM     15  H   UNL     1       5.855   1.419  19.481  0.00  0.00    +0.000 HD
ATOM     16  H   UNL     1       5.579   2.321  20.896  0.00  0.00    +0.000 HD
ENDBRANCH   1   8
BRANCH   5  17
ATOM     17  N   UNL     1       1.461   8.667  20.246  0.00  0.00    +0.000 N 
ATOM     18  C   UNL     1       0.672   9.664  19.701  0.00  0.00    +0.000 C 
ATOM     19  O   UNL     1       0.361   9.803  18.520  0.00  0.00    +0.000 OA
ATOM     20  H   UNL     1       1.604   8.728  21.249  0.00  0.00    +0.000 HD
BRANCH  18  21
ATOM     21  C   UNL     1       0.157  10.662  20.691  0.00  0.00    +0.000 A 
ATOM     22  C   UNL     1      -0.371  10.205  21.898  0.00  0.00    +0.000 A 
ATOM     23  C   UNL     1      -0.847  11.139  22.815  0.00  0.00    +0.000 A 
ATOM     24  C   UNL     1      -0.779  12.491  22.495  0.00  0.00    +0.000 A 
ATOM     25 CL   UNL     1      -1.354  13.674  23.597  0.00  0.00    +0.000 Cl
ATOM     26  C   UNL     1      -0.235  12.858  21.269  0.00  0.00    +0.000 A 
ATOM     27  N   UNL     1       0.238  11.978  20.348  0.00  0.00    +0.000 NA
ENDBRANCH  18  21
ENDBRANCH   5  17
TORSDOF 3
ENDMDL
MODEL 5
REMARK VINA RESULT:      -8.0      2.132      2.467
REMARK  Name = 
REMARK  4 active torsions:
REMARK  status: ('A' for Active; 'I' for Inactive)
REMARK    1  A    between atoms: C_1  and  C_2
REMARK    2  A    between atoms: C_2  and  C_3
REMARK    3  A    between atoms: C_7  and  N_8
REMARK    4  A    between atoms: C_9  and  C_11
REMARK                            x       y       z     vdW  Elec       q    Type
REMARK                         _______ _______ _______ _____ _____    ______ ____
ROOT
ATOM      1  C   UNL     1       3.609   5.213  19.128  0.00  0.00    +0.000 A 
ATOM      2  C   UNL     1       2.916   4.428  20.065  0.00  0.00    +0.000 A 
ATOM      3  C   UNL     1       1.883   4.962  20.840  0.00  0.00    +0.000 A 
ATOM      4  C   UNL     1       1.513   6.289  20.680  0.00  0.00    +0.000 A 
ATOM      5  C   UNL     1       2.153   7.100  19.746  0.00  0.00    +0.000 A 
ATOM      6  C   UNL     1       3.192   6.555  18.970  0.00  0.00    +0.000 A 
ENDROOT
BRANCH   1   8
ATOM      7  C   UNL     1       4.541   3.081  18.099  0.00  0.00    +0.000 C 
ATOM      8  C   UNL     1       4.758   4.614  18.284  0.00  0.00    +0.000 C 
ATOM      9  C   UNL     1       4.766   5.243  16.875  0.00  0.00    +0.000 C 
ATOM     10  C   UNL     1       5.834   6.260  16.505  0.00  0.00    +0.000 C 
ATOM     11  S   UNL     1       6.875   6.893  17.815  0.00  0.00    +0.000 S 
ATOM     12  C   UNL     1       6.955   5.512  18.841  0.00  0.00    +0.000 C 
ATOM     13  N   UNL     1       8.080   5.448  19.590  0.00  0.00    +0.000 N 
ATOM     14  N   UNL     1       6.038   4.642  18.989  0.00  0.00    +0.000 NA
ATOM     15  H   UNL     1       8.553   6.333  19.710  0.00  0.00    +0.000 HD
ATOM     16  H   UNL     1       7.936   4.931  20.450  0.00  0.00    +0.000 HD
ENDBRANCH   1   8
BRANCH   5  17
ATOM     17  N   UNL     1       1.807   8.456  19.548  0.00  0.00    +0.000 N 
ATOM     18  C   UNL     1       1.849   9.157  18.356  0.00  0.00    +0.000 C 
ATOM     19  O   UNL     1       2.212   8.738  17.260  0.00  0.00    +0.000 OA
ATOM     20  H   UNL     1       1.478   8.984  20.350  0.00  0.00    +0.000 HD
BRANCH  18  21
ATOM     21  C   UNL     1       1.393  10.580  18.454  0.00  0.00    +0.000 A 
ATOM     22  C   UNL     1       0.062  10.842  18.773  0.00  0.00    +0.000 A 
ATOM     23  C   UNL     1      -0.355  12.168  18.864  0.00  0.00    +0.000 A 
ATOM     24  C   UNL     1       0.569  13.181  18.634  0.00  0.00    +0.000 A 
ATOM     25 CL   UNL     1       0.096  14.827  18.737  0.00  0.00    +0.000 Cl
ATOM     26  C   UNL     1       1.878  12.829  18.322  0.00  0.00    +0.000 A 
ATOM     27  N   UNL     1       2.323  11.549  18.223  0.00  0.00    +0.000 NA
ENDBRANCH  18  21
ENDBRANCH   5  17
TORSDOF 3
ENDMDL
MODEL 6
REMARK VINA RESULT:      -8.0      2.096      2.562
REMARK  Name = 
REMARK  4 active torsions:
REMARK  status: ('A' for Active; 'I' for Inactive)
REMARK    1  A    between atoms: C_1  and  C_2
REMARK    2  A    between atoms: C_2  and  C_3
REMARK    3  A    between atoms: C_7  and  N_8
REMARK    4  A    between atoms: C_9  and  C_11
REMARK                            x       y       z     vdW  Elec       q    Type
REMARK                         _______ _______ _______ _____ _____    ______ ____
ROOT
ATOM      1  C   UNL     1       3.514   5.218  18.996  0.00  0.00    +0.000 A 
ATOM      2  C   UNL     1       2.886   4.452  19.993  0.00  0.00    +0.000 A 
ATOM      3  C   UNL     1       1.926   5.010  20.842  0.00  0.00    +0.000 A 
ATOM      4  C   UNL     1       1.565   6.341  20.698  0.00  0.00    +0.000 A 
ATOM      5  C   UNL     1       2.141   7.133  19.709  0.00  0.00    +0.000 A 
ATOM      6  C   UNL     1       3.106   6.565  18.858  0.00  0.00    +0.000 A 
ENDROOT
BRANCH   1   8
ATOM      7  C   UNL     1       4.245   3.094  17.800  0.00  0.00    +0.000 C 
ATOM      8  C   UNL     1       4.582   4.593  18.070  0.00  0.00    +0.000 C 
ATOM      9  C   UNL     1       4.586   5.309  16.702  0.00  0.00    +0.000 C 
ATOM     10  C   UNL     1       5.712   6.268  16.352  0.00  0.00    +0.000 C 
ATOM     11  S   UNL     1       6.845   6.739  17.654  0.00  0.00    +0.000 S 
ATOM     12  C   UNL     1       6.860   5.293  18.589  0.00  0.00    +0.000 C 
ATOM     13  N   UNL     1       8.004   5.099  19.285  0.00  0.00    +0.000 N 
ATOM     14  N   UNL     1       5.887   4.483  18.721  0.00  0.00    +0.000 NA
ATOM     15  H   UNL     1       8.546   5.937  19.439  0.00  0.00    +0.000 HD
ATOM     16  H   UNL     1       7.853   4.539  20.117  0.00  0.00    +0.000 HD
ENDBRANCH   1   8
BRANCH   5  17
ATOM     17  N   UNL     1       1.801   8.493  19.525  0.00  0.00    +0.000 N 
ATOM     18  C   UNL     1       1.848   9.207  18.342  0.00  0.00    +0.000 C 
ATOM     19  O   UNL     1       2.212   8.798  17.241  0.00  0.00    +0.000 OA
ATOM     20  H   UNL     1       1.471   9.013  20.332  0.00  0.00    +0.000 HD
BRANCH  18  21
ATOM     21  C   UNL     1       1.398  10.631  18.454  0.00  0.00    +0.000 A 
ATOM     22  C   UNL     1       2.300  11.650  18.155  0.00  0.00    +0.000 A 
ATOM     23  C   UNL     1       1.873  12.971  18.260  0.00  0.00    +0.000 A 
ATOM     24  C   UNL     1       0.566  13.227  18.659  0.00  0.00    +0.000 A 
ATOM     25 CL   UNL     1       0.001  14.841  18.801  0.00  0.00    +0.000 Cl
ATOM     26  C   UNL     1      -0.267  12.149  18.937  0.00  0.00    +0.000 A 
ATOM     27  N   UNL     1       0.111  10.847  18.847  0.00  0.00    +0.000 NA
ENDBRANCH  18  21
ENDBRANCH   5  17
TORSDOF 3
ENDMDL
MODEL 7
REMARK VINA RESULT:      -7.9      2.206      3.700
REMARK  Name = 
REMARK  4 active torsions:
REMARK  status: ('A' for Active; 'I' for Inactive)
REMARK    1  A    between atoms: C_1  and  C_2
REMARK    2  A    between atoms: C_2  and  C_3
REMARK    3  A    between atoms: C_7  and  N_8
REMARK    4  A    between atoms: C_9  and  C_11
REMARK                            x       y       z     vdW  Elec       q    Type
REMARK                         _______ _______ _______ _____ _____    ______ ____
ROOT
ATOM      1  C   UNL     1       2.456   6.670  19.010  0.00  0.00    +0.000 A 
ATOM      2  C   UNL     1       3.194   7.215  17.946  0.00  0.00    +0.000 A 
ATOM      3  C   UNL     1       3.013   8.538  17.536  0.00  0.00    +0.000 A 
ATOM      4  C   UNL     1       2.101   9.347  18.195  0.00  0.00    +0.000 A 
ATOM      5  C   UNL     1       1.364   8.861  19.272  0.00  0.00    +0.000 A 
ATOM      6  C   UNL     1       1.551   7.528  19.678  0.00  0.00    +0.000 A 
ENDROOT
BRANCH   1   8
ATOM      7  C   UNL     1       2.163   5.007  20.913  0.00  0.00    +0.000 C 
ATOM      8  C   UNL     1       2.657   5.201  19.447  0.00  0.00    +0.000 C 
ATOM      9  C   UNL     1       1.813   4.262  18.558  0.00  0.00    +0.000 C 
ATOM     10  C   UNL     1       2.491   3.408  17.499  0.00  0.00    +0.000 C 
ATOM     11  S   UNL     1       4.214   3.734  17.140  0.00  0.00    +0.000 S 
ATOM     12  C   UNL     1       4.764   4.234  18.693  0.00  0.00    +0.000 C 
ATOM     13  N   UNL     1       6.080   4.003  18.911  0.00  0.00    +0.000 N 
ATOM     14  N   UNL     1       4.070   4.845  19.567  0.00  0.00    +0.000 NA
ATOM     15  H   UNL     1       6.629   3.887  18.071  0.00  0.00    +0.000 HD
ATOM     16  H   UNL     1       6.474   4.652  19.583  0.00  0.00    +0.000 HD
ENDBRANCH   1   8
BRANCH   5  17
ATOM     17  N   UNL     1       0.425   9.651  19.974  0.00  0.00    +0.000 N 
ATOM     18  C   UNL     1       0.556  10.151  21.257  0.00  0.00    +0.000 C 
ATOM     19  O   UNL     1       1.500   9.984  22.027  0.00  0.00    +0.000 OA
ATOM     20  H   UNL     1      -0.436   9.901  19.498  0.00  0.00    +0.000 HD
BRANCH  18  21
ATOM     21  C   UNL     1      -0.598  10.983  21.723  0.00  0.00    +0.000 A 
ATOM     22  C   UNL     1      -1.271  11.782  20.800  0.00  0.00    +0.000 A 
ATOM     23  C   UNL     1      -2.344  12.552  21.241  0.00  0.00    +0.000 A 
ATOM     24  C   UNL     1      -2.707  12.496  22.582  0.00  0.00    +0.000 A 
ATOM     25 CL   UNL     1      -4.025  13.428  23.164  0.00  0.00    +0.000 Cl
ATOM     26  C   UNL     1      -1.982  11.670  23.433  0.00  0.00    +0.000 A 
ATOM     27  N   UNL     1      -0.929  10.905  23.043  0.00  0.00    +0.000 NA
ENDBRANCH  18  21
ENDBRANCH   5  17
TORSDOF 3
ENDMDL
MODEL 8
REMARK VINA RESULT:      -7.9      2.168      3.604
REMARK  Name = 
REMARK  4 active torsions:
REMARK  status: ('A' for Active; 'I' for Inactive)
REMARK    1  A    between atoms: C_1  and  C_2
REMARK    2  A    between atoms: C_2  and  C_3
REMARK    3  A    between atoms: C_7  and  N_8
REMARK    4  A    between atoms: C_9  and  C_11
REMARK                            x       y       z     vdW  Elec       q    Type
REMARK                         _______ _______ _______ _____ _____    ______ ____
ROOT
ATOM      1  C   UNL     1       2.459   6.646  19.004  0.00  0.00    +0.000 A 
ATOM      2  C   UNL     1       3.085   7.130  17.843  0.00  0.00    +0.000 A 
ATOM      3  C   UNL     1       2.921   8.453  17.426  0.00  0.00    +0.000 A 
ATOM      4  C   UNL     1       2.140   9.322  18.173  0.00  0.00    +0.000 A 
ATOM      5  C   UNL     1       1.520   8.896  19.344  0.00  0.00    +0.000 A 
ATOM      6  C   UNL     1       1.690   7.562  19.757  0.00  0.00    +0.000 A 
ENDROOT
BRANCH   1   8
ATOM      7  C   UNL     1       2.146   4.999  20.918  0.00  0.00    +0.000 C 
ATOM      8  C   UNL     1       2.639   5.176  19.449  0.00  0.00    +0.000 C 
ATOM      9  C   UNL     1       1.779   4.245  18.568  0.00  0.00    +0.000 C 
ATOM     10  C   UNL     1       2.442   3.375  17.513  0.00  0.00    +0.000 C 
ATOM     11  S   UNL     1       4.168   3.672  17.148  0.00  0.00    +0.000 S 
ATOM     12  C   UNL     1       4.730   4.173  18.696  0.00  0.00    +0.000 C 
ATOM     13  N   UNL     1       6.042   3.923  18.913  0.00  0.00    +0.000 N 
ATOM     14  N   UNL     1       4.047   4.799  19.568  0.00  0.00    +0.000 NA
ATOM     15  H   UNL     1       6.588   3.795  18.072  0.00  0.00    +0.000 HD
ATOM     16  H   UNL     1       6.448   4.570  19.579  0.00  0.00    +0.000 HD
ENDBRANCH   1   8
BRANCH   5  17
ATOM     17  N   UNL     1       0.718   9.748  20.138  0.00  0.00    +0.000 N 
ATOM     18  C   UNL     1      -0.459  10.367  19.760  0.00  0.00    +0.000 C 
ATOM     19  O   UNL     1      -1.012  10.307  18.664  0.00  0.00    +0.000 OA
ATOM     20  H   UNL     1       1.014   9.925  21.093  0.00  0.00    +0.000 HD
BRANCH  18  21
ATOM     21  C   UNL     1      -1.102  11.191  20.832  0.00  0.00    +0.000 A 
ATOM     22  C   UNL     1      -0.763  10.951  22.163  0.00  0.00    +0.000 A 
ATOM     23  C   UNL     1      -1.363  11.723  23.155  0.00  0.00    +0.000 A 
ATOM     24  C   UNL     1      -2.277  12.703  22.784  0.00  0.00    +0.000 A 
ATOM     25 CL   UNL     1      -3.038  13.676  23.975  0.00  0.00    +0.000 Cl
ATOM     26  C   UNL     1      -2.555  12.876  21.433  0.00  0.00    +0.000 A 
ATOM     27  N   UNL     1      -1.992  12.143  20.436  0.00  0.00    +0.000 NA
ENDBRANCH  18  21
ENDBRANCH   5  17
TORSDOF 3
ENDMDL
MODEL 9
REMARK VINA RESULT:      -7.8      1.221      1.583
REMARK  Name = 
REMARK  4 active torsions:
REMARK  status: ('A' for Active; 'I' for Inactive)
REMARK    1  A    between atoms: C_1  and  C_2
REMARK    2  A    between atoms: C_2  and  C_3
REMARK    3  A    between atoms: C_7  and  N_8
REMARK    4  A    between atoms: C_9  and  C_11
REMARK                            x       y       z     vdW  Elec       q    Type
REMARK                         _______ _______ _______ _____ _____    ______ ____
ROOT
ATOM      1  C   UNL     1       4.350   5.296  17.177  0.00  0.00    +0.000 A 
ATOM      2  C   UNL     1       3.711   4.047  17.100  0.00  0.00    +0.000 A 
ATOM      3  C   UNL     1       2.507   3.804  17.765  0.00  0.00    +0.000 A 
ATOM      4  C   UNL     1       1.909   4.813  18.505  0.00  0.00    +0.000 A 
ATOM      5  C   UNL     1       2.491   6.075  18.591  0.00  0.00    +0.000 A 
ATOM      6  C   UNL     1       3.704   6.311  17.920  0.00  0.00    +0.000 A 
ENDROOT
BRANCH   1   8
ATOM      7  C   UNL     1       5.563   5.149  14.945  0.00  0.00    +0.000 C 
ATOM      8  C   UNL     1       5.689   5.550  16.447  0.00  0.00    +0.000 C 
ATOM      9  C   UNL     1       6.040   7.053  16.485  0.00  0.00    +0.000 C 
ATOM     10  C   UNL     1       7.141   7.551  17.406  0.00  0.00    +0.000 C 
ATOM     11  S   UNL     1       7.801   6.408  18.615  0.00  0.00    +0.000 S 
ATOM     12  C   UNL     1       7.651   4.925  17.752  0.00  0.00    +0.000 C 
ATOM     13  N   UNL     1       8.551   3.983  18.118  0.00  0.00    +0.000 N 
ATOM     14  N   UNL     1       6.748   4.649  16.899  0.00  0.00    +0.000 NA
ATOM     15  H   UNL     1       8.957   4.125  19.032  0.00  0.00    +0.000 HD
ATOM     16  H   UNL     1       8.206   3.044  17.955  0.00  0.00    +0.000 HD
ENDBRANCH   1   8
BRANCH   5  17
ATOM     17  N   UNL     1       1.916   7.132  19.332  0.00  0.00    +0.000 N 
ATOM     18  C   UNL     1       1.658   8.415  18.884  0.00  0.00    +0.000 C 
ATOM     19  O   UNL     1       1.898   8.875  17.769  0.00  0.00    +0.000 OA
ATOM     20  H   UNL     1       1.645   6.946  20.292  0.00  0.00    +0.000 HD
BRANCH  18  21
ATOM     21  C   UNL     1       1.014   9.311  19.896  0.00  0.00    +0.000 A 
ATOM     22  C   UNL     1       0.875  10.668  19.606  0.00  0.00    +0.000 A 
ATOM     23  C   UNL     1       0.273  11.494  20.551  0.00  0.00    +0.000 A 
ATOM     24  C   UNL     1      -0.168  10.939  21.748  0.00  0.00    +0.000 A 
ATOM     25 CL   UNL     1      -0.915  11.924  22.938  0.00  0.00    +0.000 Cl
ATOM     26  C   UNL     1       0.010   9.576  21.953  0.00  0.00    +0.000 A 
ATOM     27  N   UNL     1       0.593   8.736  21.057  0.00  0.00    +0.000 NA
ENDBRANCH  18  21
ENDBRANCH   5  17
TORSDOF 3
ENDMDL
