MODEL 1
REMARK VINA RESULT:      -4.4      0.000      0.000
REMARK  Name = 
REMARK  4 active torsions:
REMARK  status: ('A' for Active; 'I' for Inactive)
REMARK    1  A    between atoms: N_1  and  C_2
REMARK    2  A    between atoms: C_2  and  C_3
REMARK    3  A    between atoms: C_3  and  C_4
REMARK    4  A    between atoms: C_4  and  N_5
REMARK                            x       y       z     vdW  Elec       q    Type
REMARK                         _______ _______ _______ _____ _____    ______ ____
ROOT
ATOM      1  C   UNL     1       6.789   3.914  12.506  0.00  0.00    +0.000 C 
ENDROOT
BRANCH   1   2
ATOM      2  N   UNL     1       6.835   4.361  13.879  0.00  0.00    +0.000 N 
ATOM      3  C   UNL     1       6.169   3.845  14.950  0.00  0.00    +0.000 A 
ATOM      4  C   UNL     1       6.565   4.644  15.993  0.00  0.00    +0.000 A 
ATOM      5  N   UNL     1       7.435   5.595  15.537  0.00  0.00    +0.000 NA
ATOM      6  N   UNL     1       7.593   5.413  14.233  0.00  0.00    +0.000 NA
ENDBRANCH   1   2
BRANCH   1   7
ATOM      7  C   UNL     1       5.453   3.256  12.172  0.00  0.00    +0.000 C 
BRANCH   7   8
ATOM      8  C   UNL     1       5.636   1.954  11.398  0.00  0.00    +0.000 C 
BRANCH   8   9
ATOM      9  N   UNL     1       7.037   1.551  11.379  0.00  0.00    +0.000 NA
ATOM     10  H   UNL     1       7.624   2.376  11.254  0.00  0.00    +0.000 HD
ATOM     11  H   UNL     1       7.216   0.960  10.568  0.00  0.00    +0.000 HD
ENDBRANCH   8   9
ENDBRANCH   7   8
ENDBRANCH   1   7
TORSDOF 4
ENDMDL
MODEL 2
REMARK VINA RESULT:      -4.3      2.702      4.989
REMARK  Name = 
REMARK  4 active torsions:
REMARK  status: ('A' for Active; 'I' for Inactive)
REMARK    1  A    between atoms: N_1  and  C_2
REMARK    2  A    between atoms: C_2  and  C_3
REMARK    3  A    between atoms: C_3  and  C_4
REMARK    4  A    between atoms: C_4  and  N_5
REMARK                            x       y       z     vdW  Elec       q    Type
REMARK                         _______ _______ _______ _____ _____    ______ ____
ROOT
ATOM      1  C   UNL     1       5.147   6.633  17.119  0.00  0.00    +0.000 C 
ENDROOT
BRANCH   1   2
ATOM      2  N   UNL     1       5.907   5.867  16.157  0.00  0.00    +0.000 N 
ATOM      3  C   UNL     1       5.465   4.861  15.351  0.00  0.00    +0.000 A 
ATOM      4  C   UNL     1       6.587   4.487  14.655  0.00  0.00    +0.000 A 
ATOM      5  N   UNL     1       7.647   5.255  15.048  0.00  0.00    +0.000 NA
ATOM      6  N   UNL     1       7.218   6.101  15.975  0.00  0.00    +0.000 NA
ENDBRANCH   1   2
BRANCH   1   7
ATOM      7  C   UNL     1       4.491   5.733  18.163  0.00  0.00    +0.000 C 
BRANCH   7   8
ATOM      8  C   UNL     1       5.512   5.140  19.128  0.00  0.00    +0.000 C 
BRANCH   8   9
ATOM      9  N   UNL     1       5.624   3.697  18.947  0.00  0.00    +0.000 NA
ATOM     10  H   UNL     1       4.696   3.303  18.791  0.00  0.00    +0.000 HD
ATOM     11  H   UNL     1       5.965   3.266  19.806  0.00  0.00    +0.000 HD
ENDBRANCH   8   9
ENDBRANCH   7   8
ENDBRANCH   1   7
TORSDOF 4
ENDMDL
MODEL 3
REMARK VINA RESULT:      -4.3      4.807      6.261
REMARK  Name = 
REMARK  4 active torsions:
REMARK  status: ('A' for Active; 'I' for Inactive)
REMARK    1  A    between atoms: N_1  and  C_2
REMARK    2  A    between atoms: C_2  and  C_3
REMARK    3  A    between atoms: C_3  and  C_4
REMARK    4  A    between atoms: C_4  and  N_5
REMARK                            x       y       z     vdW  Elec       q    Type
REMARK                         _______ _______ _______ _____ _____    ______ ____
ROOT
ATOM      1  C   UNL     1       6.259   4.924  17.297  0.00  0.00    +0.000 C 
ENDROOT
BRANCH   1   2
ATOM      2  N   UNL     1       5.280   4.079  17.942  0.00  0.00    +0.000 N 
ATOM      3  C   UNL     1       4.146   3.549  17.403  0.00  0.00    +0.000 A 
ATOM      4  C   UNL     1       3.590   2.847  18.442  0.00  0.00    +0.000 A 
ATOM      5  N   UNL     1       4.381   2.967  19.551  0.00  0.00    +0.000 NA
ATOM      6  N   UNL     1       5.418   3.730  19.232  0.00  0.00    +0.000 NA
ENDBRANCH   1   2
BRANCH   1   7
ATOM      7  C   UNL     1       7.616   4.847  17.992  0.00  0.00    +0.000 C 
BRANCH   7   8
ATOM      8  C   UNL     1       7.814   5.988  18.984  0.00  0.00    +0.000 C 
BRANCH   8   9
ATOM      9  N   UNL     1       7.951   5.480  20.345  0.00  0.00    +0.000 NA
ATOM     10  H   UNL     1       8.437   4.583  20.322  0.00  0.00    +0.000 HD
ATOM     11  H   UNL     1       7.031   5.284  20.736  0.00  0.00    +0.000 HD
ENDBRANCH   8   9
ENDBRANCH   7   8
ENDBRANCH   1   7
TORSDOF 4
ENDMDL
MODEL 4
REMARK VINA RESULT:      -4.2      5.653      6.097
REMARK  Name = 
REMARK  4 active torsions:
REMARK  status: ('A' for Active; 'I' for Inactive)
REMARK    1  A    between atoms: N_1  and  C_2
REMARK    2  A    between atoms: C_2  and  C_3
REMARK    3  A    between atoms: C_3  and  C_4
REMARK    4  A    between atoms: C_4  and  N_5
REMARK                            x       y       z     vdW  Elec       q    Type
REMARK                         _______ _______ _______ _____ _____    ______ ____
ROOT
ATOM      1  C   UNL     1       4.360   5.054  18.898  0.00  0.00    +0.000 C 
ENDROOT
BRANCH   1   2
ATOM      2  N   UNL     1       5.754   5.434  18.849  0.00  0.00    +0.000 N 
ATOM      3  C   UNL     1       6.374   6.224  17.927  0.00  0.00    +0.000 A 
ATOM      4  C   UNL     1       7.680   6.247  18.348  0.00  0.00    +0.000 A 
ATOM      5  N   UNL     1       7.810   5.492  19.480  0.00  0.00    +0.000 NA
ATOM      6  N   UNL     1       6.618   4.994  19.779  0.00  0.00    +0.000 NA
ENDBRANCH   1   2
BRANCH   1   7
ATOM      7  C   UNL     1       4.142   3.640  18.363  0.00  0.00    +0.000 C 
BRANCH   7   8
ATOM      8  C   UNL     1       3.858   2.645  19.483  0.00  0.00    +0.000 C 
BRANCH   8   9
ATOM      9  N   UNL     1       5.097   2.100  20.025  0.00  0.00    +0.000 NA
ATOM     10  H   UNL     1       5.837   2.185  19.328  0.00  0.00    +0.000 HD
ATOM     11  H   UNL     1       4.991   1.101  20.195  0.00  0.00    +0.000 HD
ENDBRANCH   8   9
ENDBRANCH   7   8
ENDBRANCH   1   7
TORSDOF 4
ENDMDL
MODEL 5
REMARK VINA RESULT:      -4.2      2.247      5.297
REMARK  Name = 
REMARK  4 active torsions:
REMARK  status: ('A' for Active; 'I' for Inactive)
REMARK    1  A    between atoms: N_1  and  C_2
REMARK    2  A    between atoms: C_2  and  C_3
REMARK    3  A    between atoms: C_3  and  C_4
REMARK    4  A    between atoms: C_4  and  N_5
REMARK                            x       y       z     vdW  Elec       q    Type
REMARK                         _______ _______ _______ _____ _____    ______ ____
ROOT
ATOM      1  C   UNL     1       6.401   5.299  17.339  0.00  0.00    +0.000 C 
ENDROOT
BRANCH   1   2
ATOM      2  N   UNL     1       6.520   4.969  15.937  0.00  0.00    +0.000 N 
ATOM      3  C   UNL     1       5.862   3.995  15.248  0.00  0.00    +0.000 A 
ATOM      4  C   UNL     1       6.353   4.114  13.972  0.00  0.00    +0.000 A 
ATOM      5  N   UNL     1       7.268   5.128  13.926  0.00  0.00    +0.000 NA
ATOM      6  N   UNL     1       7.365   5.647  15.143  0.00  0.00    +0.000 NA
ENDBRANCH   1   2
BRANCH   1   7
ATOM      7  C   UNL     1       7.330   6.445  17.730  0.00  0.00    +0.000 C 
BRANCH   7   8
ATOM      8  C   UNL     1       7.983   6.212  19.088  0.00  0.00    +0.000 C 
BRANCH   8   9
ATOM      9  N   UNL     1       7.192   5.292  19.898  0.00  0.00    +0.000 NA
ATOM     10  H   UNL     1       7.059   4.420  19.384  0.00  0.00    +0.000 HD
ATOM     11  H   UNL     1       6.258   5.672  20.041  0.00  0.00    +0.000 HD
ENDBRANCH   8   9
ENDBRANCH   7   8
ENDBRANCH   1   7
TORSDOF 4
ENDMDL
MODEL 6
REMARK VINA RESULT:      -4.2      6.169      7.413
REMARK  Name = 
REMARK  4 active torsions:
REMARK  status: ('A' for Active; 'I' for Inactive)
REMARK    1  A    between atoms: N_1  and  C_2
REMARK    2  A    between atoms: C_2  and  C_3
REMARK    3  A    between atoms: C_3  and  C_4
REMARK    4  A    between atoms: C_4  and  N_5
REMARK                            x       y       z     vdW  Elec       q    Type
REMARK                         _______ _______ _______ _____ _____    ______ ____
ROOT
ATOM      1  C   UNL     1       3.306   2.222  18.444  0.00  0.00    +0.000 C 
ENDROOT
BRANCH   1   2
ATOM      2  N   UNL     1       2.700   2.430  19.740  0.00  0.00    +0.000 N 
ATOM      3  C   UNL     1       1.381   2.612  20.027  0.00  0.00    +0.000 A 
ATOM      4  C   UNL     1       1.365   2.769  21.390  0.00  0.00    +0.000 A 
ATOM      5  N   UNL     1       2.639   2.681  21.876  0.00  0.00    +0.000 NA
ATOM      6  N   UNL     1       3.455   2.474  20.850  0.00  0.00    +0.000 NA
ENDBRANCH   1   2
BRANCH   1   7
ATOM      7  C   UNL     1       3.396   3.522  17.648  0.00  0.00    +0.000 C 
BRANCH   7   8
ATOM      8  C   UNL     1       4.824   4.050  17.577  0.00  0.00    +0.000 C 
BRANCH   8   9
ATOM      9  N   UNL     1       5.599   3.619  18.736  0.00  0.00    +0.000 NA
ATOM     10  H   UNL     1       6.299   2.939  18.440  0.00  0.00    +0.000 HD
ATOM     11  H   UNL     1       4.995   3.126  19.392  0.00  0.00    +0.000 HD
ENDBRANCH   8   9
ENDBRANCH   7   8
ENDBRANCH   1   7
TORSDOF 4
ENDMDL
MODEL 7
REMARK VINA RESULT:      -4.1      3.211      5.010
REMARK  Name = 
REMARK  4 active torsions:
REMARK  status: ('A' for Active; 'I' for Inactive)
REMARK    1  A    between atoms: N_1  and  C_2
REMARK    2  A    between atoms: C_2  and  C_3
REMARK    3  A    between atoms: C_3  and  C_4
REMARK    4  A    between atoms: C_4  and  N_5
REMARK                            x       y       z     vdW  Elec       q    Type
REMARK                         _______ _______ _______ _____ _____    ______ ____
ROOT
ATOM      1  C   UNL     1       3.999   4.330  17.158  0.00  0.00    +0.000 C 
ENDROOT
BRANCH   1   2
ATOM      2  N   UNL     1       5.303   4.468  16.551  0.00  0.00    +0.000 N 
ATOM      3  C   UNL     1       5.601   4.580  15.226  0.00  0.00    +0.000 A 
ATOM      4  C   UNL     1       6.970   4.674  15.209  0.00  0.00    +0.000 A 
ATOM      5  N   UNL     1       7.449   4.618  16.488  0.00  0.00    +0.000 NA
ATOM      6  N   UNL     1       6.413   4.489  17.307  0.00  0.00    +0.000 NA
ENDBRANCH   1   2
BRANCH   1   7
ATOM      7  C   UNL     1       3.757   2.907  17.657  0.00  0.00    +0.000 C 
BRANCH   7   8
ATOM      8  C   UNL     1       3.776   2.826  19.179  0.00  0.00    +0.000 C 
BRANCH   8   9
ATOM      9  N   UNL     1       5.134   2.637  19.676  0.00  0.00    +0.000 NA
ATOM     10  H   UNL     1       5.393   1.654  19.584  0.00  0.00    +0.000 HD
ATOM     11  H   UNL     1       5.169   2.839  20.674  0.00  0.00    +0.000 HD
ENDBRANCH   8   9
ENDBRANCH   7   8
ENDBRANCH   1   7
TORSDOF 4
ENDMDL
MODEL 8
REMARK VINA RESULT:      -4.1      1.923      4.131
REMARK  Name = 
REMARK  4 active torsions:
REMARK  status: ('A' for Active; 'I' for Inactive)
REMARK    1  A    between atoms: N_1  and  C_2
REMARK    2  A    between atoms: C_2  and  C_3
REMARK    3  A    between atoms: C_3  and  C_4
REMARK    4  A    between atoms: C_4  and  N_5
REMARK                            x       y       z     vdW  Elec       q    Type
REMARK                         _______ _______ _______ _____ _____    ______ ____
ROOT
ATOM      1  C   UNL     1       5.938   3.689  15.686  0.00  0.00    +0.000 C 
ENDROOT
BRANCH   1   2
ATOM      2  N   UNL     1       6.651   4.283  14.578  0.00  0.00    +0.000 N 
ATOM      3  C   UNL     1       6.543   3.978  13.254  0.00  0.00    +0.000 A 
ATOM      4  C   UNL     1       7.439   4.825  12.653  0.00  0.00    +0.000 A 
ATOM      5  N   UNL     1       8.049   5.596  13.602  0.00  0.00    +0.000 NA
ATOM      6  N   UNL     1       7.557   5.253  14.786  0.00  0.00    +0.000 NA
ENDBRANCH   1   2
BRANCH   1   7
ATOM      7  C   UNL     1       5.159   4.735  16.480  0.00  0.00    +0.000 C 
BRANCH   7   8
ATOM      8  C   UNL     1       5.832   5.061  17.808  0.00  0.00    +0.000 C 
BRANCH   8   9
ATOM      9  N   UNL     1       7.044   4.269  17.988  0.00  0.00    +0.000 NA
ATOM     10  H   UNL     1       7.773   4.856  18.395  0.00  0.00    +0.000 HD
ATOM     11  H   UNL     1       7.402   3.974  17.081  0.00  0.00    +0.000 HD
ENDBRANCH   8   9
ENDBRANCH   7   8
ENDBRANCH   1   7
TORSDOF 4
ENDMDL
MODEL 9
REMARK VINA RESULT:      -4.1      5.927      7.576
REMARK  Name = 
REMARK  4 active torsions:
REMARK  status: ('A' for Active; 'I' for Inactive)
REMARK    1  A    between atoms: N_1  and  C_2
REMARK    2  A    between atoms: C_2  and  C_3
REMARK    3  A    between atoms: C_3  and  C_4
REMARK    4  A    between atoms: C_4  and  N_5
REMARK                            x       y       z     vdW  Elec       q    Type
REMARK                         _______ _______ _______ _____ _____    ______ ____
ROOT
ATOM      1  C   UNL     1       2.591   2.085  19.258  0.00  0.00    +0.000 C 
ENDROOT
BRANCH   1   2
ATOM      2  N   UNL     1       3.664   3.014  18.982  0.00  0.00    +0.000 N 
ATOM      3  C   UNL     1       3.708   3.980  18.022  0.00  0.00    +0.000 A 
ATOM      4  C   UNL     1       4.942   4.553  18.197  0.00  0.00    +0.000 A 
ATOM      5  N   UNL     1       5.593   3.936  19.229  0.00  0.00    +0.000 NA
ATOM      6  N   UNL     1       4.797   2.987  19.705  0.00  0.00    +0.000 NA
ENDBRANCH   1   2
BRANCH   1   7
ATOM      7  C   UNL     1       1.290   2.810  19.593  0.00  0.00    +0.000 C 
BRANCH   7   8
ATOM      8  C   UNL     1       1.368   3.532  20.933  0.00  0.00    +0.000 C 
BRANCH   8   9
ATOM      9  N   UNL     1       1.785   2.622  21.994  0.00  0.00    +0.000 NA
ATOM     10  H   UNL     1       2.684   2.206  21.748  0.00  0.00    +0.000 HD
ATOM     11  H   UNL     1       1.130   1.844  22.060  0.00  0.00    +0.000 HD
ENDBRANCH   8   9
ENDBRANCH   7   8
ENDBRANCH   1   7
TORSDOF 4
ENDMDL
