MODEL 1
REMARK VINA RESULT:      -8.7      0.000      0.000
REMARK  Name = 
REMARK  4 active torsions:
REMARK  status: ('A' for Active; 'I' for Inactive)
REMARK    1  A    between atoms: C_2  and  C_22
REMARK    2  A    between atoms: N_3  and  C_4
REMARK    3  A    between atoms: N_7  and  C_8
REMARK    4  A    between atoms: C_8  and  C_9
REMARK                            x       y       z     vdW  Elec       q    Type
REMARK                         _______ _______ _______ _____ _____    ______ ____
ROOT
ATOM      1  C   UNL     1       0.986   3.582  20.336  0.00  0.00    +0.000 C 
ATOM      2  C   UNL     1       2.304   3.172  20.987  0.00  0.00    +0.000 C 
ATOM      3  C   UNL     1       3.437   3.081  19.963  0.00  0.00    +0.000 C 
ATOM      4  N   UNL     1       3.119   2.196  18.830  0.00  0.00    +0.000 NA
ATOM      5  C   UNL     1       1.822   2.524  18.207  0.00  0.00    +0.000 C 
ATOM      6  C   UNL     1       0.668   2.610  19.204  0.00  0.00    +0.000 C 
ENDROOT
BRANCH   1   9
ATOM      7  O   UNL     1       2.430   5.743  21.516  0.00  0.00    +0.000 OA
ATOM      8  C   UNL     1       1.766   5.951  20.506  0.00  0.00    +0.000 C 
ATOM      9  N   UNL     1       1.045   4.965  19.871  0.00  0.00    +0.000 N 
ATOM     10  H   UNL     1       0.424   5.243  19.121  0.00  0.00    +0.000 HD
BRANCH   8  11
ATOM     11  C   UNL     1       1.740   7.309  19.889  0.00  0.00    +0.000 A 
ATOM     12  C   UNL     1       2.369   7.488  18.648  0.00  0.00    +0.000 A 
ATOM     13  C   UNL     1       2.295   8.717  17.985  0.00  0.00    +0.000 A 
ATOM     14  C   UNL     1       1.596   9.780  18.557  0.00  0.00    +0.000 A 
ATOM     15  C   UNL     1       0.995   9.623  19.804  0.00  0.00    +0.000 A 
ATOM     16  C   UNL     1       1.074   8.397  20.463  0.00  0.00    +0.000 A 
ATOM     17  F   UNL     1       0.486   8.295  21.666  0.00  0.00    +0.000 F 
ENDBRANCH   8  11
ENDBRANCH   1   9
BRANCH   4  18
ATOM     18  C   UNL     1       4.169   2.279  17.791  0.00  0.00    +0.000 C 
BRANCH  18  19
ATOM     19  C   UNL     1       4.781   3.652  17.616  0.00  0.00    +0.000 A 
ATOM     20  C   UNL     1       4.287   4.529  16.643  0.00  0.00    +0.000 A 
ATOM     21  C   UNL     1       4.889   5.771  16.434  0.00  0.00    +0.000 A 
ATOM     22  C   UNL     1       5.994   6.167  17.202  0.00  0.00    +0.000 A 
ATOM     23  C   UNL     1       6.627   7.397  16.983  0.00  0.00    +0.000 A 
ATOM     24  C   UNL     1       7.710   7.774  17.769  0.00  0.00    +0.000 A 
ATOM     25  F   UNL     1       8.311   8.949  17.543  0.00  0.00    +0.000 F 
ATOM     26  C   UNL     1       8.178   6.952  18.785  0.00  0.00    +0.000 A 
ATOM     27  C   UNL     1       7.564   5.718  19.007  0.00  0.00    +0.000 A 
ATOM     28  C   UNL     1       6.478   5.306  18.217  0.00  0.00    +0.000 A 
ATOM     29  C   UNL     1       5.868   4.056  18.406  0.00  0.00    +0.000 A 
ENDBRANCH  18  19
ENDBRANCH   4  18
TORSDOF 4
ENDMDL
MODEL 2
REMARK VINA RESULT:      -8.6      3.791      7.745
REMARK  Name = 
REMARK  4 active torsions:
REMARK  status: ('A' for Active; 'I' for Inactive)
REMARK    1  A    between atoms: C_2  and  C_22
REMARK    2  A    between atoms: N_3  and  C_4
REMARK    3  A    between atoms: N_7  and  C_8
REMARK    4  A    between atoms: C_8  and  C_9
REMARK                            x       y       z     vdW  Elec       q    Type
REMARK                         _______ _______ _______ _____ _____    ______ ____
ROOT
ATOM      1  C   UNL     1       7.162   5.462  16.651  0.00  0.00    +0.000 C 
ATOM      2  C   UNL     1       6.850   4.702  17.937  0.00  0.00    +0.000 C 
ATOM      3  C   UNL     1       5.345   4.616  18.193  0.00  0.00    +0.000 C 
ATOM      4  N   UNL     1       4.686   5.932  18.196  0.00  0.00    +0.000 NA
ATOM      5  C   UNL     1       5.008   6.725  16.993  0.00  0.00    +0.000 C 
ATOM      6  C   UNL     1       6.506   6.838  16.717  0.00  0.00    +0.000 C 
ENDROOT
BRANCH   1   9
ATOM      7  O   UNL     1       8.165   5.666  13.986  0.00  0.00    +0.000 OA
ATOM      8  C   UNL     1       7.265   4.868  14.224  0.00  0.00    +0.000 C 
ATOM      9  N   UNL     1       6.728   4.703  15.481  0.00  0.00    +0.000 N 
ATOM     10  H   UNL     1       5.904   4.120  15.570  0.00  0.00    +0.000 HD
BRANCH   8  11
ATOM     11  C   UNL     1       6.723   3.998  13.140  0.00  0.00    +0.000 A 
ATOM     12  C   UNL     1       7.629   3.406  12.248  0.00  0.00    +0.000 A 
ATOM     13  C   UNL     1       7.182   2.511  11.272  0.00  0.00    +0.000 A 
ATOM     14  C   UNL     1       5.826   2.203  11.173  0.00  0.00    +0.000 A 
ATOM     15  C   UNL     1       4.913   2.811  12.032  0.00  0.00    +0.000 A 
ATOM     16  C   UNL     1       5.363   3.706  13.002  0.00  0.00    +0.000 A 
ATOM     17  F   UNL     1       4.445   4.272  13.803  0.00  0.00    +0.000 F 
ENDBRANCH   8  11
ENDBRANCH   1   9
BRANCH   4  18
ATOM     18  C   UNL     1       3.216   5.782  18.275  0.00  0.00    +0.000 C 
BRANCH  18  19
ATOM     19  C   UNL     1       2.474   7.028  18.706  0.00  0.00    +0.000 A 
ATOM     20  C   UNL     1       2.166   8.026  17.775  0.00  0.00    +0.000 A 
ATOM     21  C   UNL     1       1.538   9.206  18.180  0.00  0.00    +0.000 A 
ATOM     22  C   UNL     1       1.196   9.408  19.524  0.00  0.00    +0.000 A 
ATOM     23  C   UNL     1       0.593  10.599  19.950  0.00  0.00    +0.000 A 
ATOM     24  C   UNL     1       0.248  10.767  21.286  0.00  0.00    +0.000 A 
ATOM     25  F   UNL     1      -0.320  11.914  21.680  0.00  0.00    +0.000 F 
ATOM     26  C   UNL     1       0.482   9.765  22.218  0.00  0.00    +0.000 A 
ATOM     27  C   UNL     1       1.091   8.578  21.811  0.00  0.00    +0.000 A 
ATOM     28  C   UNL     1       1.465   8.387  20.469  0.00  0.00    +0.000 A 
ATOM     29  C   UNL     1       2.107   7.213  20.048  0.00  0.00    +0.000 A 
ENDBRANCH  18  19
ENDBRANCH   4  18
TORSDOF 4
ENDMDL
MODEL 3
REMARK VINA RESULT:      -8.5      5.069      7.817
REMARK  Name = 
REMARK  4 active torsions:
REMARK  status: ('A' for Active; 'I' for Inactive)
REMARK    1  A    between atoms: C_2  and  C_22
REMARK    2  A    between atoms: N_3  and  C_4
REMARK    3  A    between atoms: N_7  and  C_8
REMARK    4  A    between atoms: C_8  and  C_9
REMARK                            x       y       z     vdW  Elec       q    Type
REMARK                         _______ _______ _______ _____ _____    ______ ____
ROOT
ATOM      1  C   UNL     1      -1.148  12.250  19.426  0.00  0.00    +0.000 C 
ATOM      2  C   UNL     1      -1.109  10.961  18.609  0.00  0.00    +0.000 C 
ATOM      3  C   UNL     1      -0.521   9.799  19.411  0.00  0.00    +0.000 C 
ATOM      4  N   UNL     1       0.808  10.100  19.968  0.00  0.00    +0.000 NA
ATOM      5  C   UNL     1       0.828  11.370  20.721  0.00  0.00    +0.000 C 
ATOM      6  C   UNL     1       0.257  12.553  19.941  0.00  0.00    +0.000 C 
ENDROOT
BRANCH   1   9
ATOM      7  O   UNL     1      -2.616  14.374  20.643  0.00  0.00    +0.000 OA
ATOM      8  C   UNL     1      -2.782  13.228  21.046  0.00  0.00    +0.000 C 
ATOM      9  N   UNL     1      -2.119  12.146  20.512  0.00  0.00    +0.000 N 
ATOM     10  H   UNL     1      -2.215  11.254  20.983  0.00  0.00    +0.000 HD
BRANCH   8  11
ATOM     11  C   UNL     1      -3.759  12.949  22.138  0.00  0.00    +0.000 A 
ATOM     12  C   UNL     1      -3.261  12.658  23.417  0.00  0.00    +0.000 A 
ATOM     13  C   UNL     1      -4.134  12.479  24.495  0.00  0.00    +0.000 A 
ATOM     14  C   UNL     1      -5.511  12.583  24.305  0.00  0.00    +0.000 A 
ATOM     15  C   UNL     1      -6.018  12.838  23.033  0.00  0.00    +0.000 A 
ATOM     16  C   UNL     1      -5.144  13.013  21.960  0.00  0.00    +0.000 A 
ATOM     17  F   UNL     1      -5.679  13.251  20.751  0.00  0.00    +0.000 F 
ENDBRANCH   8  11
ENDBRANCH   1   9
BRANCH   4  18
ATOM     18  C   UNL     1       1.254   9.017  20.873  0.00  0.00    +0.000 C 
BRANCH  18  19
ATOM     19  C   UNL     1       1.666   7.738  20.176  0.00  0.00    +0.000 A 
ATOM     20  C   UNL     1       2.316   7.786  18.937  0.00  0.00    +0.000 A 
ATOM     21  C   UNL     1       2.641   6.609  18.259  0.00  0.00    +0.000 A 
ATOM     22  C   UNL     1       2.330   5.358  18.812  0.00  0.00    +0.000 A 
ATOM     23  C   UNL     1       2.622   4.169  18.130  0.00  0.00    +0.000 A 
ATOM     24  C   UNL     1       2.320   2.942  18.708  0.00  0.00    +0.000 A 
ATOM     25  F   UNL     1       2.597   1.814  18.041  0.00  0.00    +0.000 F 
ATOM     26  C   UNL     1       1.736   2.866  19.964  0.00  0.00    +0.000 A 
ATOM     27  C   UNL     1       1.428   4.041  20.651  0.00  0.00    +0.000 A 
ATOM     28  C   UNL     1       1.709   5.296  20.084  0.00  0.00    +0.000 A 
ATOM     29  C   UNL     1       1.379   6.488  20.746  0.00  0.00    +0.000 A 
ENDBRANCH  18  19
ENDBRANCH   4  18
TORSDOF 4
ENDMDL
MODEL 4
REMARK VINA RESULT:      -8.5      4.914      7.724
REMARK  Name = 
REMARK  4 active torsions:
REMARK  status: ('A' for Active; 'I' for Inactive)
REMARK    1  A    between atoms: C_2  and  C_22
REMARK    2  A    between atoms: N_3  and  C_4
REMARK    3  A    between atoms: N_7  and  C_8
REMARK    4  A    between atoms: C_8  and  C_9
REMARK                            x       y       z     vdW  Elec       q    Type
REMARK                         _______ _______ _______ _____ _____    ______ ____
ROOT
ATOM      1  C   UNL     1      -1.089  12.257  19.376  0.00  0.00    +0.000 C 
ATOM      2  C   UNL     1      -1.124  10.939  18.607  0.00  0.00    +0.000 C 
ATOM      3  C   UNL     1      -0.530   9.790  19.425  0.00  0.00    +0.000 C 
ATOM      4  N   UNL     1       0.831  10.073  19.909  0.00  0.00    +0.000 NA
ATOM      5  C   UNL     1       0.921  11.368  20.611  0.00  0.00    +0.000 C 
ATOM      6  C   UNL     1       0.346  12.538  19.814  0.00  0.00    +0.000 C 
ENDROOT
BRANCH   1   9
ATOM      7  O   UNL     1      -2.457  14.464  20.563  0.00  0.00    +0.000 OA
ATOM      8  C   UNL     1      -2.626  13.340  21.023  0.00  0.00    +0.000 C 
ATOM      9  N   UNL     1      -2.010  12.222  20.508  0.00  0.00    +0.000 N 
ATOM     10  H   UNL     1      -2.101  11.354  21.023  0.00  0.00    +0.000 HD
BRANCH   8  11
ATOM     11  C   UNL     1      -3.557  13.129  22.170  0.00  0.00    +0.000 A 
ATOM     12  C   UNL     1      -4.932  13.305  21.951  0.00  0.00    +0.000 A 
ATOM     13  C   UNL     1      -5.853  13.032  22.966  0.00  0.00    +0.000 A 
ATOM     14  C   UNL     1      -5.411  12.585  24.212  0.00  0.00    +0.000 A 
ATOM     15  C   UNL     1      -4.046  12.439  24.450  0.00  0.00    +0.000 A 
ATOM     16  C   UNL     1      -3.130  12.716  23.435  0.00  0.00    +0.000 A 
ATOM     17  F   UNL     1      -1.825  12.568  23.714  0.00  0.00    +0.000 F 
ENDBRANCH   8  11
ENDBRANCH   1   9
BRANCH   4  18
ATOM     18  C   UNL     1       1.289   9.011  20.832  0.00  0.00    +0.000 C 
BRANCH  18  19
ATOM     19  C   UNL     1       1.687   7.715  20.161  0.00  0.00    +0.000 A 
ATOM     20  C   UNL     1       2.327   7.731  18.916  0.00  0.00    +0.000 A 
ATOM     21  C   UNL     1       2.639   6.537  18.262  0.00  0.00    +0.000 A 
ATOM     22  C   UNL     1       2.326   5.301  18.845  0.00  0.00    +0.000 A 
ATOM     23  C   UNL     1       2.606   4.096  18.187  0.00  0.00    +0.000 A 
ATOM     24  C   UNL     1       2.301   2.883  18.795  0.00  0.00    +0.000 A 
ATOM     25  F   UNL     1       2.567   1.739  18.151  0.00  0.00    +0.000 F 
ATOM     26  C   UNL     1       1.728   2.839  20.058  0.00  0.00    +0.000 A 
ATOM     27  C   UNL     1       1.433   4.031  20.721  0.00  0.00    +0.000 A 
ATOM     28  C   UNL     1       1.716   5.271  20.124  0.00  0.00    +0.000 A 
ATOM     29  C   UNL     1       1.399   6.480  20.761  0.00  0.00    +0.000 A 
ENDBRANCH  18  19
ENDBRANCH   4  18
TORSDOF 4
ENDMDL
MODEL 5
REMARK VINA RESULT:      -8.5      4.109      6.569
REMARK  Name = 
REMARK  4 active torsions:
REMARK  status: ('A' for Active; 'I' for Inactive)
REMARK    1  A    between atoms: C_2  and  C_22
REMARK    2  A    between atoms: N_3  and  C_4
REMARK    3  A    between atoms: N_7  and  C_8
REMARK    4  A    between atoms: C_8  and  C_9
REMARK                            x       y       z     vdW  Elec       q    Type
REMARK                         _______ _______ _______ _____ _____    ______ ____
ROOT
ATOM      1  C   UNL     1       7.060   4.641  17.818  0.00  0.00    +0.000 C 
ATOM      2  C   UNL     1       8.156   5.343  18.616  0.00  0.00    +0.000 C 
ATOM      3  C   UNL     1       7.890   6.844  18.745  0.00  0.00    +0.000 C 
ATOM      4  N   UNL     1       7.689   7.506  17.446  0.00  0.00    +0.000 NA
ATOM      5  C   UNL     1       6.675   6.824  16.618  0.00  0.00    +0.000 C 
ATOM      6  C   UNL     1       6.920   5.325  16.461  0.00  0.00    +0.000 C 
ENDROOT
BRANCH   1   9
ATOM      7  O   UNL     1       4.618   3.366  17.071  0.00  0.00    +0.000 OA
ATOM      8  C   UNL     1       4.665   3.994  18.123  0.00  0.00    +0.000 C 
ATOM      9  N   UNL     1       5.802   4.634  18.560  0.00  0.00    +0.000 N 
ATOM     10  H   UNL     1       5.723   5.235  19.372  0.00  0.00    +0.000 HD
BRANCH   8  11
ATOM     11  C   UNL     1       3.468   4.065  19.010  0.00  0.00    +0.000 A 
ATOM     12  C   UNL     1       3.071   5.321  19.493  0.00  0.00    +0.000 A 
ATOM     13  C   UNL     1       1.905   5.454  20.252  0.00  0.00    +0.000 A 
ATOM     14  C   UNL     1       1.127   4.334  20.542  0.00  0.00    +0.000 A 
ATOM     15  C   UNL     1       1.528   3.077  20.096  0.00  0.00    +0.000 A 
ATOM     16  C   UNL     1       2.694   2.948  19.341  0.00  0.00    +0.000 A 
ATOM     17  F   UNL     1       3.045   1.716  18.939  0.00  0.00    +0.000 F 
ENDBRANCH   8  11
ENDBRANCH   1   9
BRANCH   4  18
ATOM     18  C   UNL     1       7.266   8.912  17.635  0.00  0.00    +0.000 C 
BRANCH  18  19
ATOM     19  C   UNL     1       8.332   9.824  18.203  0.00  0.00    +0.000 A 
ATOM     20  C   UNL     1       8.978   9.497  19.400  0.00  0.00    +0.000 A 
ATOM     21  C   UNL     1       9.916  10.366  19.962  0.00  0.00    +0.000 A 
ATOM     22  C   UNL     1      10.234  11.577  19.331  0.00  0.00    +0.000 A 
ATOM     23  C   UNL     1      11.151  12.473  19.899  0.00  0.00    +0.000 A 
ATOM     24  C   UNL     1      11.462  13.659  19.244  0.00  0.00    +0.000 A 
ATOM     25  F   UNL     1      12.333  14.509  19.802  0.00  0.00    +0.000 F 
ATOM     26  C   UNL     1      10.885  13.976  18.022  0.00  0.00    +0.000 A 
ATOM     27  C   UNL     1       9.962  13.099  17.451  0.00  0.00    +0.000 A 
ATOM     28  C   UNL     1       9.617  11.900  18.098  0.00  0.00    +0.000 A 
ATOM     29  C   UNL     1       8.669  11.021  17.554  0.00  0.00    +0.000 A 
ENDBRANCH  18  19
ENDBRANCH   4  18
TORSDOF 4
ENDMDL
MODEL 6
REMARK VINA RESULT:      -8.5      3.482      5.925
REMARK  Name = 
REMARK  4 active torsions:
REMARK  status: ('A' for Active; 'I' for Inactive)
REMARK    1  A    between atoms: C_2  and  C_22
REMARK    2  A    between atoms: N_3  and  C_4
REMARK    3  A    between atoms: N_7  and  C_8
REMARK    4  A    between atoms: C_8  and  C_9
REMARK                            x       y       z     vdW  Elec       q    Type
REMARK                         _______ _______ _______ _____ _____    ______ ____
ROOT
ATOM      1  C   UNL     1       5.175   5.025  16.265  0.00  0.00    +0.000 C 
ATOM      2  C   UNL     1       6.549   4.391  16.455  0.00  0.00    +0.000 C 
ATOM      3  C   UNL     1       7.330   5.058  17.589  0.00  0.00    +0.000 C 
ATOM      4  N   UNL     1       7.450   6.516  17.423  0.00  0.00    +0.000 NA
ATOM      5  C   UNL     1       6.146   7.164  17.179  0.00  0.00    +0.000 C 
ATOM      6  C   UNL     1       5.347   6.526  16.044  0.00  0.00    +0.000 C 
ENDROOT
BRANCH   1   9
ATOM      7  O   UNL     1       4.128   2.485  17.038  0.00  0.00    +0.000 OA
ATOM      8  C   UNL     1       3.842   3.474  17.702  0.00  0.00    +0.000 C 
ATOM      9  N   UNL     1       4.307   4.735  17.403  0.00  0.00    +0.000 N 
ATOM     10  H   UNL     1       3.923   5.516  17.922  0.00  0.00    +0.000 HD
BRANCH   8  11
ATOM     11  C   UNL     1       2.980   3.344  18.914  0.00  0.00    +0.000 A 
ATOM     12  C   UNL     1       3.526   2.737  20.055  0.00  0.00    +0.000 A 
ATOM     13  C   UNL     1       2.793   2.672  21.244  0.00  0.00    +0.000 A 
ATOM     14  C   UNL     1       1.507   3.208  21.303  0.00  0.00    +0.000 A 
ATOM     15  C   UNL     1       0.943   3.783  20.167  0.00  0.00    +0.000 A 
ATOM     16  C   UNL     1       1.677   3.843  18.982  0.00  0.00    +0.000 A 
ATOM     17  F   UNL     1       1.089   4.401  17.911  0.00  0.00    +0.000 F 
ENDBRANCH   8  11
ENDBRANCH   1   9
BRANCH   4  18
ATOM     18  C   UNL     1       8.057   7.132  18.624  0.00  0.00    +0.000 C 
BRANCH  18  19
ATOM     19  C   UNL     1       8.348   8.611  18.501  0.00  0.00    +0.000 A 
ATOM     20  C   UNL     1       7.797   9.355  17.450  0.00  0.00    +0.000 A 
ATOM     21  C   UNL     1       8.114  10.706  17.294  0.00  0.00    +0.000 A 
ATOM     22  C   UNL     1       8.980  11.345  18.193  0.00  0.00    +0.000 A 
ATOM     23  C   UNL     1       9.331  12.692  18.031  0.00  0.00    +0.000 A 
ATOM     24  C   UNL     1      10.178  13.306  18.946  0.00  0.00    +0.000 A 
ATOM     25  F   UNL     1      10.510  14.592  18.775  0.00  0.00    +0.000 F 
ATOM     26  C   UNL     1      10.684  12.609  20.034  0.00  0.00    +0.000 A 
ATOM     27  C   UNL     1      10.353  11.264  20.202  0.00  0.00    +0.000 A 
ATOM     28  C   UNL     1       9.511  10.613  19.284  0.00  0.00    +0.000 A 
ATOM     29  C   UNL     1       9.192   9.254  19.419  0.00  0.00    +0.000 A 
ENDBRANCH  18  19
ENDBRANCH   4  18
TORSDOF 4
ENDMDL
MODEL 7
REMARK VINA RESULT:      -8.5      3.273      7.782
REMARK  Name = 
REMARK  4 active torsions:
REMARK  status: ('A' for Active; 'I' for Inactive)
REMARK    1  A    between atoms: C_2  and  C_22
REMARK    2  A    between atoms: N_3  and  C_4
REMARK    3  A    between atoms: N_7  and  C_8
REMARK    4  A    between atoms: C_8  and  C_9
REMARK                            x       y       z     vdW  Elec       q    Type
REMARK                         _______ _______ _______ _____ _____    ______ ____
ROOT
ATOM      1  C   UNL     1       6.434   4.663  17.919  0.00  0.00    +0.000 C 
ATOM      2  C   UNL     1       5.307   4.028  18.729  0.00  0.00    +0.000 C 
ATOM      3  C   UNL     1       3.950   4.650  18.396  0.00  0.00    +0.000 C 
ATOM      4  N   UNL     1       3.936   6.115  18.548  0.00  0.00    +0.000 NA
ATOM      5  C   UNL     1       5.046   6.766  17.825  0.00  0.00    +0.000 C 
ATOM      6  C   UNL     1       6.417   6.173  18.146  0.00  0.00    +0.000 C 
ENDROOT
BRANCH   1   9
ATOM      7  O   UNL     1       7.705   5.953  15.712  0.00  0.00    +0.000 OA
ATOM      8  C   UNL     1       6.962   5.001  15.499  0.00  0.00    +0.000 C 
ATOM      9  N   UNL     1       6.315   4.320  16.505  0.00  0.00    +0.000 N 
ATOM     10  H   UNL     1       5.622   3.630  16.238  0.00  0.00    +0.000 HD
BRANCH   8  11
ATOM     11  C   UNL     1       6.750   4.509  14.107  0.00  0.00    +0.000 A 
ATOM     12  C   UNL     1       5.659   3.662  13.860  0.00  0.00    +0.000 A 
ATOM     13  C   UNL     1       5.363   3.247  12.558  0.00  0.00    +0.000 A 
ATOM     14  C   UNL     1       6.155   3.669  11.491  0.00  0.00    +0.000 A 
ATOM     15  C   UNL     1       7.260   4.483  11.729  0.00  0.00    +0.000 A 
ATOM     16  C   UNL     1       7.554   4.892  13.030  0.00  0.00    +0.000 A 
ATOM     17  F   UNL     1       8.634   5.671  13.210  0.00  0.00    +0.000 F 
ENDBRANCH   8  11
ENDBRANCH   1   9
BRANCH   4  18
ATOM     18  C   UNL     1       2.662   6.680  18.051  0.00  0.00    +0.000 C 
BRANCH  18  19
ATOM     19  C   UNL     1       2.039   7.725  18.950  0.00  0.00    +0.000 A 
ATOM     20  C   UNL     1       1.858   7.468  20.314  0.00  0.00    +0.000 A 
ATOM     21  C   UNL     1       1.224   8.402  21.136  0.00  0.00    +0.000 A 
ATOM     22  C   UNL     1       0.767   9.619  20.611  0.00  0.00    +0.000 A 
ATOM     23  C   UNL     1       0.103  10.554  21.417  0.00  0.00    +0.000 A 
ATOM     24  C   UNL     1      -0.326  11.761  20.877  0.00  0.00    +0.000 A 
ATOM     25  F   UNL     1      -0.966  12.641  21.657  0.00  0.00    +0.000 F 
ATOM     26  C   UNL     1      -0.100  12.069  19.543  0.00  0.00    +0.000 A 
ATOM     27  C   UNL     1       0.550  11.144  18.725  0.00  0.00    +0.000 A 
ATOM     28  C   UNL     1       0.981   9.909  19.241  0.00  0.00    +0.000 A 
ATOM     29  C   UNL     1       1.608   8.954  18.427  0.00  0.00    +0.000 A 
ENDBRANCH  18  19
ENDBRANCH   4  18
TORSDOF 4
ENDMDL
MODEL 8
REMARK VINA RESULT:      -8.4      4.071      7.986
REMARK  Name = 
REMARK  4 active torsions:
REMARK  status: ('A' for Active; 'I' for Inactive)
REMARK    1  A    between atoms: C_2  and  C_22
REMARK    2  A    between atoms: N_3  and  C_4
REMARK    3  A    between atoms: N_7  and  C_8
REMARK    4  A    between atoms: C_8  and  C_9
REMARK                            x       y       z     vdW  Elec       q    Type
REMARK                         _______ _______ _______ _____ _____    ______ ____
ROOT
ATOM      1  C   UNL     1       7.253   5.412  15.834  0.00  0.00    +0.000 C 
ATOM      2  C   UNL     1       7.267   4.713  17.191  0.00  0.00    +0.000 C 
ATOM      3  C   UNL     1       5.854   4.361  17.662  0.00  0.00    +0.000 C 
ATOM      4  N   UNL     1       4.950   5.522  17.685  0.00  0.00    +0.000 NA
ATOM      5  C   UNL     1       4.950   6.261  16.407  0.00  0.00    +0.000 C 
ATOM      6  C   UNL     1       6.347   6.637  15.917  0.00  0.00    +0.000 C 
ENDROOT
BRANCH   1   9
ATOM      7  O   UNL     1       7.920   5.538  13.062  0.00  0.00    +0.000 OA
ATOM      8  C   UNL     1       7.201   4.629  13.461  0.00  0.00    +0.000 C 
ATOM      9  N   UNL     1       6.835   4.491  14.781  0.00  0.00    +0.000 N 
ATOM     10  H   UNL     1       6.138   3.791  15.008  0.00  0.00    +0.000 HD
BRANCH   8  11
ATOM     11  C   UNL     1       6.706   3.589  12.512  0.00  0.00    +0.000 A 
ATOM     12  C   UNL     1       7.651   2.801  11.838  0.00  0.00    +0.000 A 
ATOM     13  C   UNL     1       7.239   1.753  11.009  0.00  0.00    +0.000 A 
ATOM     14  C   UNL     1       5.881   1.485  10.841  0.00  0.00    +0.000 A 
ATOM     15  C   UNL     1       4.934   2.282  11.479  0.00  0.00    +0.000 A 
ATOM     16  C   UNL     1       5.349   3.328  12.303  0.00  0.00    +0.000 A 
ATOM     17  F   UNL     1       4.399   4.073  12.892  0.00  0.00    +0.000 F 
ENDBRANCH   8  11
ENDBRANCH   1   9
BRANCH   4  18
ATOM     18  C   UNL     1       3.562   5.099  17.978  0.00  0.00    +0.000 C 
BRANCH  18  19
ATOM     19  C   UNL     1       2.797   6.026  18.897  0.00  0.00    +0.000 A 
ATOM     20  C   UNL     1       2.347   5.574  20.143  0.00  0.00    +0.000 A 
ATOM     21  C   UNL     1       1.585   6.404  20.967  0.00  0.00    +0.000 A 
ATOM     22  C   UNL     1       1.266   7.710  20.566  0.00  0.00    +0.000 A 
ATOM     23  C   UNL     1       0.476   8.544  21.369  0.00  0.00    +0.000 A 
ATOM     24  C   UNL     1       0.189   9.840  20.957  0.00  0.00    +0.000 A 
ATOM     25  F   UNL     1      -0.573  10.623  21.731  0.00  0.00    +0.000 F 
ATOM     26  C   UNL     1       0.679  10.335  19.757  0.00  0.00    +0.000 A 
ATOM     27  C   UNL     1       1.457   9.512  18.941  0.00  0.00    +0.000 A 
ATOM     28  C   UNL     1       1.750   8.193  19.326  0.00  0.00    +0.000 A 
ATOM     29  C   UNL     1       2.504   7.341  18.504  0.00  0.00    +0.000 A 
ENDBRANCH  18  19
ENDBRANCH   4  18
TORSDOF 4
ENDMDL
MODEL 9
REMARK VINA RESULT:      -8.3      4.255      7.052
REMARK  Name = 
REMARK  4 active torsions:
REMARK  status: ('A' for Active; 'I' for Inactive)
REMARK    1  A    between atoms: C_2  and  C_22
REMARK    2  A    between atoms: N_3  and  C_4
REMARK    3  A    between atoms: N_7  and  C_8
REMARK    4  A    between atoms: C_8  and  C_9
REMARK                            x       y       z     vdW  Elec       q    Type
REMARK                         _______ _______ _______ _____ _____    ______ ____
ROOT
ATOM      1  C   UNL     1      -1.005  11.662  20.182  0.00  0.00    +0.000 C 
ATOM      2  C   UNL     1      -0.990  11.198  21.635  0.00  0.00    +0.000 C 
ATOM      3  C   UNL     1       0.229  10.326  21.939  0.00  0.00    +0.000 C 
ATOM      4  N   UNL     1       0.357   9.178  21.026  0.00  0.00    +0.000 NA
ATOM      5  C   UNL     1       0.290   9.578  19.607  0.00  0.00    +0.000 C 
ATOM      6  C   UNL     1      -0.924  10.441  19.270  0.00  0.00    +0.000 C 
ENDROOT
BRANCH   1   9
ATOM      7  O   UNL     1      -0.585  13.222  17.828  0.00  0.00    +0.000 OA
ATOM      8  C   UNL     1       0.209  13.319  18.757  0.00  0.00    +0.000 C 
ATOM      9  N   UNL     1       0.078  12.608  19.928  0.00  0.00    +0.000 N 
ATOM     10  H   UNL     1       0.842  12.648  20.593  0.00  0.00    +0.000 HD
BRANCH   8  11
ATOM     11  C   UNL     1       1.362  14.262  18.665  0.00  0.00    +0.000 A 
ATOM     12  C   UNL     1       1.125  15.626  18.894  0.00  0.00    +0.000 A 
ATOM     13  C   UNL     1       2.185  16.537  18.910  0.00  0.00    +0.000 A 
ATOM     14  C   UNL     1       3.490  16.097  18.693  0.00  0.00    +0.000 A 
ATOM     15  C   UNL     1       3.733  14.751  18.432  0.00  0.00    +0.000 A 
ATOM     16  C   UNL     1       2.672  13.845  18.413  0.00  0.00    +0.000 A 
ATOM     17  F   UNL     1       2.954  12.558  18.151  0.00  0.00    +0.000 F 
ENDBRANCH   8  11
ENDBRANCH   1   9
BRANCH   4  18
ATOM     18  C   UNL     1       1.637   8.471  21.251  0.00  0.00    +0.000 C 
BRANCH  18  19
ATOM     19  C   UNL     1       1.876   7.287  20.339  0.00  0.00    +0.000 A 
ATOM     20  C   UNL     1       2.409   7.478  19.058  0.00  0.00    +0.000 A 
ATOM     21  C   UNL     1       2.571   6.397  18.188  0.00  0.00    +0.000 A 
ATOM     22  C   UNL     1       2.214   5.101  18.586  0.00  0.00    +0.000 A 
ATOM     23  C   UNL     1       2.343   4.012  17.714  0.00  0.00    +0.000 A 
ATOM     24  C   UNL     1       1.997   2.734  18.138  0.00  0.00    +0.000 A 
ATOM     25  F   UNL     1       2.118   1.704  17.291  0.00  0.00    +0.000 F 
ATOM     26  C   UNL     1       1.530   2.509  19.426  0.00  0.00    +0.000 A 
ATOM     27  C   UNL     1       1.385   3.585  20.302  0.00  0.00    +0.000 A 
ATOM     28  C   UNL     1       1.712   4.890  19.894  0.00  0.00    +0.000 A 
ATOM     29  C   UNL     1       1.544   5.988  20.751  0.00  0.00    +0.000 A 
ENDBRANCH  18  19
ENDBRANCH   4  18
TORSDOF 4
ENDMDL
