MODEL 1
REMARK VINA RESULT:      -8.9      0.000      0.000
REMARK  Name = 
REMARK  7 active torsions:
REMARK  status: ('A' for Active; 'I' for Inactive)
REMARK    1  A    between atoms: N_1  and  C_2
REMARK    2  A    between atoms: C_2  and  C_3
REMARK    3  A    between atoms: C_6  and  N_7
REMARK    4  A    between atoms: C_10  and  C_11
REMARK    5  A    between atoms: C_15  and  N_16
REMARK    6  A    between atoms: N_16  and  C_17
REMARK    7  A    between atoms: C_17  and  C_18
REMARK                            x       y       z     vdW  Elec       q    Type
REMARK                         _______ _______ _______ _____ _____    ______ ____
ROOT
ATOM      1  N   UNL     1       0.824  10.236  17.835  0.00  0.00    +0.000 N 
ATOM      2  C   UNL     1       1.441   9.138  18.437  0.00  0.00    +0.000 A 
ATOM      3  C   UNL     1       2.385   8.419  17.708  0.00  0.00    +0.000 A 
ATOM      4  C   UNL     1       2.970   7.235  18.215  0.00  0.00    +0.000 A 
ATOM      5  C   UNL     1       2.627   6.892  19.530  0.00  0.00    +0.000 A 
ATOM      6 CL   UNL     1       3.320   5.583  20.417  0.00  0.00    +0.000 Cl
ATOM      7  C   UNL     1       1.687   7.670  20.196  0.00  0.00    +0.000 A 
ATOM      8  N   UNL     1       1.078   8.755  19.671  0.00  0.00    +0.000 NA
ATOM      9  H   UNL     1       1.468  11.008  17.681  0.00  0.00    +0.000 HD
ENDROOT
BRANCH   1  13
ATOM     10  C   UNL     1      -3.226  11.741  18.306  0.00  0.00    +0.000 C 
ATOM     11  C   UNL     1      -2.090  12.318  19.173  0.00  0.00    +0.000 C 
ATOM     12  C   UNL     1      -0.710  12.087  18.549  0.00  0.00    +0.000 C 
ATOM     13  C   UNL     1      -0.504  10.586  18.327  0.00  0.00    +0.000 C 
ATOM     14  C   UNL     1      -1.552  10.086  17.326  0.00  0.00    +0.000 C 
ATOM     15  C   UNL     1      -2.958  10.281  17.896  0.00  0.00    +0.000 C 
BRANCH  10  16
ATOM     16  C   UNL     1      -4.609  11.897  18.972  0.00  0.00    +0.000 C 
BRANCH  16  17
ATOM     17  N   UNL     1      -5.508  12.802  18.260  0.00  0.00    +0.000 NA
ATOM     18  H   UNL     1      -5.195  12.898  17.294  0.00  0.00    +0.000 HD
ATOM     19  H   UNL     1      -5.459  13.733  18.665  0.00  0.00    +0.000 HD
ENDBRANCH  16  17
ENDBRANCH  10  16
ENDBRANCH   1  13
BRANCH   4  20
ATOM     20  C   UNL     1       3.827   6.423  17.316  0.00  0.00    +0.000 A 
ATOM     21  C   UNL     1       4.732   6.987  16.417  0.00  0.00    +0.000 A 
ATOM     22  C   UNL     1       5.563   6.161  15.673  0.00  0.00    +0.000 A 
ATOM     23  C   UNL     1       5.521   4.793  15.896  0.00  0.00    +0.000 A 
ATOM     24  C   UNL     1       4.624   4.277  16.827  0.00  0.00    +0.000 A 
ATOM     25  N   UNL     1       3.770   5.074  17.503  0.00  0.00    +0.000 NA
BRANCH  24  26
ATOM     26  N   UNL     1       4.656   2.894  17.039  0.00  0.00    +0.000 N 
ATOM     27  H   UNL     1       5.310   2.670  17.781  0.00  0.00    +0.000 HD
BRANCH  26  28
ATOM     28  C   UNL     1       3.395   2.181  17.121  0.00  0.00    +0.000 C 
BRANCH  28  29
ATOM     29  C   UNL     1       2.679   2.303  18.447  0.00  0.00    +0.000 A 
ATOM     30  C   UNL     1       1.329   2.688  18.531  0.00  0.00    +0.000 A 
ATOM     31  C   UNL     1       0.718   2.859  19.780  0.00  0.00    +0.000 A 
ATOM     32  C   UNL     1       1.446   2.641  20.943  0.00  0.00    +0.000 A 
ATOM     33  F   UNL     1       0.861   2.825  22.133  0.00  0.00    +0.000 F 
ATOM     34  C   UNL     1       2.777   2.254  20.873  0.00  0.00    +0.000 A 
ATOM     35  F   UNL     1       3.485   2.045  21.991  0.00  0.00    +0.000 F 
ATOM     36  C   UNL     1       3.395   2.090  19.637  0.00  0.00    +0.000 A 
ENDBRANCH  28  29
ENDBRANCH  26  28
ENDBRANCH  24  26
ENDBRANCH   4  20
TORSDOF 7
ENDMDL
MODEL 2
REMARK VINA RESULT:      -8.6      0.584      1.210
REMARK  Name = 
REMARK  7 active torsions:
REMARK  status: ('A' for Active; 'I' for Inactive)
REMARK    1  A    between atoms: N_1  and  C_2
REMARK    2  A    between atoms: C_2  and  C_3
REMARK    3  A    between atoms: C_6  and  N_7
REMARK    4  A    between atoms: C_10  and  C_11
REMARK    5  A    between atoms: C_15  and  N_16
REMARK    6  A    between atoms: N_16  and  C_17
REMARK    7  A    between atoms: C_17  and  C_18
REMARK                            x       y       z     vdW  Elec       q    Type
REMARK                         _______ _______ _______ _____ _____    ______ ____
ROOT
ATOM      1  N   UNL     1       0.745  10.376  17.879  0.00  0.00    +0.000 N 
ATOM      2  C   UNL     1       1.373   9.272  18.459  0.00  0.00    +0.000 A 
ATOM      3  C   UNL     1       2.325   8.578  17.716  0.00  0.00    +0.000 A 
ATOM      4  C   UNL     1       2.922   7.391  18.200  0.00  0.00    +0.000 A 
ATOM      5  C   UNL     1       2.583   7.018  19.508  0.00  0.00    +0.000 A 
ATOM      6 CL   UNL     1       3.290   5.699  20.369  0.00  0.00    +0.000 Cl
ATOM      7  C   UNL     1       1.635   7.773  20.190  0.00  0.00    +0.000 A 
ATOM      8  N   UNL     1       1.015   8.861  19.685  0.00  0.00    +0.000 NA
ATOM      9  H   UNL     1       1.380  11.157  17.740  0.00  0.00    +0.000 HD
ENDROOT
BRANCH   1  13
ATOM     10  C   UNL     1      -3.339  11.781  18.360  0.00  0.00    +0.000 C 
ATOM     11  C   UNL     1      -2.210  12.410  19.199  0.00  0.00    +0.000 C 
ATOM     12  C   UNL     1      -0.831  12.201  18.564  0.00  0.00    +0.000 C 
ATOM     13  C   UNL     1      -0.586  10.701  18.378  0.00  0.00    +0.000 C 
ATOM     14  C   UNL     1      -1.632  10.148  17.402  0.00  0.00    +0.000 C 
ATOM     15  C   UNL     1      -3.036  10.319  17.983  0.00  0.00    +0.000 C 
BRANCH  10  16
ATOM     16  C   UNL     1      -4.719  11.916  19.037  0.00  0.00    +0.000 C 
BRANCH  16  17
ATOM     17  N   UNL     1      -5.115  13.298  19.300  0.00  0.00    +0.000 NA
ATOM     18  H   UNL     1      -4.947  13.516  20.281  0.00  0.00    +0.000 HD
ATOM     19  H   UNL     1      -6.115  13.408  19.155  0.00  0.00    +0.000 HD
ENDBRANCH  16  17
ENDBRANCH  10  16
ENDBRANCH   1  13
BRANCH   4  20
ATOM     20  C   UNL     1       3.788   6.605  17.286  0.00  0.00    +0.000 A 
ATOM     21  C   UNL     1       4.510   7.184  16.242  0.00  0.00    +0.000 A 
ATOM     22  C   UNL     1       5.368   6.397  15.485  0.00  0.00    +0.000 A 
ATOM     23  C   UNL     1       5.538   5.066  15.833  0.00  0.00    +0.000 A 
ATOM     24  C   UNL     1       4.821   4.539  16.903  0.00  0.00    +0.000 A 
ATOM     25  N   UNL     1       3.937   5.287  17.598  0.00  0.00    +0.000 NA
BRANCH  24  26
ATOM     26  N   UNL     1       5.065   3.202  17.233  0.00  0.00    +0.000 N 
ATOM     27  H   UNL     1       5.746   3.146  17.982  0.00  0.00    +0.000 HD
BRANCH  26  28
ATOM     28  C   UNL     1       3.929   2.314  17.395  0.00  0.00    +0.000 C 
BRANCH  28  29
ATOM     29  C   UNL     1       3.198   2.447  18.711  0.00  0.00    +0.000 A 
ATOM     30  C   UNL     1       3.848   2.270  19.945  0.00  0.00    +0.000 A 
ATOM     31  C   UNL     1       3.125   2.331  21.143  0.00  0.00    +0.000 A 
ATOM     32  C   UNL     1       1.757   2.574  21.113  0.00  0.00    +0.000 A 
ATOM     33  F   UNL     1       1.067   2.611  22.261  0.00  0.00    +0.000 F 
ATOM     34  C   UNL     1       1.104   2.757  19.903  0.00  0.00    +0.000 A 
ATOM     35  F   UNL     1      -0.215   2.989  19.867  0.00  0.00    +0.000 F 
ATOM     36  C   UNL     1       1.814   2.690  18.707  0.00  0.00    +0.000 A 
ENDBRANCH  28  29
ENDBRANCH  26  28
ENDBRANCH  24  26
ENDBRANCH   4  20
TORSDOF 7
ENDMDL
MODEL 3
REMARK VINA RESULT:      -8.5      3.932     10.067
REMARK  Name = 
REMARK  7 active torsions:
REMARK  status: ('A' for Active; 'I' for Inactive)
REMARK    1  A    between atoms: N_1  and  C_2
REMARK    2  A    between atoms: C_2  and  C_3
REMARK    3  A    between atoms: C_6  and  N_7
REMARK    4  A    between atoms: C_10  and  C_11
REMARK    5  A    between atoms: C_15  and  N_16
REMARK    6  A    between atoms: N_16  and  C_17
REMARK    7  A    between atoms: C_17  and  C_18
REMARK                            x       y       z     vdW  Elec       q    Type
REMARK                         _______ _______ _______ _____ _____    ______ ____
ROOT
ATOM      1  N   UNL     1       1.892   6.798  20.852  0.00  0.00    +0.000 N 
ATOM      2  C   UNL     1       1.550   8.024  20.279  0.00  0.00    +0.000 A 
ATOM      3  C   UNL     1       0.760   8.908  21.012  0.00  0.00    +0.000 A 
ATOM      4  C   UNL     1       0.289  10.119  20.454  0.00  0.00    +0.000 A 
ATOM      5  C   UNL     1       0.751  10.427  19.167  0.00  0.00    +0.000 A 
ATOM      6 CL   UNL     1       0.437  11.909  18.338  0.00  0.00    +0.000 Cl
ATOM      7  C   UNL     1       1.549   9.499  18.508  0.00  0.00    +0.000 A 
ATOM      8  N   UNL     1       1.929   8.310  19.023  0.00  0.00    +0.000 NA
ATOM      9  H   UNL     1       2.527   6.900  21.639  0.00  0.00    +0.000 HD
ENDROOT
BRANCH   1  13
ATOM     10  C   UNL     1       3.102   3.052  19.012  0.00  0.00    +0.000 C 
ATOM     11  C   UNL     1       3.836   4.356  18.645  0.00  0.00    +0.000 C 
ATOM     12  C   UNL     1       3.666   5.438  19.717  0.00  0.00    +0.000 C 
ATOM     13  C   UNL     1       2.173   5.706  19.927  0.00  0.00    +0.000 C 
ATOM     14  C   UNL     1       1.512   4.426  20.454  0.00  0.00    +0.000 C 
ATOM     15  C   UNL     1       1.639   3.305  19.422  0.00  0.00    +0.000 C 
BRANCH  10  16
ATOM     16  C   UNL     1       3.200   1.989  17.896  0.00  0.00    +0.000 C 
BRANCH  16  17
ATOM     17  N   UNL     1       4.000   0.823  18.262  0.00  0.00    +0.000 NA
ATOM     18  H   UNL     1       3.929   0.121  17.525  0.00  0.00    +0.000 HD
ATOM     19  H   UNL     1       3.624   0.389  19.100  0.00  0.00    +0.000 HD
ENDBRANCH  16  17
ENDBRANCH  10  16
ENDBRANCH   1  13
BRANCH   4  20
ATOM     20  C   UNL     1      -0.695  10.921  21.223  0.00  0.00    +0.000 A 
ATOM     21  C   UNL     1      -0.850  10.809  22.605  0.00  0.00    +0.000 A 
ATOM     22  C   UNL     1      -1.728  11.658  23.266  0.00  0.00    +0.000 A 
ATOM     23  C   UNL     1      -2.377  12.645  22.541  0.00  0.00    +0.000 A 
ATOM     24  C   UNL     1      -2.167  12.741  21.169  0.00  0.00    +0.000 A 
ATOM     25  N   UNL     1      -1.364  11.874  20.515  0.00  0.00    +0.000 NA
BRANCH  24  26
ATOM     26  N   UNL     1      -2.816  13.783  20.499  0.00  0.00    +0.000 N 
ATOM     27  H   UNL     1      -2.527  13.806  19.527  0.00  0.00    +0.000 HD
BRANCH  26  28
ATOM     28  C   UNL     1      -4.244  13.947  20.699  0.00  0.00    +0.000 C 
BRANCH  28  29
ATOM     29  C   UNL     1      -5.098  12.831  20.143  0.00  0.00    +0.000 A 
ATOM     30  C   UNL     1      -6.167  12.279  20.870  0.00  0.00    +0.000 A 
ATOM     31  C   UNL     1      -6.893  11.198  20.352  0.00  0.00    +0.000 A 
ATOM     32  C   UNL     1      -6.559  10.672  19.110  0.00  0.00    +0.000 A 
ATOM     33  F   UNL     1      -7.245   9.626  18.629  0.00  0.00    +0.000 F 
ATOM     34  C   UNL     1      -5.511  11.212  18.379  0.00  0.00    +0.000 A 
ATOM     35  F   UNL     1      -5.182  10.707  17.183  0.00  0.00    +0.000 F 
ATOM     36  C   UNL     1      -4.779  12.281  18.890  0.00  0.00    +0.000 A 
ENDBRANCH  28  29
ENDBRANCH  26  28
ENDBRANCH  24  26
ENDBRANCH   4  20
TORSDOF 7
ENDMDL
MODEL 4
REMARK VINA RESULT:      -8.1      4.235     10.123
REMARK  Name = 
REMARK  7 active torsions:
REMARK  status: ('A' for Active; 'I' for Inactive)
REMARK    1  A    between atoms: N_1  and  C_2
REMARK    2  A    between atoms: C_2  and  C_3
REMARK    3  A    between atoms: C_6  and  N_7
REMARK    4  A    between atoms: C_10  and  C_11
REMARK    5  A    between atoms: C_15  and  N_16
REMARK    6  A    between atoms: N_16  and  C_17
REMARK    7  A    between atoms: C_17  and  C_18
REMARK                            x       y       z     vdW  Elec       q    Type
REMARK                         _______ _______ _______ _____ _____    ______ ____
ROOT
ATOM      1  N   UNL     1       1.830   7.797  20.769  0.00  0.00    +0.000 N 
ATOM      2  C   UNL     1       1.250   8.940  20.218  0.00  0.00    +0.000 A 
ATOM      3  C   UNL     1       0.779   9.931  21.078  0.00  0.00    +0.000 A 
ATOM      4  C   UNL     1       0.085  11.064  20.593  0.00  0.00    +0.000 A 
ATOM      5  C   UNL     1      -0.002  11.186  19.199  0.00  0.00    +0.000 A 
ATOM      6 CL   UNL     1      -0.665  12.548  18.371  0.00  0.00    +0.000 Cl
ATOM      7  C   UNL     1       0.507  10.161  18.410  0.00  0.00    +0.000 A 
ATOM      8  N   UNL     1       1.098   9.045  18.889  0.00  0.00    +0.000 NA
ATOM      9  H   UNL     1       2.718   7.991  21.225  0.00  0.00    +0.000 HD
ENDROOT
BRANCH   1  13
ATOM     10  C   UNL     1       2.494   3.886  18.995  0.00  0.00    +0.000 C 
ATOM     11  C   UNL     1       2.728   5.156  18.155  0.00  0.00    +0.000 C 
ATOM     12  C   UNL     1       2.964   6.393  19.028  0.00  0.00    +0.000 C 
ATOM     13  C   UNL     1       1.766   6.583  19.963  0.00  0.00    +0.000 C 
ATOM     14  C   UNL     1       1.670   5.370  20.896  0.00  0.00    +0.000 C 
ATOM     15  C   UNL     1       1.425   4.099  20.083  0.00  0.00    +0.000 C 
BRANCH  10  16
ATOM     16  C   UNL     1       2.173   2.655  18.120  0.00  0.00    +0.000 C 
BRANCH  16  17
ATOM     17  N   UNL     1       0.874   2.050  18.406  0.00  0.00    +0.000 NA
ATOM     18  H   UNL     1       0.955   1.450  19.227  0.00  0.00    +0.000 HD
ATOM     19  H   UNL     1       0.595   1.443  17.641  0.00  0.00    +0.000 HD
ENDBRANCH  16  17
ENDBRANCH  10  16
ENDBRANCH   1  13
BRANCH   4  20
ATOM     20  C   UNL     1      -0.546  11.984  21.572  0.00  0.00    +0.000 A 
ATOM     21  C   UNL     1       0.028  13.196  21.955  0.00  0.00    +0.000 A 
ATOM     22  C   UNL     1      -0.666  14.043  22.807  0.00  0.00    +0.000 A 
ATOM     23  C   UNL     1      -1.948  13.693  23.201  0.00  0.00    +0.000 A 
ATOM     24  C   UNL     1      -2.494  12.489  22.769  0.00  0.00    +0.000 A 
ATOM     25  N   UNL     1      -1.794  11.633  21.993  0.00  0.00    +0.000 NA
BRANCH  24  26
ATOM     26  N   UNL     1      -3.807  12.208  23.165  0.00  0.00    +0.000 N 
ATOM     27  H   UNL     1      -3.841  12.036  24.163  0.00  0.00    +0.000 HD
BRANCH  26  28
ATOM     28  C   UNL     1      -4.872  13.060  22.671  0.00  0.00    +0.000 C 
BRANCH  28  29
ATOM     29  C   UNL     1      -5.517  12.594  21.386  0.00  0.00    +0.000 A 
ATOM     30  C   UNL     1      -6.839  12.117  21.346  0.00  0.00    +0.000 A 
ATOM     31  C   UNL     1      -7.380  11.628  20.150  0.00  0.00    +0.000 A 
ATOM     32  C   UNL     1      -6.609  11.619  18.994  0.00  0.00    +0.000 A 
ATOM     33  F   UNL     1      -7.127  11.132  17.859  0.00  0.00    +0.000 F 
ATOM     34  C   UNL     1      -5.306  12.093  19.018  0.00  0.00    +0.000 A 
ATOM     35  F   UNL     1      -4.557  12.085  17.907  0.00  0.00    +0.000 F 
ATOM     36  C   UNL     1      -4.757  12.573  20.204  0.00  0.00    +0.000 A 
ENDBRANCH  28  29
ENDBRANCH  26  28
ENDBRANCH  24  26
ENDBRANCH   4  20
TORSDOF 7
ENDMDL
MODEL 5
REMARK VINA RESULT:      -7.9      3.401      9.373
REMARK  Name = 
REMARK  7 active torsions:
REMARK  status: ('A' for Active; 'I' for Inactive)
REMARK    1  A    between atoms: N_1  and  C_2
REMARK    2  A    between atoms: C_2  and  C_3
REMARK    3  A    between atoms: C_6  and  N_7
REMARK    4  A    between atoms: C_10  and  C_11
REMARK    5  A    between atoms: C_15  and  N_16
REMARK    6  A    between atoms: N_16  and  C_17
REMARK    7  A    between atoms: C_17  and  C_18
REMARK                            x       y       z     vdW  Elec       q    Type
REMARK                         _______ _______ _______ _____ _____    ______ ____
ROOT
ATOM      1  N   UNL     1       1.718   6.821  21.020  0.00  0.00    +0.000 N 
ATOM      2  C   UNL     1       1.510   8.051  20.394  0.00  0.00    +0.000 A 
ATOM      3  C   UNL     1       0.716   9.001  21.033  0.00  0.00    +0.000 A 
ATOM      4  C   UNL     1       0.376  10.224  20.410  0.00  0.00    +0.000 A 
ATOM      5  C   UNL     1       0.972  10.470  19.165  0.00  0.00    +0.000 A 
ATOM      6 CL   UNL     1       0.832  11.947  18.282  0.00  0.00    +0.000 Cl
ATOM      7  C   UNL     1       1.765   9.477  18.601  0.00  0.00    +0.000 A 
ATOM      8  N   UNL     1       2.018   8.280  19.173  0.00  0.00    +0.000 NA
ATOM      9  H   UNL     1       2.284   6.903  21.860  0.00  0.00    +0.000 HD
ENDROOT
BRANCH   1  13
ATOM     10  C   UNL     1       2.890   2.976  19.368  0.00  0.00    +0.000 C 
ATOM     11  C   UNL     1       3.691   4.242  19.003  0.00  0.00    +0.000 C 
ATOM     12  C   UNL     1       3.501   5.363  20.030  0.00  0.00    +0.000 C 
ATOM     13  C   UNL     1       2.010   5.689  20.147  0.00  0.00    +0.000 C 
ATOM     14  C   UNL     1       1.274   4.452  20.675  0.00  0.00    +0.000 C 
ATOM     15  C   UNL     1       1.418   3.294  19.687  0.00  0.00    +0.000 C 
BRANCH  10  16
ATOM     16  C   UNL     1       3.012   1.875  18.294  0.00  0.00    +0.000 C 
BRANCH  16  17
ATOM     17  N   UNL     1       2.451   2.250  16.998  0.00  0.00    +0.000 NA
ATOM     18  H   UNL     1       1.774   3.002  17.128  0.00  0.00    +0.000 HD
ATOM     19  H   UNL     1       1.931   1.471  16.603  0.00  0.00    +0.000 HD
ENDBRANCH  16  17
ENDBRANCH  10  16
ENDBRANCH   1  13
BRANCH   4  20
ATOM     20  C   UNL     1      -0.618  11.107  21.070  0.00  0.00    +0.000 A 
ATOM     21  C   UNL     1      -0.468  11.576  22.375  0.00  0.00    +0.000 A 
ATOM     22  C   UNL     1      -1.396  12.470  22.891  0.00  0.00    +0.000 A 
ATOM     23  C   UNL     1      -2.413  12.929  22.069  0.00  0.00    +0.000 A 
ATOM     24  C   UNL     1      -2.506  12.458  20.763  0.00  0.00    +0.000 A 
ATOM     25  N   UNL     1      -1.642  11.538  20.281  0.00  0.00    +0.000 NA
BRANCH  24  26
ATOM     26  N   UNL     1      -3.527  12.988  19.967  0.00  0.00    +0.000 N 
ATOM     27  H   UNL     1      -3.158  13.714  19.364  0.00  0.00    +0.000 HD
BRANCH  26  28
ATOM     28  C   UNL     1      -4.433  12.067  19.307  0.00  0.00    +0.000 C 
BRANCH  28  29
ATOM     29  C   UNL     1      -3.928  11.506  17.997  0.00  0.00    +0.000 A 
ATOM     30  C   UNL     1      -4.600  11.731  16.782  0.00  0.00    +0.000 A 
ATOM     31  C   UNL     1      -4.142  11.137  15.599  0.00  0.00    +0.000 A 
ATOM     32  C   UNL     1      -3.015  10.325  15.624  0.00  0.00    +0.000 A 
ATOM     33  F   UNL     1      -2.594   9.744  14.492  0.00  0.00    +0.000 F 
ATOM     34  C   UNL     1      -2.339  10.100  16.814  0.00  0.00    +0.000 A 
ATOM     35  F   UNL     1      -1.254   9.315  16.845  0.00  0.00    +0.000 F 
ATOM     36  C   UNL     1      -2.792  10.680  17.996  0.00  0.00    +0.000 A 
ENDBRANCH  28  29
ENDBRANCH  26  28
ENDBRANCH  24  26
ENDBRANCH   4  20
TORSDOF 7
ENDMDL
MODEL 6
REMARK VINA RESULT:      -7.7      4.807     10.968
REMARK  Name = 
REMARK  7 active torsions:
REMARK  status: ('A' for Active; 'I' for Inactive)
REMARK    1  A    between atoms: N_1  and  C_2
REMARK    2  A    between atoms: C_2  and  C_3
REMARK    3  A    between atoms: C_6  and  N_7
REMARK    4  A    between atoms: C_10  and  C_11
REMARK    5  A    between atoms: C_15  and  N_16
REMARK    6  A    between atoms: N_16  and  C_17
REMARK    7  A    between atoms: C_17  and  C_18
REMARK                            x       y       z     vdW  Elec       q    Type
REMARK                         _______ _______ _______ _____ _____    ______ ____
ROOT
ATOM      1  N   UNL     1       1.840   6.770  20.863  0.00  0.00    +0.000 N 
ATOM      2  C   UNL     1       1.562   8.007  20.280  0.00  0.00    +0.000 A 
ATOM      3  C   UNL     1       0.758   8.908  20.974  0.00  0.00    +0.000 A 
ATOM      4  C   UNL     1       0.350  10.134  20.399  0.00  0.00    +0.000 A 
ATOM      5  C   UNL     1       0.889  10.436  19.141  0.00  0.00    +0.000 A 
ATOM      6 CL   UNL     1       0.660  11.930  18.306  0.00  0.00    +0.000 Cl
ATOM      7  C   UNL     1       1.697   9.490  18.520  0.00  0.00    +0.000 A 
ATOM      8  N   UNL     1       2.016   8.289  19.048  0.00  0.00    +0.000 NA
ATOM      9  H   UNL     1       2.434   6.851  21.684  0.00  0.00    +0.000 HD
ENDROOT
BRANCH   1  13
ATOM     10  C   UNL     1       3.071   3.010  19.064  0.00  0.00    +0.000 C 
ATOM     11  C   UNL     1       3.834   4.306  18.725  0.00  0.00    +0.000 C 
ATOM     12  C   UNL     1       3.638   5.389  19.791  0.00  0.00    +0.000 C 
ATOM     13  C   UNL     1       2.142   5.674  19.948  0.00  0.00    +0.000 C 
ATOM     14  C   UNL     1       1.447   4.403  20.450  0.00  0.00    +0.000 C 
ATOM     15  C   UNL     1       1.598   3.281  19.422  0.00  0.00    +0.000 C 
BRANCH  10  16
ATOM     16  C   UNL     1       3.197   1.947  17.952  0.00  0.00    +0.000 C 
BRANCH  16  17
ATOM     17  N   UNL     1       4.034   0.807  18.318  0.00  0.00    +0.000 NA
ATOM     18  H   UNL     1       3.485   0.149  18.871  0.00  0.00    +0.000 HD
ATOM     19  H   UNL     1       4.796   1.110  18.919  0.00  0.00    +0.000 HD
ENDBRANCH  16  17
ENDBRANCH  10  16
ENDBRANCH   1  13
BRANCH   4  20
ATOM     20  C   UNL     1      -0.652  10.959  21.120  0.00  0.00    +0.000 A 
ATOM     21  C   UNL     1      -0.563  11.243  22.482  0.00  0.00    +0.000 A 
ATOM     22  C   UNL     1      -1.489  12.096  23.066  0.00  0.00    +0.000 A 
ATOM     23  C   UNL     1      -2.441  12.702  22.261  0.00  0.00    +0.000 A 
ATOM     24  C   UNL     1      -2.473  12.414  20.900  0.00  0.00    +0.000 A 
ATOM     25  N   UNL     1      -1.614  11.534  20.343  0.00  0.00    +0.000 NA
BRANCH  24  26
ATOM     26  N   UNL     1      -3.429  13.087  20.131  0.00  0.00    +0.000 N 
ATOM     27  H   UNL     1      -3.112  13.166  19.172  0.00  0.00    +0.000 HD
BRANCH  26  28
ATOM     28  C   UNL     1      -4.820  12.699  20.269  0.00  0.00    +0.000 C 
BRANCH  28  29
ATOM     29  C   UNL     1      -5.663  13.635  21.105  0.00  0.00    +0.000 A 
ATOM     30  C   UNL     1      -5.642  15.028  20.913  0.00  0.00    +0.000 A 
ATOM     31  C   UNL     1      -6.382  15.870  21.753  0.00  0.00    +0.000 A 
ATOM     32  C   UNL     1      -7.148  15.327  22.777  0.00  0.00    +0.000 A 
ATOM     33  F   UNL     1      -7.838  16.139  23.589  0.00  0.00    +0.000 F 
ATOM     34  C   UNL     1      -7.182  13.954  22.973  0.00  0.00    +0.000 A 
ATOM     35  F   UNL     1      -7.916  13.424  23.961  0.00  0.00    +0.000 F 
ATOM     36  C   UNL     1      -6.443  13.110  22.148  0.00  0.00    +0.000 A 
ENDBRANCH  28  29
ENDBRANCH  26  28
ENDBRANCH  24  26
ENDBRANCH   4  20
TORSDOF 7
ENDMDL
MODEL 7
REMARK VINA RESULT:      -7.7      2.663      4.356
REMARK  Name = 
REMARK  7 active torsions:
REMARK  status: ('A' for Active; 'I' for Inactive)
REMARK    1  A    between atoms: N_1  and  C_2
REMARK    2  A    between atoms: C_2  and  C_3
REMARK    3  A    between atoms: C_6  and  N_7
REMARK    4  A    between atoms: C_10  and  C_11
REMARK    5  A    between atoms: C_15  and  N_16
REMARK    6  A    between atoms: N_16  and  C_17
REMARK    7  A    between atoms: C_17  and  C_18
REMARK                            x       y       z     vdW  Elec       q    Type
REMARK                         _______ _______ _______ _____ _____    ______ ____
ROOT
ATOM      1  N   UNL     1       1.769   9.150  18.519  0.00  0.00    +0.000 N 
ATOM      2  C   UNL     1       1.901   7.986  19.278  0.00  0.00    +0.000 A 
ATOM      3  C   UNL     1       2.364   6.829  18.655  0.00  0.00    +0.000 A 
ATOM      4  C   UNL     1       2.421   5.592  19.336  0.00  0.00    +0.000 A 
ATOM      5  C   UNL     1       2.091   5.621  20.698  0.00  0.00    +0.000 A 
ATOM      6 CL   UNL     1       2.228   4.275  21.772  0.00  0.00    +0.000 Cl
ATOM      7  C   UNL     1       1.653   6.819  21.250  0.00  0.00    +0.000 A 
ATOM      8  N   UNL     1       1.529   7.978  20.568  0.00  0.00    +0.000 NA
ATOM      9  H   UNL     1       2.666   9.525  18.222  0.00  0.00    +0.000 HD
ENDROOT
BRANCH   1  13
ATOM     10  C   UNL     1      -1.121  12.379  18.848  0.00  0.00    +0.000 C 
ATOM     11  C   UNL     1       0.210  12.462  19.621  0.00  0.00    +0.000 C 
ATOM     12  C   UNL     1       1.290  11.561  19.013  0.00  0.00    +0.000 C 
ATOM     13  C   UNL     1       0.780  10.118  18.980  0.00  0.00    +0.000 C 
ATOM     14  C   UNL     1      -0.448  10.048  18.064  0.00  0.00    +0.000 C 
ATOM     15  C   UNL     1      -1.570  10.923  18.622  0.00  0.00    +0.000 C 
BRANCH  10  16
ATOM     16  C   UNL     1      -2.235  13.219  19.506  0.00  0.00    +0.000 C 
BRANCH  16  17
ATOM     17  N   UNL     1      -1.885  13.730  20.830  0.00  0.00    +0.000 NA
ATOM     18  H   UNL     1      -1.659  12.948  21.444  0.00  0.00    +0.000 HD
ATOM     19  H   UNL     1      -2.687  14.192  21.249  0.00  0.00    +0.000 HD
ENDBRANCH  16  17
ENDBRANCH  10  16
ENDBRANCH   1  13
BRANCH   4  20
ATOM     20  C   UNL     1       2.748   4.368  18.563  0.00  0.00    +0.000 A 
ATOM     21  C   UNL     1       1.817   3.363  18.303  0.00  0.00    +0.000 A 
ATOM     22  C   UNL     1       2.174   2.291  17.495  0.00  0.00    +0.000 A 
ATOM     23  C   UNL     1       3.430   2.284  16.910  0.00  0.00    +0.000 A 
ATOM     24  C   UNL     1       4.316   3.324  17.172  0.00  0.00    +0.000 A 
ATOM     25  N   UNL     1       3.993   4.333  18.009  0.00  0.00    +0.000 NA
BRANCH  24  26
ATOM     26  N   UNL     1       5.553   3.284  16.520  0.00  0.00    +0.000 N 
ATOM     27  H   UNL     1       5.617   2.452  15.944  0.00  0.00    +0.000 HD
BRANCH  26  28
ATOM     28  C   UNL     1       6.032   4.492  15.876  0.00  0.00    +0.000 C 
BRANCH  28  29
ATOM     29  C   UNL     1       6.726   5.472  16.795  0.00  0.00    +0.000 A 
ATOM     30  C   UNL     1       6.801   6.845  16.499  0.00  0.00    +0.000 A 
ATOM     31  C   UNL     1       7.512   7.712  17.338  0.00  0.00    +0.000 A 
ATOM     32  C   UNL     1       8.143   7.216  18.472  0.00  0.00    +0.000 A 
ATOM     33  F   UNL     1       8.838   8.048  19.260  0.00  0.00    +0.000 F 
ATOM     34  C   UNL     1       8.071   5.865  18.779  0.00  0.00    +0.000 A 
ATOM     35  F   UNL     1       8.679   5.380  19.870  0.00  0.00    +0.000 F 
ATOM     36  C   UNL     1       7.373   4.994  17.946  0.00  0.00    +0.000 A 
ENDBRANCH  28  29
ENDBRANCH  26  28
ENDBRANCH  24  26
ENDBRANCH   4  20
TORSDOF 7
ENDMDL
MODEL 8
REMARK VINA RESULT:      -7.6      5.375     11.003
REMARK  Name = 
REMARK  7 active torsions:
REMARK  status: ('A' for Active; 'I' for Inactive)
REMARK    1  A    between atoms: N_1  and  C_2
REMARK    2  A    between atoms: C_2  and  C_3
REMARK    3  A    between atoms: C_6  and  N_7
REMARK    4  A    between atoms: C_10  and  C_11
REMARK    5  A    between atoms: C_15  and  N_16
REMARK    6  A    between atoms: N_16  and  C_17
REMARK    7  A    between atoms: C_17  and  C_18
REMARK                            x       y       z     vdW  Elec       q    Type
REMARK                         _______ _______ _______ _____ _____    ______ ____
ROOT
ATOM      1  N   UNL     1       2.309   7.499  20.549  0.00  0.00    +0.000 N 
ATOM      2  C   UNL     1       1.609   8.565  19.983  0.00  0.00    +0.000 A 
ATOM      3  C   UNL     1       1.119   9.564  20.822  0.00  0.00    +0.000 A 
ATOM      4  C   UNL     1       0.311  10.615  20.330  0.00  0.00    +0.000 A 
ATOM      5  C   UNL     1       0.126  10.654  18.941  0.00  0.00    +0.000 A 
ATOM      6 CL   UNL     1      -0.691  11.916  18.093  0.00  0.00    +0.000 Cl
ATOM      7  C   UNL     1       0.661   9.627  18.171  0.00  0.00    +0.000 A 
ATOM      8  N   UNL     1       1.366   8.586  18.664  0.00  0.00    +0.000 NA
ATOM      9  H   UNL     1       3.207   7.782  20.933  0.00  0.00    +0.000 HD
ENDROOT
BRANCH   1  13
ATOM     10  C   UNL     1       2.661   3.356  19.284  0.00  0.00    +0.000 C 
ATOM     11  C   UNL     1       3.526   4.438  18.608  0.00  0.00    +0.000 C 
ATOM     12  C   UNL     1       3.676   5.688  19.481  0.00  0.00    +0.000 C 
ATOM     13  C   UNL     1       2.287   6.241  19.810  0.00  0.00    +0.000 C 
ATOM     14  C   UNL     1       1.520   5.196  20.629  0.00  0.00    +0.000 C 
ATOM     15  C   UNL     1       1.328   3.922  19.807  0.00  0.00    +0.000 C 
BRANCH  10  16
ATOM     16  C   UNL     1       2.438   2.130  18.374  0.00  0.00    +0.000 C 
BRANCH  16  17
ATOM     17  N   UNL     1       3.648   1.351  18.125  0.00  0.00    +0.000 NA
ATOM     18  H   UNL     1       3.801   0.707  18.901  0.00  0.00    +0.000 HD
ATOM     19  H   UNL     1       4.459   1.962  18.104  0.00  0.00    +0.000 HD
ENDBRANCH  16  17
ENDBRANCH  10  16
ENDBRANCH   1  13
BRANCH   4  20
ATOM     20  C   UNL     1      -0.326  11.538  21.303  0.00  0.00    +0.000 A 
ATOM     21  C   UNL     1      -1.171  11.100  22.322  0.00  0.00    +0.000 A 
ATOM     22  C   UNL     1      -1.657  12.013  23.248  0.00  0.00    +0.000 A 
ATOM     23  C   UNL     1      -1.231  13.330  23.176  0.00  0.00    +0.000 A 
ATOM     24  C   UNL     1      -0.361  13.716  22.161  0.00  0.00    +0.000 A 
ATOM     25  N   UNL     1       0.060  12.842  21.221  0.00  0.00    +0.000 NA
BRANCH  24  26
ATOM     26  N   UNL     1       0.067  15.048  22.164  0.00  0.00    +0.000 N 
ATOM     27  H   UNL     1       0.222  15.362  23.115  0.00  0.00    +0.000 HD
BRANCH  26  28
ATOM     28  C   UNL     1       1.106  15.439  21.230  0.00  0.00    +0.000 C 
BRANCH  28  29
ATOM     29  C   UNL     1       0.619  16.195  20.015  0.00  0.00    +0.000 A 
ATOM     30  C   UNL     1       1.492  16.593  18.987  0.00  0.00    +0.000 A 
ATOM     31  C   UNL     1       1.019  17.353  17.910  0.00  0.00    +0.000 A 
ATOM     32  C   UNL     1      -0.323  17.711  17.852  0.00  0.00    +0.000 A 
ATOM     33  F   UNL     1      -0.765  18.454  16.830  0.00  0.00    +0.000 F 
ATOM     34  C   UNL     1      -1.196  17.319  18.857  0.00  0.00    +0.000 A 
ATOM     35  F   UNL     1      -2.490  17.664  18.809  0.00  0.00    +0.000 F 
ATOM     36  C   UNL     1      -0.732  16.571  19.935  0.00  0.00    +0.000 A 
ENDBRANCH  28  29
ENDBRANCH  26  28
ENDBRANCH  24  26
ENDBRANCH   4  20
TORSDOF 7
ENDMDL
MODEL 9
REMARK VINA RESULT:      -7.6      2.799      4.545
REMARK  Name = 
REMARK  7 active torsions:
REMARK  status: ('A' for Active; 'I' for Inactive)
REMARK    1  A    between atoms: N_1  and  C_2
REMARK    2  A    between atoms: C_2  and  C_3
REMARK    3  A    between atoms: C_6  and  N_7
REMARK    4  A    between atoms: C_10  and  C_11
REMARK    5  A    between atoms: C_15  and  N_16
REMARK    6  A    between atoms: N_16  and  C_17
REMARK    7  A    between atoms: C_17  and  C_18
REMARK                            x       y       z     vdW  Elec       q    Type
REMARK                         _______ _______ _______ _____ _____    ______ ____
ROOT
ATOM      1  N   UNL     1       1.862   9.311  17.797  0.00  0.00    +0.000 N 
ATOM      2  C   UNL     1       1.949   8.245  18.693  0.00  0.00    +0.000 A 
ATOM      3  C   UNL     1       2.406   7.014  18.225  0.00  0.00    +0.000 A 
ATOM      4  C   UNL     1       2.419   5.866  19.050  0.00  0.00    +0.000 A 
ATOM      5  C   UNL     1       2.050   6.062  20.388  0.00  0.00    +0.000 A 
ATOM      6 CL   UNL     1       2.129   4.852  21.617  0.00  0.00    +0.000 Cl
ATOM      7  C   UNL     1       1.620   7.325  20.780  0.00  0.00    +0.000 A 
ATOM      8  N   UNL     1       1.539   8.396  19.962  0.00  0.00    +0.000 NA
ATOM      9  H   UNL     1       2.774   9.634  17.486  0.00  0.00    +0.000 HD
ENDROOT
BRANCH   1  13
ATOM     10  C   UNL     1      -1.047  11.906  19.719  0.00  0.00    +0.000 C 
ATOM     11  C   UNL     1      -1.490  10.979  18.570  0.00  0.00    +0.000 C 
ATOM     12  C   UNL     1      -0.529   9.802  18.371  0.00  0.00    +0.000 C 
ATOM     13  C   UNL     1       0.879  10.343  18.109  0.00  0.00    +0.000 C 
ATOM     14  C   UNL     1       1.349  11.118  19.346  0.00  0.00    +0.000 C 
ATOM     15  C   UNL     1       0.432  12.316  19.595  0.00  0.00    +0.000 C 
BRANCH  10  16
ATOM     16  C   UNL     1      -1.966  13.137  19.867  0.00  0.00    +0.000 C 
BRANCH  16  17
ATOM     17  N   UNL     1      -3.365  12.872  19.542  0.00  0.00    +0.000 NA
ATOM     18  H   UNL     1      -3.416  12.372  18.655  0.00  0.00    +0.000 HD
ATOM     19  H   UNL     1      -3.863  13.746  19.400  0.00  0.00    +0.000 HD
ENDBRANCH  16  17
ENDBRANCH  10  16
ENDBRANCH   1  13
BRANCH   4  20
ATOM     20  C   UNL     1       2.744   4.554  18.437  0.00  0.00    +0.000 A 
ATOM     21  C   UNL     1       1.820   3.514  18.336  0.00  0.00    +0.000 A 
ATOM     22  C   UNL     1       2.172   2.348  17.670  0.00  0.00    +0.000 A 
ATOM     23  C   UNL     1       3.414   2.276  17.058  0.00  0.00    +0.000 A 
ATOM     24  C   UNL     1       4.292   3.350  17.158  0.00  0.00    +0.000 A 
ATOM     25  N   UNL     1       3.976   4.458  17.862  0.00  0.00    +0.000 NA
BRANCH  24  26
ATOM     26  N   UNL     1       5.514   3.236  16.486  0.00  0.00    +0.000 N 
ATOM     27  H   UNL     1       5.507   2.421  15.884  0.00  0.00    +0.000 HD
BRANCH  26  28
ATOM     28  C   UNL     1       6.076   4.425  15.873  0.00  0.00    +0.000 C 
BRANCH  28  29
ATOM     29  C   UNL     1       6.857   5.317  16.810  0.00  0.00    +0.000 A 
ATOM     30  C   UNL     1       7.508   4.812  17.950  0.00  0.00    +0.000 A 
ATOM     31  C   UNL     1       8.163   5.679  18.834  0.00  0.00    +0.000 A 
ATOM     32  C   UNL     1       8.175   7.046  18.582  0.00  0.00    +0.000 A 
ATOM     33  F   UNL     1       8.787   7.871  19.441  0.00  0.00    +0.000 F 
ATOM     34  C   UNL     1       7.543   7.556  17.457  0.00  0.00    +0.000 A 
ATOM     35  F   UNL     1       7.549   8.873  17.210  0.00  0.00    +0.000 F 
ATOM     36  C   UNL     1       6.882   6.702  16.578  0.00  0.00    +0.000 A 
ENDBRANCH  28  29
ENDBRANCH  26  28
ENDBRANCH  24  26
ENDBRANCH   4  20
TORSDOF 7
ENDMDL
