MODEL 1
REMARK VINA RESULT:      -8.4      0.000      0.000
REMARK  Name = 
REMARK  10 active torsions:
REMARK  status: ('A' for Active; 'I' for Inactive)
REMARK    1  A    between atoms: C_1  and  O_2
REMARK    2  A    between atoms: O_2  and  C_3
REMARK    3  A    between atoms: C_6  and  C_7
REMARK    4  A    between atoms: C_8  and  C_9
REMARK    5  A    between atoms: C_9  and  C_11
REMARK    6  A    between atoms: C_11  and  C_12
REMARK    7  A    between atoms: C_12  and  C_14
REMARK    8  A    between atoms: C_15  and  C_16
REMARK    9  A    between atoms: C_19  and  O_20
REMARK   10  A    between atoms: C_21  and  O_22
REMARK                            x       y       z     vdW  Elec       q    Type
REMARK                         _______ _______ _______ _____ _____    ______ ____
ROOT
ATOM      1  C   UNL     1       7.342   5.312  18.297  0.00  0.00    +0.000 C 
ATOM      2  O   UNL     1       7.934   4.530  17.556  0.00  0.00    +0.000 OA
ENDROOT
BRANCH   1   3
ATOM      3  C   UNL     1       5.992   4.995  18.843  0.00  0.00    +0.000 C 
ATOM      4  C   UNL     1       5.211   4.112  18.203  0.00  0.00    +0.000 C 
BRANCH   4   5
ATOM      5  C   UNL     1       3.845   3.748  18.613  0.00  0.00    +0.000 A 
ATOM      6  C   UNL     1       2.778   4.018  17.737  0.00  0.00    +0.000 A 
ATOM      7  C   UNL     1       1.453   3.748  18.106  0.00  0.00    +0.000 A 
ATOM      8  C   UNL     1       1.198   3.215  19.363  0.00  0.00    +0.000 A 
ATOM      9  C   UNL     1       2.248   2.960  20.239  0.00  0.00    +0.000 A 
ATOM     10  C   UNL     1       3.563   3.222  19.880  0.00  0.00    +0.000 A 
BRANCH   8  11
ATOM     11  O   UNL     1      -0.069   2.932  19.786  0.00  0.00    +0.000 OA
ATOM     12  H   UNL     1      -0.637   3.693  19.575  0.00  0.00    +0.000 HD
ENDBRANCH   8  11
BRANCH   9  13
ATOM     13  O   UNL     1       1.989   2.456  21.483  0.00  0.00    +0.000 OA
ATOM     14  H   UNL     1       1.222   2.971  21.802  0.00  0.00    +0.000 HD
ENDBRANCH   9  13
ENDBRANCH   4   5
ENDBRANCH   1   3
BRANCH   1  15
ATOM     15  C   UNL     1       7.941   6.643  18.652  0.00  0.00    +0.000 C 
BRANCH  15  16
ATOM     16  C   UNL     1       7.627   7.738  17.667  0.00  0.00    +0.000 C 
ATOM     17  O   UNL     1       6.939   7.507  16.674  0.00  0.00    +0.000 OA
BRANCH  16  19
ATOM     18  C   UNL     1       9.012   9.299  18.949  0.00  0.00    +0.000 C 
ATOM     19  C   UNL     1       8.124   9.114  17.962  0.00  0.00    +0.000 C 
BRANCH  18  23
ATOM     20  C   UNL     1      10.587  13.135  20.065  0.00  0.00    +0.000 A 
ATOM     21  C   UNL     1      10.779  12.617  18.786  0.00  0.00    +0.000 A 
ATOM     22  C   UNL     1      10.249  11.370  18.437  0.00  0.00    +0.000 A 
ATOM     23  C   UNL     1       9.545  10.604  19.374  0.00  0.00    +0.000 A 
ATOM     24  C   UNL     1       9.357  11.130  20.658  0.00  0.00    +0.000 A 
ATOM     25  C   UNL     1       9.880  12.385  21.004  0.00  0.00    +0.000 A 
BRANCH  20  27
ATOM     26  C   UNL     1      10.571  15.130  21.330  0.00  0.00    +0.000 C 
ATOM     27  O   UNL     1      11.159  14.355  20.293  0.00  0.00    +0.000 OA
ENDBRANCH  20  27
ENDBRANCH  18  23
ENDBRANCH  16  19
ENDBRANCH  15  16
ENDBRANCH   1  15
TORSDOF 9
ENDMDL
MODEL 2
REMARK VINA RESULT:      -8.4      1.065      1.479
REMARK  Name = 
REMARK  10 active torsions:
REMARK  status: ('A' for Active; 'I' for Inactive)
REMARK    1  A    between atoms: C_1  and  O_2
REMARK    2  A    between atoms: O_2  and  C_3
REMARK    3  A    between atoms: C_6  and  C_7
REMARK    4  A    between atoms: C_8  and  C_9
REMARK    5  A    between atoms: C_9  and  C_11
REMARK    6  A    between atoms: C_11  and  C_12
REMARK    7  A    between atoms: C_12  and  C_14
REMARK    8  A    between atoms: C_15  and  C_16
REMARK    9  A    between atoms: C_19  and  O_20
REMARK   10  A    between atoms: C_21  and  O_22
REMARK                            x       y       z     vdW  Elec       q    Type
REMARK                         _______ _______ _______ _____ _____    ______ ____
ROOT
ATOM      1  C   UNL     1       7.600   5.308  18.539  0.00  0.00    +0.000 C 
ATOM      2  O   UNL     1       8.260   4.479  17.915  0.00  0.00    +0.000 OA
ENDROOT
BRANCH   1   3
ATOM      3  C   UNL     1       6.275   4.963  19.128  0.00  0.00    +0.000 C 
ATOM      4  C   UNL     1       5.305   4.483  18.336  0.00  0.00    +0.000 C 
BRANCH   4   5
ATOM      5  C   UNL     1       3.944   4.148  18.786  0.00  0.00    +0.000 A 
ATOM      6  C   UNL     1       3.291   5.016  19.679  0.00  0.00    +0.000 A 
ATOM      7  C   UNL     1       2.020   4.711  20.186  0.00  0.00    +0.000 A 
ATOM      8  C   UNL     1       1.409   3.525  19.802  0.00  0.00    +0.000 A 
ATOM      9  C   UNL     1       2.056   2.656  18.930  0.00  0.00    +0.000 A 
ATOM     10  C   UNL     1       3.313   2.952  18.422  0.00  0.00    +0.000 A 
BRANCH   8  11
ATOM     11  O   UNL     1       0.173   3.166  20.261  0.00  0.00    +0.000 OA
ATOM     12  H   UNL     1       0.158   3.293  21.225  0.00  0.00    +0.000 HD
ENDBRANCH   8  11
BRANCH   9  13
ATOM     13  O   UNL     1       1.458   1.480  18.573  0.00  0.00    +0.000 OA
ATOM     14  H   UNL     1       2.193   0.836  18.518  0.00  0.00    +0.000 HD
ENDBRANCH   9  13
ENDBRANCH   4   5
ENDBRANCH   1   3
BRANCH   1  15
ATOM     15  C   UNL     1       8.086   6.721  18.698  0.00  0.00    +0.000 C 
BRANCH  15  16
ATOM     16  C   UNL     1       7.623   7.654  17.611  0.00  0.00    +0.000 C 
ATOM     17  O   UNL     1       6.924   7.240  16.687  0.00  0.00    +0.000 OA
BRANCH  16  19
ATOM     18  C   UNL     1       8.903   9.482  18.620  0.00  0.00    +0.000 C 
ATOM     19  C   UNL     1       7.988   9.097  17.718  0.00  0.00    +0.000 C 
BRANCH  18  23
ATOM     20  C   UNL     1      10.192  13.500  19.419  0.00  0.00    +0.000 A 
ATOM     21  C   UNL     1      10.429  12.469  20.325  0.00  0.00    +0.000 A 
ATOM     22  C   UNL     1      10.012  11.164  20.043  0.00  0.00    +0.000 A 
ATOM     23  C   UNL     1       9.319  10.873  18.862  0.00  0.00    +0.000 A 
ATOM     24  C   UNL     1       9.082  11.914  17.956  0.00  0.00    +0.000 A 
ATOM     25  C   UNL     1       9.510  13.221  18.234  0.00  0.00    +0.000 A 
BRANCH  20  27
ATOM     26  C   UNL     1      12.033  14.958  19.672  0.00  0.00    +0.000 C 
ATOM     27  O   UNL     1      10.635  14.733  19.807  0.00  0.00    +0.000 OA
ENDBRANCH  20  27
ENDBRANCH  18  23
ENDBRANCH  16  19
ENDBRANCH  15  16
ENDBRANCH   1  15
TORSDOF 9
ENDMDL
MODEL 3
REMARK VINA RESULT:      -8.3      5.461      7.796
REMARK  Name = 
REMARK  10 active torsions:
REMARK  status: ('A' for Active; 'I' for Inactive)
REMARK    1  A    between atoms: C_1  and  O_2
REMARK    2  A    between atoms: O_2  and  C_3
REMARK    3  A    between atoms: C_6  and  C_7
REMARK    4  A    between atoms: C_8  and  C_9
REMARK    5  A    between atoms: C_9  and  C_11
REMARK    6  A    between atoms: C_11  and  C_12
REMARK    7  A    between atoms: C_12  and  C_14
REMARK    8  A    between atoms: C_15  and  C_16
REMARK    9  A    between atoms: C_19  and  O_20
REMARK   10  A    between atoms: C_21  and  O_22
REMARK                            x       y       z     vdW  Elec       q    Type
REMARK                         _______ _______ _______ _____ _____    ______ ____
ROOT
ATOM      1  C   UNL     1       2.043   3.267  21.173  0.00  0.00    +0.000 C 
ATOM      2  O   UNL     1       1.723   3.007  22.332  0.00  0.00    +0.000 OA
ENDROOT
BRANCH   1   3
ATOM      3  C   UNL     1       1.612   4.531  20.513  0.00  0.00    +0.000 C 
ATOM      4  C   UNL     1       2.524   5.473  20.231  0.00  0.00    +0.000 C 
BRANCH   4   5
ATOM      5  C   UNL     1       2.221   6.780  19.624  0.00  0.00    +0.000 A 
ATOM      6  C   UNL     1       2.643   7.030  18.305  0.00  0.00    +0.000 A 
ATOM      7  C   UNL     1       2.434   8.279  17.705  0.00  0.00    +0.000 A 
ATOM      8  C   UNL     1       1.809   9.282  18.433  0.00  0.00    +0.000 A 
ATOM      9  C   UNL     1       1.402   9.045  19.742  0.00  0.00    +0.000 A 
ATOM     10  C   UNL     1       1.603   7.810  20.343  0.00  0.00    +0.000 A 
BRANCH   8  11
ATOM     11  O   UNL     1       1.578  10.522  17.908  0.00  0.00    +0.000 OA
ATOM     12  H   UNL     1       2.425  10.881  17.592  0.00  0.00    +0.000 HD
ENDBRANCH   8  11
BRANCH   9  13
ATOM     13  O   UNL     1       0.807  10.043  20.461  0.00  0.00    +0.000 OA
ATOM     14  H   UNL     1       0.637   9.646  21.339  0.00  0.00    +0.000 HD
ENDBRANCH   9  13
ENDBRANCH   4   5
ENDBRANCH   1   3
BRANCH   1  15
ATOM     15  C   UNL     1       2.852   2.297  20.360  0.00  0.00    +0.000 C 
BRANCH  15  16
ATOM     16  C   UNL     1       2.428   2.205  18.918  0.00  0.00    +0.000 C 
ATOM     17  O   UNL     1       1.277   1.885  18.622  0.00  0.00    +0.000 OA
BRANCH  16  19
ATOM     18  C   UNL     1       4.239   3.615  18.063  0.00  0.00    +0.000 C 
ATOM     19  C   UNL     1       3.423   2.569  17.867  0.00  0.00    +0.000 C 
BRANCH  18  23
ATOM     20  C   UNL     1       7.034   5.075  15.147  0.00  0.00    +0.000 A 
ATOM     21  C   UNL     1       5.742   4.697  14.787  0.00  0.00    +0.000 A 
ATOM     22  C   UNL     1       4.841   4.234  15.752  0.00  0.00    +0.000 A 
ATOM     23  C   UNL     1       5.229   4.109  17.092  0.00  0.00    +0.000 A 
ATOM     24  C   UNL     1       6.529   4.491  17.447  0.00  0.00    +0.000 A 
ATOM     25  C   UNL     1       7.428   4.965  16.480  0.00  0.00    +0.000 A 
BRANCH  20  27
ATOM     26  C   UNL     1       7.524   4.955  12.840  0.00  0.00    +0.000 C 
ATOM     27  O   UNL     1       7.825   5.501  14.118  0.00  0.00    +0.000 OA
ENDBRANCH  20  27
ENDBRANCH  18  23
ENDBRANCH  16  19
ENDBRANCH  15  16
ENDBRANCH   1  15
TORSDOF 9
ENDMDL
MODEL 4
REMARK VINA RESULT:      -8.2      5.325      7.922
REMARK  Name = 
REMARK  10 active torsions:
REMARK  status: ('A' for Active; 'I' for Inactive)
REMARK    1  A    between atoms: C_1  and  O_2
REMARK    2  A    between atoms: O_2  and  C_3
REMARK    3  A    between atoms: C_6  and  C_7
REMARK    4  A    between atoms: C_8  and  C_9
REMARK    5  A    between atoms: C_9  and  C_11
REMARK    6  A    between atoms: C_11  and  C_12
REMARK    7  A    between atoms: C_12  and  C_14
REMARK    8  A    between atoms: C_15  and  C_16
REMARK    9  A    between atoms: C_19  and  O_20
REMARK   10  A    between atoms: C_21  and  O_22
REMARK                            x       y       z     vdW  Elec       q    Type
REMARK                         _______ _______ _______ _____ _____    ______ ____
ROOT
ATOM      1  C   UNL     1       2.857   2.241  19.230  0.00  0.00    +0.000 C 
ATOM      2  O   UNL     1       1.809   1.641  18.998  0.00  0.00    +0.000 OA
ENDROOT
BRANCH   1   3
ATOM      3  C   UNL     1       3.845   2.524  18.151  0.00  0.00    +0.000 C 
ATOM      4  C   UNL     1       4.364   3.755  18.037  0.00  0.00    +0.000 C 
BRANCH   4   5
ATOM      5  C   UNL     1       5.312   4.172  16.990  0.00  0.00    +0.000 A 
ATOM      6  C   UNL     1       6.151   5.275  17.234  0.00  0.00    +0.000 A 
ATOM      7  C   UNL     1       7.025   5.750  16.247  0.00  0.00    +0.000 A 
ATOM      8  C   UNL     1       7.050   5.122  15.009  0.00  0.00    +0.000 A 
ATOM      9  C   UNL     1       6.213   4.041  14.757  0.00  0.00    +0.000 A 
ATOM     10  C   UNL     1       5.345   3.562  15.730  0.00  0.00    +0.000 A 
BRANCH   8  11
ATOM     11  O   UNL     1       7.876   5.536  14.003  0.00  0.00    +0.000 OA
ATOM     12  H   UNL     1       8.758   5.699  14.381  0.00  0.00    +0.000 HD
ENDBRANCH   8  11
BRANCH   9  13
ATOM     13  O   UNL     1       6.226   3.441  13.529  0.00  0.00    +0.000 OA
ATOM     14  H   UNL     1       6.985   2.826  13.564  0.00  0.00    +0.000 HD
ENDBRANCH   9  13
ENDBRANCH   4   5
ENDBRANCH   1   3
BRANCH   1  15
ATOM     15  C   UNL     1       3.202   2.681  20.624  0.00  0.00    +0.000 C 
BRANCH  15  16
ATOM     16  C   UNL     1       2.049   3.291  21.377  0.00  0.00    +0.000 C 
ATOM     17  O   UNL     1       1.552   2.709  22.340  0.00  0.00    +0.000 OA
BRANCH  16  19
ATOM     18  C   UNL     1       2.387   5.448  20.267  0.00  0.00    +0.000 C 
ATOM     19  C   UNL     1       1.569   4.640  20.957  0.00  0.00    +0.000 C 
BRANCH  18  23
ATOM     20  C   UNL     1       1.407   9.471  19.128  0.00  0.00    +0.000 A 
ATOM     21  C   UNL     1       1.091   8.978  20.393  0.00  0.00    +0.000 A 
ATOM     22  C   UNL     1       1.428   7.669  20.750  0.00  0.00    +0.000 A 
ATOM     23  C   UNL     1       2.058   6.816  19.835  0.00  0.00    +0.000 A 
ATOM     24  C   UNL     1       2.372   7.318  18.566  0.00  0.00    +0.000 A 
ATOM     25  C   UNL     1       2.043   8.635  18.211  0.00  0.00    +0.000 A 
BRANCH  20  27
ATOM     26  C   UNL     1      -0.350  10.941  18.551  0.00  0.00    +0.000 C 
ATOM     27  O   UNL     1       1.019  10.760  18.890  0.00  0.00    +0.000 OA
ENDBRANCH  20  27
ENDBRANCH  18  23
ENDBRANCH  16  19
ENDBRANCH  15  16
ENDBRANCH   1  15
TORSDOF 9
ENDMDL
MODEL 5
REMARK VINA RESULT:      -8.2      1.144      1.240
REMARK  Name = 
REMARK  10 active torsions:
REMARK  status: ('A' for Active; 'I' for Inactive)
REMARK    1  A    between atoms: C_1  and  O_2
REMARK    2  A    between atoms: O_2  and  C_3
REMARK    3  A    between atoms: C_6  and  C_7
REMARK    4  A    between atoms: C_8  and  C_9
REMARK    5  A    between atoms: C_9  and  C_11
REMARK    6  A    between atoms: C_11  and  C_12
REMARK    7  A    between atoms: C_12  and  C_14
REMARK    8  A    between atoms: C_15  and  C_16
REMARK    9  A    between atoms: C_19  and  O_20
REMARK   10  A    between atoms: C_21  and  O_22
REMARK                            x       y       z     vdW  Elec       q    Type
REMARK                         _______ _______ _______ _____ _____    ______ ____
ROOT
ATOM      1  C   UNL     1       7.145   5.587  19.051  0.00  0.00    +0.000 C 
ATOM      2  O   UNL     1       7.520   5.591  20.222  0.00  0.00    +0.000 OA
ENDROOT
BRANCH   1   3
ATOM      3  C   UNL     1       5.926   4.840  18.628  0.00  0.00    +0.000 C 
ATOM      4  C   UNL     1       4.965   4.581  19.527  0.00  0.00    +0.000 C 
BRANCH   4   5
ATOM      5  C   UNL     1       3.738   3.816  19.246  0.00  0.00    +0.000 A 
ATOM      6  C   UNL     1       3.620   3.152  18.011  0.00  0.00    +0.000 A 
ATOM      7  C   UNL     1       2.448   2.463  17.671  0.00  0.00    +0.000 A 
ATOM      8  C   UNL     1       1.389   2.449  18.569  0.00  0.00    +0.000 A 
ATOM      9  C   UNL     1       1.495   3.116  19.785  0.00  0.00    +0.000 A 
ATOM     10  C   UNL     1       2.654   3.799  20.131  0.00  0.00    +0.000 A 
BRANCH   8  11
ATOM     11  O   UNL     1       0.218   1.799  18.298  0.00  0.00    +0.000 OA
ATOM     12  H   UNL     1       0.061   1.843  17.339  0.00  0.00    +0.000 HD
ENDBRANCH   8  11
BRANCH   9  13
ATOM     13  O   UNL     1       0.442   3.117  20.655  0.00  0.00    +0.000 OA
ATOM     14  H   UNL     1      -0.347   3.004  20.087  0.00  0.00    +0.000 HD
ENDBRANCH   9  13
ENDBRANCH   4   5
ENDBRANCH   1   3
BRANCH   1  15
ATOM     15  C   UNL     1       7.925   6.306  17.988  0.00  0.00    +0.000 C 
BRANCH  15  16
ATOM     16  C   UNL     1       7.181   7.449  17.350  0.00  0.00    +0.000 C 
ATOM     17  O   UNL     1       6.240   7.236  16.587  0.00  0.00    +0.000 OA
BRANCH  16  19
ATOM     18  C   UNL     1       8.685   9.040  18.449  0.00  0.00    +0.000 C 
ATOM     19  C   UNL     1       7.580   8.840  17.715  0.00  0.00    +0.000 C 
BRANCH  18  23
ATOM     20  C   UNL     1      10.043  12.916  19.704  0.00  0.00    +0.000 A 
ATOM     21  C   UNL     1       9.741  12.651  18.370  0.00  0.00    +0.000 A 
ATOM     22  C   UNL     1       9.289  11.385  17.981  0.00  0.00    +0.000 A 
ATOM     23  C   UNL     1       9.164  10.351  18.917  0.00  0.00    +0.000 A 
ATOM     24  C   UNL     1       9.470  10.624  20.256  0.00  0.00    +0.000 A 
ATOM     25  C   UNL     1       9.913  11.897  20.647  0.00  0.00    +0.000 A 
BRANCH  20  27
ATOM     26  C   UNL     1      11.834  14.453  19.600  0.00  0.00    +0.000 C 
ATOM     27  O   UNL     1      10.485  14.183  19.961  0.00  0.00    +0.000 OA
ENDBRANCH  20  27
ENDBRANCH  18  23
ENDBRANCH  16  19
ENDBRANCH  15  16
ENDBRANCH   1  15
TORSDOF 9
ENDMDL
MODEL 6
REMARK VINA RESULT:      -8.1      3.544      7.309
REMARK  Name = 
REMARK  10 active torsions:
REMARK  status: ('A' for Active; 'I' for Inactive)
REMARK    1  A    between atoms: C_1  and  O_2
REMARK    2  A    between atoms: O_2  and  C_3
REMARK    3  A    between atoms: C_6  and  C_7
REMARK    4  A    between atoms: C_8  and  C_9
REMARK    5  A    between atoms: C_9  and  C_11
REMARK    6  A    between atoms: C_11  and  C_12
REMARK    7  A    between atoms: C_12  and  C_14
REMARK    8  A    between atoms: C_15  and  C_16
REMARK    9  A    between atoms: C_19  and  O_20
REMARK   10  A    between atoms: C_21  and  O_22
REMARK                            x       y       z     vdW  Elec       q    Type
REMARK                         _______ _______ _______ _____ _____    ______ ____
ROOT
ATOM      1  C   UNL     1       1.549   3.251  21.045  0.00  0.00    +0.000 C 
ATOM      2  O   UNL     1       1.605   3.006  22.249  0.00  0.00    +0.000 OA
ENDROOT
BRANCH   1   3
ATOM      3  C   UNL     1       1.190   4.608  20.544  0.00  0.00    +0.000 C 
ATOM      4  C   UNL     1       2.074   5.610  20.661  0.00  0.00    +0.000 C 
BRANCH   4   5
ATOM      5  C   UNL     1       1.825   7.001  20.248  0.00  0.00    +0.000 A 
ATOM      6  C   UNL     1       1.145   7.860  21.131  0.00  0.00    +0.000 A 
ATOM      7  C   UNL     1       0.828   9.174  20.760  0.00  0.00    +0.000 A 
ATOM      8  C   UNL     1       1.185   9.623  19.496  0.00  0.00    +0.000 A 
ATOM      9  C   UNL     1       1.845   8.774  18.613  0.00  0.00    +0.000 A 
ATOM     10  C   UNL     1       2.165   7.472  18.974  0.00  0.00    +0.000 A 
BRANCH   8  11
ATOM     11  O   UNL     1       0.904  10.890  19.071  0.00  0.00    +0.000 OA
ATOM     12  H   UNL     1       1.682  11.232  18.597  0.00  0.00    +0.000 HD
ENDBRANCH   8  11
BRANCH   9  13
ATOM     13  O   UNL     1       2.175   9.215  17.363  0.00  0.00    +0.000 OA
ATOM     14  H   UNL     1       2.964   9.775  17.499  0.00  0.00    +0.000 HD
ENDBRANCH   9  13
ENDBRANCH   4   5
ENDBRANCH   1   3
BRANCH   1  15
ATOM     15  C   UNL     1       1.802   2.177  20.026  0.00  0.00    +0.000 C 
BRANCH  15  16
ATOM     16  C   UNL     1       1.544   2.607  18.607  0.00  0.00    +0.000 C 
ATOM     17  O   UNL     1       0.555   2.198  17.998  0.00  0.00    +0.000 OA
BRANCH  16  19
ATOM     18  C   UNL     1       3.772   3.593  18.359  0.00  0.00    +0.000 C 
ATOM     19  C   UNL     1       2.484   3.584  17.984  0.00  0.00    +0.000 C 
BRANCH  18  23
ATOM     20  C   UNL     1       6.814   6.309  17.013  0.00  0.00    +0.000 A 
ATOM     21  C   UNL     1       6.772   5.865  18.333  0.00  0.00    +0.000 A 
ATOM     22  C   UNL     1       5.780   4.971  18.751  0.00  0.00    +0.000 A 
ATOM     23  C   UNL     1       4.791   4.532  17.862  0.00  0.00    +0.000 A 
ATOM     24  C   UNL     1       4.839   4.983  16.537  0.00  0.00    +0.000 A 
ATOM     25  C   UNL     1       5.840   5.871  16.116  0.00  0.00    +0.000 A 
BRANCH  20  27
ATOM     26  C   UNL     1       7.909   8.326  17.571  0.00  0.00    +0.000 C 
ATOM     27  O   UNL     1       7.821   7.187  16.725  0.00  0.00    +0.000 OA
ENDBRANCH  20  27
ENDBRANCH  18  23
ENDBRANCH  16  19
ENDBRANCH  15  16
ENDBRANCH   1  15
TORSDOF 9
ENDMDL
MODEL 7
REMARK VINA RESULT:      -8.1      4.807      5.819
REMARK  Name = 
REMARK  10 active torsions:
REMARK  status: ('A' for Active; 'I' for Inactive)
REMARK    1  A    between atoms: C_1  and  O_2
REMARK    2  A    between atoms: O_2  and  C_3
REMARK    3  A    between atoms: C_6  and  C_7
REMARK    4  A    between atoms: C_8  and  C_9
REMARK    5  A    between atoms: C_9  and  C_11
REMARK    6  A    between atoms: C_11  and  C_12
REMARK    7  A    between atoms: C_12  and  C_14
REMARK    8  A    between atoms: C_15  and  C_16
REMARK    9  A    between atoms: C_19  and  O_20
REMARK   10  A    between atoms: C_21  and  O_22
REMARK                            x       y       z     vdW  Elec       q    Type
REMARK                         _______ _______ _______ _____ _____    ______ ____
ROOT
ATOM      1  C   UNL     1       7.227   4.938  17.453  0.00  0.00    +0.000 C 
ATOM      2  O   UNL     1       8.153   4.158  17.233  0.00  0.00    +0.000 OA
ENDROOT
BRANCH   1   3
ATOM      3  C   UNL     1       6.104   4.575  18.362  0.00  0.00    +0.000 C 
ATOM      4  C   UNL     1       5.036   3.932  17.868  0.00  0.00    +0.000 C 
BRANCH   4   5
ATOM      5  C   UNL     1       3.845   3.559  18.650  0.00  0.00    +0.000 A 
ATOM      6  C   UNL     1       2.572   3.742  18.078  0.00  0.00    +0.000 A 
ATOM      7  C   UNL     1       1.407   3.461  18.804  0.00  0.00    +0.000 A 
ATOM      8  C   UNL     1       1.519   3.006  20.110  0.00  0.00    +0.000 A 
ATOM      9  C   UNL     1       2.775   2.837  20.686  0.00  0.00    +0.000 A 
ATOM     10  C   UNL     1       3.934   3.110  19.972  0.00  0.00    +0.000 A 
BRANCH   8  11
ATOM     11  O   UNL     1       0.424   2.717  20.874  0.00  0.00    +0.000 OA
ATOM     12  H   UNL     1      -0.343   3.177  20.492  0.00  0.00    +0.000 HD
ENDBRANCH   8  11
BRANCH   9  13
ATOM     13  O   UNL     1       2.878   2.409  21.979  0.00  0.00    +0.000 OA
ATOM     14  H   UNL     1       2.388   3.077  22.500  0.00  0.00    +0.000 HD
ENDBRANCH   9  13
ENDBRANCH   4   5
ENDBRANCH   1   3
BRANCH   1  15
ATOM     15  C   UNL     1       7.172   6.279  16.778  0.00  0.00    +0.000 C 
BRANCH  15  16
ATOM     16  C   UNL     1       5.789   6.692  16.350  0.00  0.00    +0.000 C 
ATOM     17  O   UNL     1       5.355   6.374  15.244  0.00  0.00    +0.000 OA
BRANCH  16  19
ATOM     18  C   UNL     1       3.640   7.154  17.430  0.00  0.00    +0.000 C 
ATOM     19  C   UNL     1       4.945   7.443  17.325  0.00  0.00    +0.000 C 
BRANCH  18  23
ATOM     20  C   UNL     1       0.822   9.245  19.906  0.00  0.00    +0.000 A 
ATOM     21  C   UNL     1       1.162   9.715  18.639  0.00  0.00    +0.000 A 
ATOM     22  C   UNL     1       2.074   9.014  17.842  0.00  0.00    +0.000 A 
ATOM     23  C   UNL     1       2.688   7.847  18.313  0.00  0.00    +0.000 A 
ATOM     24  C   UNL     1       2.342   7.381  19.588  0.00  0.00    +0.000 A 
ATOM     25  C   UNL     1       1.420   8.078  20.382  0.00  0.00    +0.000 A 
BRANCH  20  27
ATOM     26  C   UNL     1       0.128  10.084  22.003  0.00  0.00    +0.000 C 
ATOM     27  O   UNL     1      -0.070  10.018  20.596  0.00  0.00    +0.000 OA
ENDBRANCH  20  27
ENDBRANCH  18  23
ENDBRANCH  16  19
ENDBRANCH  15  16
ENDBRANCH   1  15
TORSDOF 9
ENDMDL
MODEL 8
REMARK VINA RESULT:      -8.0      1.534      2.384
REMARK  Name = 
REMARK  10 active torsions:
REMARK  status: ('A' for Active; 'I' for Inactive)
REMARK    1  A    between atoms: C_1  and  O_2
REMARK    2  A    between atoms: O_2  and  C_3
REMARK    3  A    between atoms: C_6  and  C_7
REMARK    4  A    between atoms: C_8  and  C_9
REMARK    5  A    between atoms: C_9  and  C_11
REMARK    6  A    between atoms: C_11  and  C_12
REMARK    7  A    between atoms: C_12  and  C_14
REMARK    8  A    between atoms: C_15  and  C_16
REMARK    9  A    between atoms: C_19  and  O_20
REMARK   10  A    between atoms: C_21  and  O_22
REMARK                            x       y       z     vdW  Elec       q    Type
REMARK                         _______ _______ _______ _____ _____    ______ ____
ROOT
ATOM      1  C   UNL     1       5.641   6.148  16.153  0.00  0.00    +0.000 C 
ATOM      2  O   UNL     1       5.218   6.997  15.371  0.00  0.00    +0.000 OA
ENDROOT
BRANCH   1   3
ATOM      3  C   UNL     1       4.714   5.265  16.917  0.00  0.00    +0.000 C 
ATOM      4  C   UNL     1       3.863   5.807  17.801  0.00  0.00    +0.000 C 
BRANCH   4   5
ATOM      5  C   UNL     1       2.932   5.043  18.648  0.00  0.00    +0.000 A 
ATOM      6  C   UNL     1       2.936   5.269  20.036  0.00  0.00    +0.000 A 
ATOM      7  C   UNL     1       2.114   4.523  20.891  0.00  0.00    +0.000 A 
ATOM      8  C   UNL     1       1.294   3.540  20.352  0.00  0.00    +0.000 A 
ATOM      9  C   UNL     1       1.298   3.303  18.982  0.00  0.00    +0.000 A 
ATOM     10  C   UNL     1       2.107   4.039  18.127  0.00  0.00    +0.000 A 
BRANCH   8  11
ATOM     11  O   UNL     1       0.472   2.776  21.130  0.00  0.00    +0.000 OA
ATOM     12  H   UNL     1       0.357   1.913  20.694  0.00  0.00    +0.000 HD
ENDBRANCH   8  11
BRANCH   9  13
ATOM     13  O   UNL     1       0.505   2.319  18.460  0.00  0.00    +0.000 OA
ATOM     14  H   UNL     1      -0.353   2.427  18.915  0.00  0.00    +0.000 HD
ENDBRANCH   9  13
ENDBRANCH   4   5
ENDBRANCH   1   3
BRANCH   1  15
ATOM     15  C   UNL     1       7.114   5.992  16.401  0.00  0.00    +0.000 C 
BRANCH  15  16
ATOM     16  C   UNL     1       7.493   5.998  17.859  0.00  0.00    +0.000 C 
ATOM     17  O   UNL     1       7.349   4.988  18.547  0.00  0.00    +0.000 OA
BRANCH  16  19
ATOM     18  C   UNL     1       7.889   8.414  17.813  0.00  0.00    +0.000 C 
ATOM     19  C   UNL     1       8.099   7.239  18.424  0.00  0.00    +0.000 C 
BRANCH  18  23
ATOM     20  C   UNL     1       9.486  12.230  18.968  0.00  0.00    +0.000 A 
ATOM     21  C   UNL     1       8.697  12.090  17.828  0.00  0.00    +0.000 A 
ATOM     22  C   UNL     1       8.176  10.841  17.473  0.00  0.00    +0.000 A 
ATOM     23  C   UNL     1       8.464   9.702  18.236  0.00  0.00    +0.000 A 
ATOM     24  C   UNL     1       9.259   9.850  19.379  0.00  0.00    +0.000 A 
ATOM     25  C   UNL     1       9.772  11.105  19.740  0.00  0.00    +0.000 A 
BRANCH  20  27
ATOM     26  C   UNL     1      10.998  13.940  18.359  0.00  0.00    +0.000 C 
ATOM     27  O   UNL     1       9.947  13.494  19.207  0.00  0.00    +0.000 OA
ENDBRANCH  20  27
ENDBRANCH  18  23
ENDBRANCH  16  19
ENDBRANCH  15  16
ENDBRANCH   1  15
TORSDOF 9
ENDMDL
MODEL 9
REMARK VINA RESULT:      -8.0      1.515      2.108
REMARK  Name = 
REMARK  10 active torsions:
REMARK  status: ('A' for Active; 'I' for Inactive)
REMARK    1  A    between atoms: C_1  and  O_2
REMARK    2  A    between atoms: O_2  and  C_3
REMARK    3  A    between atoms: C_6  and  C_7
REMARK    4  A    between atoms: C_8  and  C_9
REMARK    5  A    between atoms: C_9  and  C_11
REMARK    6  A    between atoms: C_11  and  C_12
REMARK    7  A    between atoms: C_12  and  C_14
REMARK    8  A    between atoms: C_15  and  C_16
REMARK    9  A    between atoms: C_19  and  O_20
REMARK   10  A    between atoms: C_21  and  O_22
REMARK                            x       y       z     vdW  Elec       q    Type
REMARK                         _______ _______ _______ _____ _____    ______ ____
ROOT
ATOM      1  C   UNL     1       5.778   6.530  16.507  0.00  0.00    +0.000 C 
ATOM      2  O   UNL     1       5.294   7.061  15.509  0.00  0.00    +0.000 OA
ENDROOT
BRANCH   1   3
ATOM      3  C   UNL     1       4.915   5.984  17.593  0.00  0.00    +0.000 C 
ATOM      4  C   UNL     1       3.966   5.085  17.293  0.00  0.00    +0.000 C 
BRANCH   4   5
ATOM      5  C   UNL     1       3.022   4.505  18.263  0.00  0.00    +0.000 A 
ATOM      6  C   UNL     1       2.962   5.049  19.559  0.00  0.00    +0.000 A 
ATOM      7  C   UNL     1       2.126   4.494  20.537  0.00  0.00    +0.000 A 
ATOM      8  C   UNL     1       1.357   3.383  20.217  0.00  0.00    +0.000 A 
ATOM      9  C   UNL     1       1.424   2.832  18.941  0.00  0.00    +0.000 A 
ATOM     10  C   UNL     1       2.248   3.378  17.965  0.00  0.00    +0.000 A 
BRANCH   8  11
ATOM     11  O   UNL     1       0.525   2.792  21.124  0.00  0.00    +0.000 OA
ATOM     12  H   UNL     1       0.568   1.828  20.993  0.00  0.00    +0.000 HD
ENDBRANCH   8  11
BRANCH   9  13
ATOM     13  O   UNL     1       0.682   1.726  18.638  0.00  0.00    +0.000 OA
ATOM     14  H   UNL     1      -0.034   1.719  19.304  0.00  0.00    +0.000 HD
ENDBRANCH   9  13
ENDBRANCH   4   5
ENDBRANCH   1   3
BRANCH   1  15
ATOM     15  C   UNL     1       7.266   6.446  16.692  0.00  0.00    +0.000 C 
BRANCH  15  16
ATOM     16  C   UNL     1       7.770   7.142  17.928  0.00  0.00    +0.000 C 
ATOM     17  O   UNL     1       8.000   6.506  18.956  0.00  0.00    +0.000 OA
BRANCH  16  19
ATOM     18  C   UNL     1       8.843   9.182  18.756  0.00  0.00    +0.000 C 
ATOM     19  C   UNL     1       8.035   8.609  17.852  0.00  0.00    +0.000 C 
BRANCH  18  23
ATOM     20  C   UNL     1       9.825  13.353  19.046  0.00  0.00    +0.000 A 
ATOM     21  C   UNL     1      10.192  12.451  20.043  0.00  0.00    +0.000 A 
ATOM     22  C   UNL     1       9.873  11.094  19.926  0.00  0.00    +0.000 A 
ATOM     23  C   UNL     1       9.150  10.620  18.824  0.00  0.00    +0.000 A 
ATOM     24  C   UNL     1       8.783  11.532  17.827  0.00  0.00    +0.000 A 
ATOM     25  C   UNL     1       9.113  12.891  17.940  0.00  0.00    +0.000 A 
BRANCH  20  27
ATOM     26  C   UNL     1       9.106  15.563  19.471  0.00  0.00    +0.000 C 
ATOM     27  O   UNL     1      10.181  14.652  19.275  0.00  0.00    +0.000 OA
ENDBRANCH  20  27
ENDBRANCH  18  23
ENDBRANCH  16  19
ENDBRANCH  15  16
ENDBRANCH   1  15
TORSDOF 9
ENDMDL
