MODEL 1
REMARK VINA RESULT:      -7.9      0.000      0.000
REMARK  Name = 
REMARK  9 active torsions:
REMARK  status: ('A' for Active; 'I' for Inactive)
REMARK    1  A    between atoms: C_1  and  C_2
REMARK    2  A    between atoms: C_2  and  O_3
REMARK    3  A    between atoms: O_3  and  C_4
REMARK    4  A    between atoms: C_9  and  C_10
REMARK    5  A    between atoms: N_12  and  C_13
REMARK    6  A    between atoms: C_17  and  N_18
REMARK    7  A    between atoms: C_19  and  C_21
REMARK    8  A    between atoms: C_26  and  O_27
REMARK    9  A    between atoms: O_27  and  C_28
REMARK                            x       y       z     vdW  Elec       q    Type
REMARK                         _______ _______ _______ _____ _____    ______ ____
ROOT
ATOM      1  C   UNL     1       3.848   4.187  19.276  0.00  0.00    +0.000 A 
ATOM      2  C   UNL     1       3.555   2.988  19.935  0.00  0.00    +0.000 A 
ATOM      3  C   UNL     1       2.662   2.944  21.004  0.00  0.00    +0.000 A 
ATOM      4  C   UNL     1       2.022   4.102  21.421  0.00  0.00    +0.000 A 
ATOM      5  C   UNL     1       2.266   5.311  20.772  0.00  0.00    +0.000 A 
ATOM      6  C   UNL     1       3.187   5.352  19.701  0.00  0.00    +0.000 A 
ENDROOT
BRANCH   1   9
ATOM      7  C   UNL     1       4.440   4.126  16.856  0.00  0.00    +0.000 C 
ATOM      8  O   UNL     1       3.315   3.824  16.454  0.00  0.00    +0.000 OA
ATOM      9  N   UNL     1       4.777   4.243  18.200  0.00  0.00    +0.000 N 
ATOM     10  H   UNL     1       5.768   4.328  18.417  0.00  0.00    +0.000 HD
BRANCH   7  16
ATOM     11  C   UNL     1       6.713   5.003  15.954  0.00  0.00    +0.000 A 
ATOM     12  C   UNL     1       7.603   5.061  14.861  0.00  0.00    +0.000 A 
ATOM     13  C   UNL     1       7.256   4.547  13.610  0.00  0.00    +0.000 A 
ATOM     14  C   UNL     1       6.028   3.934  13.439  0.00  0.00    +0.000 A 
ATOM     15  C   UNL     1       5.164   3.816  14.524  0.00  0.00    +0.000 A 
ATOM     16  C   UNL     1       5.490   4.331  15.799  0.00  0.00    +0.000 A 
BRANCH  11  17
ATOM     17  O   UNL     1       7.007   5.577  17.166  0.00  0.00    +0.000 OA
BRANCH  17  19
ATOM     18  C   UNL     1       7.985   7.510  18.185  0.00  0.00    +0.000 C 
ATOM     19  C   UNL     1       6.965   7.011  17.181  0.00  0.00    +0.000 C 
ENDBRANCH  17  19
ENDBRANCH  11  17
ENDBRANCH   7  16
ENDBRANCH   1   9
BRANCH   5  20
ATOM     20  N   UNL     1       1.650   6.512  21.200  0.00  0.00    +0.000 N 
ATOM     21  C   UNL     1       1.602   7.713  20.486  0.00  0.00    +0.000 C 
ATOM     22  O   UNL     1       2.225   7.950  19.460  0.00  0.00    +0.000 OA
ATOM     23  H   UNL     1       1.233   6.480  22.118  0.00  0.00    +0.000 HD
BRANCH  21  24
ATOM     24  C   UNL     1       0.761   8.790  21.093  0.00  0.00    +0.000 A 
ATOM     25  C   UNL     1       0.579   8.741  22.493  0.00  0.00    +0.000 A 
ATOM     26  C   UNL     1      -0.184   9.696  23.164  0.00  0.00    +0.000 A 
ATOM     27  C   UNL     1      -0.754  10.741  22.452  0.00  0.00    +0.000 A 
ATOM     28  C   UNL     1      -0.534  10.838  21.079  0.00  0.00    +0.000 A 
ATOM     29  C   UNL     1       0.217   9.875  20.380  0.00  0.00    +0.000 A 
BRANCH  29  30
ATOM     30  O   UNL     1       0.376  10.229  19.068  0.00  0.00    +0.000 OA
ATOM     31  C   UNL     1       0.958  11.484  18.755  0.00  0.00    +0.000 C 
ENDBRANCH  29  30
ENDBRANCH  21  24
ENDBRANCH   5  20
TORSDOF 7
ENDMDL
MODEL 2
REMARK VINA RESULT:      -7.9      3.515     10.038
REMARK  Name = 
REMARK  9 active torsions:
REMARK  status: ('A' for Active; 'I' for Inactive)
REMARK    1  A    between atoms: C_1  and  C_2
REMARK    2  A    between atoms: C_2  and  O_3
REMARK    3  A    between atoms: O_3  and  C_4
REMARK    4  A    between atoms: C_9  and  C_10
REMARK    5  A    between atoms: N_12  and  C_13
REMARK    6  A    between atoms: C_17  and  N_18
REMARK    7  A    between atoms: C_19  and  C_21
REMARK    8  A    between atoms: C_26  and  O_27
REMARK    9  A    between atoms: O_27  and  C_28
REMARK                            x       y       z     vdW  Elec       q    Type
REMARK                         _______ _______ _______ _____ _____    ______ ____
ROOT
ATOM      1  C   UNL     1      -0.243  11.349  18.806  0.00  0.00    +0.000 A 
ATOM      2  C   UNL     1       0.611  12.455  18.733  0.00  0.00    +0.000 A 
ATOM      3  C   UNL     1       1.954  12.316  18.392  0.00  0.00    +0.000 A 
ATOM      4  C   UNL     1       2.468  11.064  18.089  0.00  0.00    +0.000 A 
ATOM      5  C   UNL     1       1.642   9.941  18.121  0.00  0.00    +0.000 A 
ATOM      6  C   UNL     1       0.285  10.086  18.487  0.00  0.00    +0.000 A 
ENDROOT
BRANCH   1   9
ATOM      7  C   UNL     1      -2.666  11.605  18.282  0.00  0.00    +0.000 C 
ATOM      8  O   UNL     1      -2.522  11.754  17.066  0.00  0.00    +0.000 OA
ATOM      9  N   UNL     1      -1.610  11.480  19.177  0.00  0.00    +0.000 N 
ATOM     10  H   UNL     1      -1.841  11.535  20.167  0.00  0.00    +0.000 HD
BRANCH   7  16
ATOM     11  C   UNL     1      -4.564  12.277  19.923  0.00  0.00    +0.000 A 
ATOM     12  C   UNL     1      -5.940  12.205  20.226  0.00  0.00    +0.000 A 
ATOM     13  C   UNL     1      -6.811  11.412  19.476  0.00  0.00    +0.000 A 
ATOM     14  C   UNL     1      -6.328  10.705  18.389  0.00  0.00    +0.000 A 
ATOM     15  C   UNL     1      -4.984  10.814  18.043  0.00  0.00    +0.000 A 
ATOM     16  C   UNL     1      -4.082  11.607  18.787  0.00  0.00    +0.000 A 
BRANCH  11  17
ATOM     17  O   UNL     1      -3.682  12.986  20.700  0.00  0.00    +0.000 OA
BRANCH  17  19
ATOM     18  C   UNL     1      -2.832  12.319  22.837  0.00  0.00    +0.000 C 
ATOM     19  C   UNL     1      -3.978  12.986  22.104  0.00  0.00    +0.000 C 
ENDBRANCH  17  19
ENDBRANCH  11  17
ENDBRANCH   7  16
ENDBRANCH   1   9
BRANCH   5  20
ATOM     20  N   UNL     1       2.150   8.648  17.848  0.00  0.00    +0.000 N 
ATOM     21  C   UNL     1       2.284   7.605  18.769  0.00  0.00    +0.000 C 
ATOM     22  O   UNL     1       2.135   7.707  19.979  0.00  0.00    +0.000 OA
ATOM     23  H   UNL     1       2.457   8.496  16.899  0.00  0.00    +0.000 HD
BRANCH  21  24
ATOM     24  C   UNL     1       2.706   6.290  18.195  0.00  0.00    +0.000 A 
ATOM     25  C   UNL     1       1.742   5.257  18.195  0.00  0.00    +0.000 A 
ATOM     26  C   UNL     1       2.026   3.992  17.682  0.00  0.00    +0.000 A 
ATOM     27  C   UNL     1       3.272   3.743  17.125  0.00  0.00    +0.000 A 
ATOM     28  C   UNL     1       4.214   4.769  17.062  0.00  0.00    +0.000 A 
ATOM     29  C   UNL     1       3.954   6.047  17.591  0.00  0.00    +0.000 A 
BRANCH  29  30
ATOM     30  O   UNL     1       4.983   6.909  17.330  0.00  0.00    +0.000 OA
ATOM     31  C   UNL     1       6.224   6.389  16.879  0.00  0.00    +0.000 C 
ENDBRANCH  29  30
ENDBRANCH  21  24
ENDBRANCH   5  20
TORSDOF 7
ENDMDL
MODEL 3
REMARK VINA RESULT:      -7.8      3.487      5.950
REMARK  Name = 
REMARK  9 active torsions:
REMARK  status: ('A' for Active; 'I' for Inactive)
REMARK    1  A    between atoms: C_1  and  C_2
REMARK    2  A    between atoms: C_2  and  O_3
REMARK    3  A    between atoms: O_3  and  C_4
REMARK    4  A    between atoms: C_9  and  C_10
REMARK    5  A    between atoms: N_12  and  C_13
REMARK    6  A    between atoms: C_17  and  N_18
REMARK    7  A    between atoms: C_19  and  C_21
REMARK    8  A    between atoms: C_26  and  O_27
REMARK    9  A    between atoms: O_27  and  C_28
REMARK                            x       y       z     vdW  Elec       q    Type
REMARK                         _______ _______ _______ _____ _____    ______ ____
ROOT
ATOM      1  C   UNL     1       1.528   9.493  18.025  0.00  0.00    +0.000 A 
ATOM      2  C   UNL     1       2.449  10.546  18.049  0.00  0.00    +0.000 A 
ATOM      3  C   UNL     1       2.055  11.851  18.332  0.00  0.00    +0.000 A 
ATOM      4  C   UNL     1       0.728  12.128  18.626  0.00  0.00    +0.000 A 
ATOM      5  C   UNL     1      -0.215  11.102  18.642  0.00  0.00    +0.000 A 
ATOM      6  C   UNL     1       0.187   9.782  18.334  0.00  0.00    +0.000 A 
ENDROOT
BRANCH   1   9
ATOM      7  C   UNL     1       2.259   7.194  18.651  0.00  0.00    +0.000 C 
ATOM      8  O   UNL     1       2.393   7.423  19.855  0.00  0.00    +0.000 OA
ATOM      9  N   UNL     1       1.918   8.161  17.712  0.00  0.00    +0.000 N 
ATOM     10  H   UNL     1       2.004   7.898  16.733  0.00  0.00    +0.000 HD
BRANCH   7  16
ATOM     11  C   UNL     1       3.638   5.335  17.472  0.00  0.00    +0.000 A 
ATOM     12  C   UNL     1       3.755   3.960  17.181  0.00  0.00    +0.000 A 
ATOM     13  C   UNL     1       2.753   3.053  17.532  0.00  0.00    +0.000 A 
ATOM     14  C   UNL     1       1.632   3.500  18.210  0.00  0.00    +0.000 A 
ATOM     15  C   UNL     1       1.532   4.845  18.555  0.00  0.00    +0.000 A 
ATOM     16  C   UNL     1       2.531   5.783  18.210  0.00  0.00    +0.000 A 
BRANCH  11  17
ATOM     17  O   UNL     1       4.576   6.251  17.060  0.00  0.00    +0.000 OA
BRANCH  17  19
ATOM     18  C   UNL     1       5.842   5.621  15.128  0.00  0.00    +0.000 C 
ATOM     19  C   UNL     1       5.827   5.687  16.642  0.00  0.00    +0.000 C 
ENDBRANCH  17  19
ENDBRANCH  11  17
ENDBRANCH   7  16
ENDBRANCH   1   9
BRANCH   5  20
ATOM     20  N   UNL     1      -1.582  11.364  18.906  0.00  0.00    +0.000 N 
ATOM     21  C   UNL     1      -2.596  11.483  17.952  0.00  0.00    +0.000 C 
ATOM     22  O   UNL     1      -2.425  11.542  16.742  0.00  0.00    +0.000 OA
ATOM     23  H   UNL     1      -1.816  11.494  19.878  0.00  0.00    +0.000 HD
BRANCH  21  24
ATOM     24  C   UNL     1      -3.982  11.611  18.499  0.00  0.00    +0.000 A 
ATOM     25  C   UNL     1      -5.009  10.952  17.788  0.00  0.00    +0.000 A 
ATOM     26  C   UNL     1      -6.338  11.002  18.211  0.00  0.00    +0.000 A 
ATOM     27  C   UNL     1      -6.661  11.685  19.373  0.00  0.00    +0.000 A 
ATOM     28  C   UNL     1      -5.651  12.290  20.119  0.00  0.00    +0.000 A 
ATOM     29  C   UNL     1      -4.307  12.268  19.701  0.00  0.00    +0.000 A 
BRANCH  29  30
ATOM     30  O   UNL     1      -3.489  12.841  20.636  0.00  0.00    +0.000 OA
ATOM     31  C   UNL     1      -3.872  12.812  22.001  0.00  0.00    +0.000 C 
ENDBRANCH  29  30
ENDBRANCH  21  24
ENDBRANCH   5  20
TORSDOF 7
ENDMDL
MODEL 4
REMARK VINA RESULT:      -7.8      3.666      6.700
REMARK  Name = 
REMARK  9 active torsions:
REMARK  status: ('A' for Active; 'I' for Inactive)
REMARK    1  A    between atoms: C_1  and  C_2
REMARK    2  A    between atoms: C_2  and  O_3
REMARK    3  A    between atoms: O_3  and  C_4
REMARK    4  A    between atoms: C_9  and  C_10
REMARK    5  A    between atoms: N_12  and  C_13
REMARK    6  A    between atoms: C_17  and  N_18
REMARK    7  A    between atoms: C_19  and  C_21
REMARK    8  A    between atoms: C_26  and  O_27
REMARK    9  A    between atoms: O_27  and  C_28
REMARK                            x       y       z     vdW  Elec       q    Type
REMARK                         _______ _______ _______ _____ _____    ______ ____
ROOT
ATOM      1  C   UNL     1       1.154  10.207  18.776  0.00  0.00    +0.000 A 
ATOM      2  C   UNL     1       1.971  11.329  18.592  0.00  0.00    +0.000 A 
ATOM      3  C   UNL     1       1.443  12.618  18.574  0.00  0.00    +0.000 A 
ATOM      4  C   UNL     1       0.084  12.814  18.768  0.00  0.00    +0.000 A 
ATOM      5  C   UNL     1      -0.759  11.725  18.985  0.00  0.00    +0.000 A 
ATOM      6  C   UNL     1      -0.220  10.418  18.982  0.00  0.00    +0.000 A 
ENDROOT
BRANCH   1   9
ATOM      7  C   UNL     1       1.819   8.083  19.898  0.00  0.00    +0.000 C 
ATOM      8  O   UNL     1       1.623   8.476  21.050  0.00  0.00    +0.000 OA
ATOM      9  N   UNL     1       1.682   8.886  18.771  0.00  0.00    +0.000 N 
ATOM     10  H   UNL     1       2.033   8.507  17.894  0.00  0.00    +0.000 HD
BRANCH   7  16
ATOM     11  C   UNL     1       3.171   6.157  18.797  0.00  0.00    +0.000 A 
ATOM     12  C   UNL     1       3.517   4.791  18.834  0.00  0.00    +0.000 A 
ATOM     13  C   UNL     1       2.917   3.911  19.737  0.00  0.00    +0.000 A 
ATOM     14  C   UNL     1       1.986   4.388  20.642  0.00  0.00    +0.000 A 
ATOM     15  C   UNL     1       1.679   5.746  20.656  0.00  0.00    +0.000 A 
ATOM     16  C   UNL     1       2.270   6.656  19.751  0.00  0.00    +0.000 A 
BRANCH  11  17
ATOM     17  O   UNL     1       3.691   7.017  17.861  0.00  0.00    +0.000 OA
BRANCH  17  19
ATOM     18  C   UNL     1       5.978   6.946  17.157  0.00  0.00    +0.000 C 
ATOM     19  C   UNL     1       4.581   6.412  16.913  0.00  0.00    +0.000 C 
ENDBRANCH  17  19
ENDBRANCH  11  17
ENDBRANCH   7  16
ENDBRANCH   1   9
BRANCH   5  20
ATOM     20  N   UNL     1      -2.154  11.897  19.152  0.00  0.00    +0.000 N 
ATOM     21  C   UNL     1      -3.137  11.639  18.192  0.00  0.00    +0.000 C 
ATOM     22  O   UNL     1      -2.923  11.384  17.014  0.00  0.00    +0.000 OA
ATOM     23  H   UNL     1      -2.439  12.261  20.048  0.00  0.00    +0.000 HD
BRANCH  21  24
ATOM     24  C   UNL     1      -4.549  11.758  18.668  0.00  0.00    +0.000 A 
ATOM     25  C   UNL     1      -5.522  11.015  17.964  0.00  0.00    +0.000 A 
ATOM     26  C   UNL     1      -6.869  11.049  18.324  0.00  0.00    +0.000 A 
ATOM     27  C   UNL     1      -7.266  11.802  19.418  0.00  0.00    +0.000 A 
ATOM     28  C   UNL     1      -6.311  12.494  20.160  0.00  0.00    +0.000 A 
ATOM     29  C   UNL     1      -4.949  12.488  19.803  0.00  0.00    +0.000 A 
BRANCH  29  30
ATOM     30  O   UNL     1      -4.192  13.155  20.728  0.00  0.00    +0.000 OA
ATOM     31  C   UNL     1      -4.275  12.776  22.092  0.00  0.00    +0.000 C 
ENDBRANCH  29  30
ENDBRANCH  21  24
ENDBRANCH   5  20
TORSDOF 7
ENDMDL
MODEL 5
REMARK VINA RESULT:      -7.7      1.359      2.209
REMARK  Name = 
REMARK  9 active torsions:
REMARK  status: ('A' for Active; 'I' for Inactive)
REMARK    1  A    between atoms: C_1  and  C_2
REMARK    2  A    between atoms: C_2  and  O_3
REMARK    3  A    between atoms: O_3  and  C_4
REMARK    4  A    between atoms: C_9  and  C_10
REMARK    5  A    between atoms: N_12  and  C_13
REMARK    6  A    between atoms: C_17  and  N_18
REMARK    7  A    between atoms: C_19  and  C_21
REMARK    8  A    between atoms: C_26  and  O_27
REMARK    9  A    between atoms: O_27  and  C_28
REMARK                            x       y       z     vdW  Elec       q    Type
REMARK                         _______ _______ _______ _____ _____    ______ ____
ROOT
ATOM      1  C   UNL     1       3.439   5.682  18.946  0.00  0.00    +0.000 A 
ATOM      2  C   UNL     1       3.048   4.614  19.761  0.00  0.00    +0.000 A 
ATOM      3  C   UNL     1       2.113   4.780  20.780  0.00  0.00    +0.000 A 
ATOM      4  C   UNL     1       1.526   6.020  20.988  0.00  0.00    +0.000 A 
ATOM      5  C   UNL     1       1.867   7.102  20.178  0.00  0.00    +0.000 A 
ATOM      6  C   UNL     1       2.831   6.931  19.158  0.00  0.00    +0.000 A 
ENDROOT
BRANCH   1   9
ATOM      7  C   UNL     1       4.353   4.568  16.912  0.00  0.00    +0.000 C 
ATOM      8  O   UNL     1       3.522   3.659  16.875  0.00  0.00    +0.000 OA
ATOM      9  N   UNL     1       4.411   5.525  17.919  0.00  0.00    +0.000 N 
ATOM     10  H   UNL     1       5.238   6.118  17.939  0.00  0.00    +0.000 HD
BRANCH   7  16
ATOM     11  C   UNL     1       6.658   5.142  15.859  0.00  0.00    +0.000 A 
ATOM     12  C   UNL     1       7.502   5.022  14.736  0.00  0.00    +0.000 A 
ATOM     13  C   UNL     1       7.056   4.440  13.547  0.00  0.00    +0.000 A 
ATOM     14  C   UNL     1       5.770   3.936  13.472  0.00  0.00    +0.000 A 
ATOM     15  C   UNL     1       4.945   3.994  14.593  0.00  0.00    +0.000 A 
ATOM     16  C   UNL     1       5.372   4.581  15.806  0.00  0.00    +0.000 A 
BRANCH  11  17
ATOM     17  O   UNL     1       7.054   5.786  17.006  0.00  0.00    +0.000 OA
BRANCH  17  19
ATOM     18  C   UNL     1       7.786   5.709  19.284  0.00  0.00    +0.000 C 
ATOM     19  C   UNL     1       7.698   4.948  17.976  0.00  0.00    +0.000 C 
ENDBRANCH  17  19
ENDBRANCH  11  17
ENDBRANCH   7  16
ENDBRANCH   1   9
BRANCH   5  20
ATOM     20  N   UNL     1       1.307   8.385  20.391  0.00  0.00    +0.000 N 
ATOM     21  C   UNL     1       1.029   9.336  19.406  0.00  0.00    +0.000 C 
ATOM     22  O   UNL     1       1.380   9.264  18.236  0.00  0.00    +0.000 OA
ATOM     23  H   UNL     1       1.120   8.619  21.354  0.00  0.00    +0.000 HD
BRANCH  21  24
ATOM     24  C   UNL     1       0.299  10.554  19.874  0.00  0.00    +0.000 A 
ATOM     25  C   UNL     1      -0.417  11.281  18.897  0.00  0.00    +0.000 A 
ATOM     26  C   UNL     1      -1.137  12.430  19.223  0.00  0.00    +0.000 A 
ATOM     27  C   UNL     1      -1.182  12.858  20.542  0.00  0.00    +0.000 A 
ATOM     28  C   UNL     1      -0.531  12.119  21.528  0.00  0.00    +0.000 A 
ATOM     29  C   UNL     1       0.215  10.966  21.217  0.00  0.00    +0.000 A 
BRANCH  29  30
ATOM     30  O   UNL     1       0.681  10.359  22.351  0.00  0.00    +0.000 OA
ATOM     31  C   UNL     1      -0.243   9.757  23.243  0.00  0.00    +0.000 C 
ENDBRANCH  29  30
ENDBRANCH  21  24
ENDBRANCH   5  20
TORSDOF 7
ENDMDL
MODEL 6
REMARK VINA RESULT:      -7.6      3.456      6.333
REMARK  Name = 
REMARK  9 active torsions:
REMARK  status: ('A' for Active; 'I' for Inactive)
REMARK    1  A    between atoms: C_1  and  C_2
REMARK    2  A    between atoms: C_2  and  O_3
REMARK    3  A    between atoms: O_3  and  C_4
REMARK    4  A    between atoms: C_9  and  C_10
REMARK    5  A    between atoms: N_12  and  C_13
REMARK    6  A    between atoms: C_17  and  N_18
REMARK    7  A    between atoms: C_19  and  C_21
REMARK    8  A    between atoms: C_26  and  O_27
REMARK    9  A    between atoms: O_27  and  C_28
REMARK                            x       y       z     vdW  Elec       q    Type
REMARK                         _______ _______ _______ _____ _____    ______ ____
ROOT
ATOM      1  C   UNL     1       1.618   9.818  18.107  0.00  0.00    +0.000 A 
ATOM      2  C   UNL     1       2.463  10.934  18.123  0.00  0.00    +0.000 A 
ATOM      3  C   UNL     1       1.978  12.210  18.398  0.00  0.00    +0.000 A 
ATOM      4  C   UNL     1       0.635  12.394  18.690  0.00  0.00    +0.000 A 
ATOM      5  C   UNL     1      -0.234  11.304  18.713  0.00  0.00    +0.000 A 
ATOM      6  C   UNL     1       0.261  10.014  18.414  0.00  0.00    +0.000 A 
ENDROOT
BRANCH   1   9
ATOM      7  C   UNL     1       2.338   7.518  18.743  0.00  0.00    +0.000 C 
ATOM      8  O   UNL     1       2.284   7.696  19.962  0.00  0.00    +0.000 OA
ATOM      9  N   UNL     1       2.102   8.515  17.803  0.00  0.00    +0.000 N 
ATOM     10  H   UNL     1       2.342   8.299  16.838  0.00  0.00    +0.000 HD
BRANCH   7  16
ATOM     11  C   UNL     1       2.178   4.925  18.739  0.00  0.00    +0.000 A 
ATOM     12  C   UNL     1       2.633   3.718  18.170  0.00  0.00    +0.000 A 
ATOM     13  C   UNL     1       3.676   3.698  17.241  0.00  0.00    +0.000 A 
ATOM     14  C   UNL     1       4.258   4.887  16.839  0.00  0.00    +0.000 A 
ATOM     15  C   UNL     1       3.777   6.091  17.348  0.00  0.00    +0.000 A 
ATOM     16  C   UNL     1       2.726   6.138  18.291  0.00  0.00    +0.000 A 
BRANCH  11  17
ATOM     17  O   UNL     1       1.211   4.954  19.715  0.00  0.00    +0.000 OA
BRANCH  17  19
ATOM     18  C   UNL     1       2.008   3.637  21.549  0.00  0.00    +0.000 C 
ATOM     19  C   UNL     1       1.015   3.713  20.406  0.00  0.00    +0.000 C 
ENDBRANCH  17  19
ENDBRANCH  11  17
ENDBRANCH   7  16
ENDBRANCH   1   9
BRANCH   5  20
ATOM     20  N   UNL     1      -1.615  11.470  18.976  0.00  0.00    +0.000 N 
ATOM     21  C   UNL     1      -2.638  11.491  18.023  0.00  0.00    +0.000 C 
ATOM     22  O   UNL     1      -2.474  11.533  16.812  0.00  0.00    +0.000 OA
ATOM     23  H   UNL     1      -1.856  11.606  19.946  0.00  0.00    +0.000 HD
BRANCH  21  24
ATOM     24  C   UNL     1      -4.028  11.530  18.573  0.00  0.00    +0.000 A 
ATOM     25  C   UNL     1      -4.973  10.670  17.970  0.00  0.00    +0.000 A 
ATOM     26  C   UNL     1      -6.298  10.622  18.405  0.00  0.00    +0.000 A 
ATOM     27  C   UNL     1      -6.697  11.409  19.474  0.00  0.00    +0.000 A 
ATOM     28  C   UNL     1      -5.762  12.219  20.119  0.00  0.00    +0.000 A 
ATOM     29  C   UNL     1      -4.425  12.296  19.685  0.00  0.00    +0.000 A 
BRANCH  29  30
ATOM     30  O   UNL     1      -3.678  13.076  20.524  0.00  0.00    +0.000 OA
ATOM     31  C   UNL     1      -3.618  12.750  21.903  0.00  0.00    +0.000 C 
ENDBRANCH  29  30
ENDBRANCH  21  24
ENDBRANCH   5  20
TORSDOF 7
ENDMDL
MODEL 7
REMARK VINA RESULT:      -7.6      2.930      6.122
REMARK  Name = 
REMARK  9 active torsions:
REMARK  status: ('A' for Active; 'I' for Inactive)
REMARK    1  A    between atoms: C_1  and  C_2
REMARK    2  A    between atoms: C_2  and  O_3
REMARK    3  A    between atoms: O_3  and  C_4
REMARK    4  A    between atoms: C_9  and  C_10
REMARK    5  A    between atoms: N_12  and  C_13
REMARK    6  A    between atoms: C_17  and  N_18
REMARK    7  A    between atoms: C_19  and  C_21
REMARK    8  A    between atoms: C_26  and  O_27
REMARK    9  A    between atoms: O_27  and  C_28
REMARK                            x       y       z     vdW  Elec       q    Type
REMARK                         _______ _______ _______ _____ _____    ______ ____
ROOT
ATOM      1  C   UNL     1       1.078   8.845  21.097  0.00  0.00    +0.000 A 
ATOM      2  C   UNL     1       0.121   8.741  22.112  0.00  0.00    +0.000 A 
ATOM      3  C   UNL     1      -0.572   9.858  22.575  0.00  0.00    +0.000 A 
ATOM      4  C   UNL     1      -0.338  11.103  22.011  0.00  0.00    +0.000 A 
ATOM      5  C   UNL     1       0.587  11.243  20.977  0.00  0.00    +0.000 A 
ATOM      6  C   UNL     1       1.300  10.110  20.525  0.00  0.00    +0.000 A 
ENDROOT
BRANCH   1   9
ATOM      7  C   UNL     1       2.182   7.497  19.314  0.00  0.00    +0.000 C 
ATOM      8  O   UNL     1       1.807   8.196  18.370  0.00  0.00    +0.000 OA
ATOM      9  N   UNL     1       1.807   7.714  20.635  0.00  0.00    +0.000 N 
ATOM     10  H   UNL     1       2.036   6.979  21.301  0.00  0.00    +0.000 HD
BRANCH   7  16
ATOM     11  C   UNL     1       3.146   5.110  19.655  0.00  0.00    +0.000 A 
ATOM     12  C   UNL     1       3.998   4.101  19.159  0.00  0.00    +0.000 A 
ATOM     13  C   UNL     1       4.823   4.322  18.054  0.00  0.00    +0.000 A 
ATOM     14  C   UNL     1       4.785   5.544  17.405  0.00  0.00    +0.000 A 
ATOM     15  C   UNL     1       3.905   6.527  17.848  0.00  0.00    +0.000 A 
ATOM     16  C   UNL     1       3.062   6.330  18.965  0.00  0.00    +0.000 A 
BRANCH  11  17
ATOM     17  O   UNL     1       2.391   4.935  20.789  0.00  0.00    +0.000 OA
BRANCH  17  19
ATOM     18  C   UNL     1       1.466   2.830  21.456  0.00  0.00    +0.000 C 
ATOM     19  C   UNL     1       1.250   4.081  20.629  0.00  0.00    +0.000 C 
ENDBRANCH  17  19
ENDBRANCH  11  17
ENDBRANCH   7  16
ENDBRANCH   1   9
BRANCH   5  20
ATOM     20  N   UNL     1       0.867  12.508  20.408  0.00  0.00    +0.000 N 
ATOM     21  C   UNL     1       0.321  13.018  19.226  0.00  0.00    +0.000 C 
ATOM     22  O   UNL     1      -0.352  12.381  18.427  0.00  0.00    +0.000 OA
ATOM     23  H   UNL     1       1.542  13.066  20.907  0.00  0.00    +0.000 HD
BRANCH  21  24
ATOM     24  C   UNL     1       0.664  14.441  18.920  0.00  0.00    +0.000 A 
ATOM     25  C   UNL     1      -0.416  15.344  18.800  0.00  0.00    +0.000 A 
ATOM     26  C   UNL     1      -0.212  16.695  18.520  0.00  0.00    +0.000 A 
ATOM     27  C   UNL     1       1.081  17.178  18.388  0.00  0.00    +0.000 A 
ATOM     28  C   UNL     1       2.160  16.313  18.563  0.00  0.00    +0.000 A 
ATOM     29  C   UNL     1       1.976  14.943  18.828  0.00  0.00    +0.000 A 
BRANCH  29  30
ATOM     30  O   UNL     1       3.171  14.318  19.054  0.00  0.00    +0.000 OA
ATOM     31  C   UNL     1       3.864  14.567  20.267  0.00  0.00    +0.000 C 
ENDBRANCH  29  30
ENDBRANCH  21  24
ENDBRANCH   5  20
TORSDOF 7
ENDMDL
MODEL 8
REMARK VINA RESULT:      -7.6      3.151      6.216
REMARK  Name = 
REMARK  9 active torsions:
REMARK  status: ('A' for Active; 'I' for Inactive)
REMARK    1  A    between atoms: C_1  and  C_2
REMARK    2  A    between atoms: C_2  and  O_3
REMARK    3  A    between atoms: O_3  and  C_4
REMARK    4  A    between atoms: C_9  and  C_10
REMARK    5  A    between atoms: N_12  and  C_13
REMARK    6  A    between atoms: C_17  and  N_18
REMARK    7  A    between atoms: C_19  and  C_21
REMARK    8  A    between atoms: C_26  and  O_27
REMARK    9  A    between atoms: O_27  and  C_28
REMARK                            x       y       z     vdW  Elec       q    Type
REMARK                         _______ _______ _______ _____ _____    ______ ____
ROOT
ATOM      1  C   UNL     1       1.185   8.871  20.869  0.00  0.00    +0.000 A 
ATOM      2  C   UNL     1       0.219   8.836  21.881  0.00  0.00    +0.000 A 
ATOM      3  C   UNL     1      -0.456   9.986  22.283  0.00  0.00    +0.000 A 
ATOM      4  C   UNL     1      -0.196  11.197  21.658  0.00  0.00    +0.000 A 
ATOM      5  C   UNL     1       0.738  11.268  20.626  0.00  0.00    +0.000 A 
ATOM      6  C   UNL     1       1.433  10.102  20.236  0.00  0.00    +0.000 A 
ENDROOT
BRANCH   1   9
ATOM      7  C   UNL     1       2.267   7.412  19.162  0.00  0.00    +0.000 C 
ATOM      8  O   UNL     1       1.902   8.064  18.182  0.00  0.00    +0.000 OA
ATOM      9  N   UNL     1       1.896   7.705  20.469  0.00  0.00    +0.000 N 
ATOM     10  H   UNL     1       2.114   7.004  21.174  0.00  0.00    +0.000 HD
BRANCH   7  16
ATOM     11  C   UNL     1       3.178   5.023  19.621  0.00  0.00    +0.000 A 
ATOM     12  C   UNL     1       4.017   3.978  19.182  0.00  0.00    +0.000 A 
ATOM     13  C   UNL     1       4.863   4.135  18.081  0.00  0.00    +0.000 A 
ATOM     14  C   UNL     1       4.859   5.328  17.380  0.00  0.00    +0.000 A 
ATOM     15  C   UNL     1       3.992   6.347  17.767  0.00  0.00    +0.000 A 
ATOM     16  C   UNL     1       3.129   6.214  18.878  0.00  0.00    +0.000 A 
BRANCH  11  17
ATOM     17  O   UNL     1       2.403   4.912  20.749  0.00  0.00    +0.000 OA
BRANCH  17  19
ATOM     18  C   UNL     1       1.453   2.865  21.547  0.00  0.00    +0.000 C 
ATOM     19  C   UNL     1       1.266   4.048  20.618  0.00  0.00    +0.000 C 
ENDBRANCH  17  19
ENDBRANCH  11  17
ENDBRANCH   7  16
ENDBRANCH   1   9
BRANCH   5  20
ATOM     20  N   UNL     1       1.044  12.499  19.995  0.00  0.00    +0.000 N 
ATOM     21  C   UNL     1       2.108  13.346  20.318  0.00  0.00    +0.000 C 
ATOM     22  O   UNL     1       2.833  13.229  21.297  0.00  0.00    +0.000 OA
ATOM     23  H   UNL     1       0.409  12.779  19.264  0.00  0.00    +0.000 HD
BRANCH  21  24
ATOM     24  C   UNL     1       2.302  14.512  19.402  0.00  0.00    +0.000 A 
ATOM     25  C   UNL     1       3.434  14.475  18.557  0.00  0.00    +0.000 A 
ATOM     26  C   UNL     1       3.711  15.508  17.661  0.00  0.00    +0.000 A 
ATOM     27  C   UNL     1       2.841  16.584  17.568  0.00  0.00    +0.000 A 
ATOM     28  C   UNL     1       1.688  16.607  18.351  0.00  0.00    +0.000 A 
ATOM     29  C   UNL     1       1.400  15.585  19.274  0.00  0.00    +0.000 A 
BRANCH  29  30
ATOM     30  O   UNL     1       0.176  15.774  19.855  0.00  0.00    +0.000 OA
ATOM     31  C   UNL     1      -0.800  16.546  19.175  0.00  0.00    +0.000 C 
ENDBRANCH  29  30
ENDBRANCH  21  24
ENDBRANCH   5  20
TORSDOF 7
ENDMDL
MODEL 9
REMARK VINA RESULT:      -7.6      3.914      6.230
REMARK  Name = 
REMARK  9 active torsions:
REMARK  status: ('A' for Active; 'I' for Inactive)
REMARK    1  A    between atoms: C_1  and  C_2
REMARK    2  A    between atoms: C_2  and  O_3
REMARK    3  A    between atoms: O_3  and  C_4
REMARK    4  A    between atoms: C_9  and  C_10
REMARK    5  A    between atoms: N_12  and  C_13
REMARK    6  A    between atoms: C_17  and  N_18
REMARK    7  A    between atoms: C_19  and  C_21
REMARK    8  A    between atoms: C_26  and  O_27
REMARK    9  A    between atoms: O_27  and  C_28
REMARK                            x       y       z     vdW  Elec       q    Type
REMARK                         _______ _______ _______ _____ _____    ______ ____
ROOT
ATOM      1  C   UNL     1       1.473   9.735  18.063  0.00  0.00    +0.000 A 
ATOM      2  C   UNL     1       0.089   9.840  18.238  0.00  0.00    +0.000 A 
ATOM      3  C   UNL     1      -0.506  11.039  18.625  0.00  0.00    +0.000 A 
ATOM      4  C   UNL     1       0.273  12.169  18.822  0.00  0.00    +0.000 A 
ATOM      5  C   UNL     1       1.653  12.112  18.629  0.00  0.00    +0.000 A 
ATOM      6  C   UNL     1       2.253  10.889  18.255  0.00  0.00    +0.000 A 
ENDROOT
BRANCH   1   9
ATOM      7  C   UNL     1       2.372   7.464  18.566  0.00  0.00    +0.000 C 
ATOM      8  O   UNL     1       2.239   7.539  19.789  0.00  0.00    +0.000 OA
ATOM      9  N   UNL     1       2.091   8.508  17.691  0.00  0.00    +0.000 N 
ATOM     10  H   UNL     1       2.399   8.392  16.728  0.00  0.00    +0.000 HD
BRANCH   7  16
ATOM     11  C   UNL     1       4.181   5.950  17.480  0.00  0.00    +0.000 A 
ATOM     12  C   UNL     1       4.537   4.648  17.071  0.00  0.00    +0.000 A 
ATOM     13  C   UNL     1       3.623   3.593  17.122  0.00  0.00    +0.000 A 
ATOM     14  C   UNL     1       2.349   3.813  17.616  0.00  0.00    +0.000 A 
ATOM     15  C   UNL     1       2.004   5.081  18.079  0.00  0.00    +0.000 A 
ATOM     16  C   UNL     1       2.909   6.165  18.035  0.00  0.00    +0.000 A 
BRANCH  11  17
ATOM     17  O   UNL     1       5.041   7.013  17.358  0.00  0.00    +0.000 OA
BRANCH  17  19
ATOM     18  C   UNL     1       7.402   7.012  17.757  0.00  0.00    +0.000 C 
ATOM     19  C   UNL     1       6.305   6.702  16.757  0.00  0.00    +0.000 C 
ENDBRANCH  17  19
ENDBRANCH  11  17
ENDBRANCH   7  16
ENDBRANCH   1   9
BRANCH   5  20
ATOM     20  N   UNL     1       2.474  13.244  18.856  0.00  0.00    +0.000 N 
ATOM     21  C   UNL     1       2.917  13.704  20.099  0.00  0.00    +0.000 C 
ATOM     22  O   UNL     1       2.527  13.294  21.184  0.00  0.00    +0.000 OA
ATOM     23  H   UNL     1       2.731  13.762  18.029  0.00  0.00    +0.000 HD
BRANCH  21  24
ATOM     24  C   UNL     1       3.897  14.832  20.055  0.00  0.00    +0.000 A 
ATOM     25  C   UNL     1       4.928  14.815  21.021  0.00  0.00    +0.000 A 
ATOM     26  C   UNL     1       5.899  15.816  21.070  0.00  0.00    +0.000 A 
ATOM     27  C   UNL     1       5.878  16.837  20.132  0.00  0.00    +0.000 A 
ATOM     28  C   UNL     1       4.903  16.836  19.136  0.00  0.00    +0.000 A 
ATOM     29  C   UNL     1       3.904  15.846  19.079  0.00  0.00    +0.000 A 
BRANCH  29  30
ATOM     30  O   UNL     1       3.121  15.997  17.967  0.00  0.00    +0.000 OA
ATOM     31  C   UNL     1       2.128  17.009  17.952  0.00  0.00    +0.000 C 
ENDBRANCH  29  30
ENDBRANCH  21  24
ENDBRANCH   5  20
TORSDOF 7
ENDMDL
