MODEL 1
REMARK VINA RESULT:      -8.2      0.000      0.000
REMARK  Name = 
REMARK  3 active torsions:
REMARK  status: ('A' for Active; 'I' for Inactive)
REMARK    1  A    between atoms: C_3  and  C_4
REMARK    2  A    between atoms: N_11  and  O_12
REMARK    3  A    between atoms: C_13  and  C_14
REMARK                            x       y       z     vdW  Elec       q    Type
REMARK                         _______ _______ _______ _____ _____    ______ ____
ROOT
ATOM      1  O   UNL     1       6.479   5.034  19.690  0.00  0.00    +0.000 OA
ATOM      2  N   UNL     1       5.917   4.719  18.594  0.00  0.00    +0.000 N 
ATOM      3  C   UNL     1       4.699   4.240  18.453  0.00  0.00    +0.000 C 
ATOM      4  C   UNL     1       4.590   4.019  16.981  0.00  0.00    +0.000 C 
ATOM      5  N   UNL     1       3.618   3.610  16.239  0.00  0.00    +0.000 NA
ATOM      6  C   UNL     1       5.879   4.404  16.338  0.00  0.00    +0.000 C 
ATOM      7  N   UNL     1       6.619   4.816  17.336  0.00  0.00    +0.000 N 
ATOM      8  O   UNL     1       7.806   5.269  17.255  0.00  0.00    +0.000 OA
ENDROOT
BRANCH   3   9
ATOM      9  C   UNL     1       3.778   3.977  19.559  0.00  0.00    +0.000 A 
ATOM     10  C   UNL     1       3.723   2.708  20.149  0.00  0.00    +0.000 A 
ATOM     11  C   UNL     1       2.829   2.447  21.192  0.00  0.00    +0.000 A 
ATOM     12  C   UNL     1       2.009   3.460  21.676  0.00  0.00    +0.000 A 
ATOM     13  C   UNL     1       2.054   4.725  21.095  0.00  0.00    +0.000 A 
ATOM     14  C   UNL     1       2.909   4.970  20.018  0.00  0.00    +0.000 A 
ENDBRANCH   3   9
BRANCH   6  15
ATOM     15  C   UNL     1       6.248   4.365  14.927  0.00  0.00    +0.000 A 
ATOM     16  C   UNL     1       5.567   3.508  14.054  0.00  0.00    +0.000 A 
ATOM     17  C   UNL     1       5.936   3.437  12.708  0.00  0.00    +0.000 A 
ATOM     18  C   UNL     1       6.973   4.227  12.226  0.00  0.00    +0.000 A 
ATOM     19  C   UNL     1       7.645   5.095  13.087  0.00  0.00    +0.000 A 
ATOM     20  C   UNL     1       7.284   5.163  14.434  0.00  0.00    +0.000 A 
ENDBRANCH   6  15
BRANCH   5  21
ATOM     21  O   UNL     1       2.420   3.435  16.910  0.00  0.00    +0.000 OA
ATOM     22  H   UNL     1       1.774   3.348  16.184  0.00  0.00    +0.000 HD
ENDBRANCH   5  21
TORSDOF 3
ENDMDL
MODEL 2
REMARK VINA RESULT:      -8.2      0.042      1.054
REMARK  Name = 
REMARK  3 active torsions:
REMARK  status: ('A' for Active; 'I' for Inactive)
REMARK    1  A    between atoms: C_3  and  C_4
REMARK    2  A    between atoms: N_11  and  O_12
REMARK    3  A    between atoms: C_13  and  C_14
REMARK                            x       y       z     vdW  Elec       q    Type
REMARK                         _______ _______ _______ _____ _____    ______ ____
ROOT
ATOM      1  O   UNL     1       6.493   5.018  19.679  0.00  0.00    +0.000 OA
ATOM      2  N   UNL     1       5.933   4.700  18.583  0.00  0.00    +0.000 N 
ATOM      3  C   UNL     1       4.710   4.234  18.439  0.00  0.00    +0.000 C 
ATOM      4  C   UNL     1       4.606   4.002  16.968  0.00  0.00    +0.000 C 
ATOM      5  N   UNL     1       3.633   3.598  16.225  0.00  0.00    +0.000 NA
ATOM      6  C   UNL     1       5.903   4.366  16.329  0.00  0.00    +0.000 C 
ATOM      7  N   UNL     1       6.643   4.778  17.327  0.00  0.00    +0.000 N 
ATOM      8  O   UNL     1       7.835   5.217  17.249  0.00  0.00    +0.000 OA
ENDROOT
BRANCH   3   9
ATOM      9  C   UNL     1       3.780   3.991  19.542  0.00  0.00    +0.000 A 
ATOM     10  C   UNL     1       3.706   2.727  20.141  0.00  0.00    +0.000 A 
ATOM     11  C   UNL     1       2.804   2.485  21.181  0.00  0.00    +0.000 A 
ATOM     12  C   UNL     1       1.994   3.513  21.655  0.00  0.00    +0.000 A 
ATOM     13  C   UNL     1       2.058   4.772  21.064  0.00  0.00    +0.000 A 
ATOM     14  C   UNL     1       2.922   4.999  19.989  0.00  0.00    +0.000 A 
ENDBRANCH   3   9
BRANCH   6  15
ATOM     15  C   UNL     1       6.279   4.312  14.920  0.00  0.00    +0.000 A 
ATOM     16  C   UNL     1       7.311   5.130  14.444  0.00  0.00    +0.000 A 
ATOM     17  C   UNL     1       7.654   5.113  13.090  0.00  0.00    +0.000 A 
ATOM     18  C   UNL     1       6.982   4.272  12.210  0.00  0.00    +0.000 A 
ATOM     19  C   UNL     1       5.964   3.442  12.681  0.00  0.00    +0.000 A 
ATOM     20  C   UNL     1       5.613   3.463  14.032  0.00  0.00    +0.000 A 
ENDBRANCH   6  15
BRANCH   5  21
ATOM     21  O   UNL     1       2.430   3.443  16.891  0.00  0.00    +0.000 OA
ATOM     22  H   UNL     1       2.703   3.067  17.750  0.00  0.00    +0.000 HD
ENDBRANCH   5  21
TORSDOF 3
ENDMDL
MODEL 3
REMARK VINA RESULT:      -8.2      0.055      1.489
REMARK  Name = 
REMARK  3 active torsions:
REMARK  status: ('A' for Active; 'I' for Inactive)
REMARK    1  A    between atoms: C_3  and  C_4
REMARK    2  A    between atoms: N_11  and  O_12
REMARK    3  A    between atoms: C_13  and  C_14
REMARK                            x       y       z     vdW  Elec       q    Type
REMARK                         _______ _______ _______ _____ _____    ______ ____
ROOT
ATOM      1  O   UNL     1       6.486   5.021  19.687  0.00  0.00    +0.000 OA
ATOM      2  N   UNL     1       5.931   4.708  18.587  0.00  0.00    +0.000 N 
ATOM      3  C   UNL     1       4.709   4.241  18.434  0.00  0.00    +0.000 C 
ATOM      4  C   UNL     1       4.613   4.017  16.962  0.00  0.00    +0.000 C 
ATOM      5  N   UNL     1       3.644   3.615  16.212  0.00  0.00    +0.000 NA
ATOM      6  C   UNL     1       5.913   4.386  16.331  0.00  0.00    +0.000 C 
ATOM      7  N   UNL     1       6.647   4.793  17.335  0.00  0.00    +0.000 N 
ATOM      8  O   UNL     1       7.839   5.234  17.264  0.00  0.00    +0.000 OA
ENDROOT
BRANCH   3   9
ATOM      9  C   UNL     1       3.774   3.992  19.532  0.00  0.00    +0.000 A 
ATOM     10  C   UNL     1       2.944   5.018  20.001  0.00  0.00    +0.000 A 
ATOM     11  C   UNL     1       2.064   4.791  21.063  0.00  0.00    +0.000 A 
ATOM     12  C   UNL     1       1.983   3.529  21.642  0.00  0.00    +0.000 A 
ATOM     13  C   UNL     1       2.807   2.503  21.186  0.00  0.00    +0.000 A 
ATOM     14  C   UNL     1       3.723   2.746  20.159  0.00  0.00    +0.000 A 
ENDBRANCH   3   9
BRANCH   6  15
ATOM     15  C   UNL     1       6.295   4.339  14.924  0.00  0.00    +0.000 A 
ATOM     16  C   UNL     1       7.321   5.170  14.454  0.00  0.00    +0.000 A 
ATOM     17  C   UNL     1       7.671   5.159  13.101  0.00  0.00    +0.000 A 
ATOM     18  C   UNL     1       7.012   4.313  12.217  0.00  0.00    +0.000 A 
ATOM     19  C   UNL     1       6.001   3.471  12.681  0.00  0.00    +0.000 A 
ATOM     20  C   UNL     1       5.643   3.485  14.031  0.00  0.00    +0.000 A 
ENDBRANCH   6  15
BRANCH   5  21
ATOM     21  O   UNL     1       2.438   3.456  16.871  0.00  0.00    +0.000 OA
ATOM     22  H   UNL     1       1.901   2.957  16.226  0.00  0.00    +0.000 HD
ENDBRANCH   5  21
TORSDOF 3
ENDMDL
MODEL 4
REMARK VINA RESULT:      -8.2      0.024      1.051
REMARK  Name = 
REMARK  3 active torsions:
REMARK  status: ('A' for Active; 'I' for Inactive)
REMARK    1  A    between atoms: C_3  and  C_4
REMARK    2  A    between atoms: N_11  and  O_12
REMARK    3  A    between atoms: C_13  and  C_14
REMARK                            x       y       z     vdW  Elec       q    Type
REMARK                         _______ _______ _______ _____ _____    ______ ____
ROOT
ATOM      1  O   UNL     1       6.471   5.043  19.679  0.00  0.00    +0.000 OA
ATOM      2  N   UNL     1       5.913   4.721  18.583  0.00  0.00    +0.000 N 
ATOM      3  C   UNL     1       4.700   4.228  18.441  0.00  0.00    +0.000 C 
ATOM      4  C   UNL     1       4.595   4.004  16.969  0.00  0.00    +0.000 C 
ATOM      5  N   UNL     1       3.627   3.584  16.227  0.00  0.00    +0.000 NA
ATOM      6  C   UNL     1       5.880   4.402  16.327  0.00  0.00    +0.000 C 
ATOM      7  N   UNL     1       6.615   4.823  17.325  0.00  0.00    +0.000 N 
ATOM      8  O   UNL     1       7.797   5.289  17.244  0.00  0.00    +0.000 OA
ENDROOT
BRANCH   3   9
ATOM      9  C   UNL     1       3.781   3.957  19.547  0.00  0.00    +0.000 A 
ATOM     10  C   UNL     1       2.928   4.962  20.021  0.00  0.00    +0.000 A 
ATOM     11  C   UNL     1       2.063   4.714  21.091  0.00  0.00    +0.000 A 
ATOM     12  C   UNL     1       2.019   3.451  21.673  0.00  0.00    +0.000 A 
ATOM     13  C   UNL     1       2.866   2.446  21.211  0.00  0.00    +0.000 A 
ATOM     14  C   UNL     1       3.767   2.710  20.177  0.00  0.00    +0.000 A 
ENDBRANCH   3   9
BRANCH   6  15
ATOM     15  C   UNL     1       6.251   4.366  14.916  0.00  0.00    +0.000 A 
ATOM     16  C   UNL     1       5.566   3.515  14.040  0.00  0.00    +0.000 A 
ATOM     17  C   UNL     1       5.937   3.445  12.694  0.00  0.00    +0.000 A 
ATOM     18  C   UNL     1       6.978   4.232  12.216  0.00  0.00    +0.000 A 
ATOM     19  C   UNL     1       7.653   5.094  13.080  0.00  0.00    +0.000 A 
ATOM     20  C   UNL     1       7.291   5.160  14.427  0.00  0.00    +0.000 A 
ENDBRANCH   6  15
BRANCH   5  21
ATOM     21  O   UNL     1       2.431   3.397  16.898  0.00  0.00    +0.000 OA
ATOM     22  H   UNL     1       2.511   4.004  17.659  0.00  0.00    +0.000 HD
ENDBRANCH   5  21
TORSDOF 3
ENDMDL
MODEL 5
REMARK VINA RESULT:      -7.8      5.398      6.759
REMARK  Name = 
REMARK  3 active torsions:
REMARK  status: ('A' for Active; 'I' for Inactive)
REMARK    1  A    between atoms: C_3  and  C_4
REMARK    2  A    between atoms: N_11  and  O_12
REMARK    3  A    between atoms: C_13  and  C_14
REMARK                            x       y       z     vdW  Elec       q    Type
REMARK                         _______ _______ _______ _____ _____    ______ ____
ROOT
ATOM      1  O   UNL     1       0.660   8.274  21.852  0.00  0.00    +0.000 OA
ATOM      2  N   UNL     1       1.190   8.211  20.697  0.00  0.00    +0.000 N 
ATOM      3  C   UNL     1       1.167   9.151  19.776  0.00  0.00    +0.000 C 
ATOM      4  C   UNL     1       1.896   8.525  18.634  0.00  0.00    +0.000 C 
ATOM      5  N   UNL     1       2.231   8.976  17.473  0.00  0.00    +0.000 NA
ATOM      6  C   UNL     1       2.298   7.142  19.018  0.00  0.00    +0.000 C 
ATOM      7  N   UNL     1       1.863   7.015  20.245  0.00  0.00    +0.000 N 
ATOM      8  O   UNL     1       2.006   5.994  20.992  0.00  0.00    +0.000 OA
ENDROOT
BRANCH   3   9
ATOM      9  C   UNL     1       0.504  10.446  19.931  0.00  0.00    +0.000 A 
ATOM     10  C   UNL     1       1.164  11.508  20.563  0.00  0.00    +0.000 A 
ATOM     11  C   UNL     1       0.526  12.741  20.731  0.00  0.00    +0.000 A 
ATOM     12  C   UNL     1      -0.761  12.933  20.240  0.00  0.00    +0.000 A 
ATOM     13  C   UNL     1      -1.426  11.883  19.613  0.00  0.00    +0.000 A 
ATOM     14  C   UNL     1      -0.808  10.635  19.492  0.00  0.00    +0.000 A 
ENDBRANCH   3   9
BRANCH   6  15
ATOM     15  C   UNL     1       3.029   6.149  18.237  0.00  0.00    +0.000 A 
ATOM     16  C   UNL     1       2.408   4.943  17.891  0.00  0.00    +0.000 A 
ATOM     17  C   UNL     1       3.111   3.970  17.174  0.00  0.00    +0.000 A 
ATOM     18  C   UNL     1       4.426   4.201  16.790  0.00  0.00    +0.000 A 
ATOM     19  C   UNL     1       5.046   5.408  17.117  0.00  0.00    +0.000 A 
ATOM     20  C   UNL     1       4.349   6.379  17.840  0.00  0.00    +0.000 A 
ENDBRANCH   6  15
BRANCH   5  21
ATOM     21  O   UNL     1       1.955  10.318  17.279  0.00  0.00    +0.000 OA
ATOM     22  H   UNL     1       1.157  10.298  16.718  0.00  0.00    +0.000 HD
ENDBRANCH   5  21
TORSDOF 3
ENDMDL
MODEL 6
REMARK VINA RESULT:      -7.8      5.359      6.698
REMARK  Name = 
REMARK  3 active torsions:
REMARK  status: ('A' for Active; 'I' for Inactive)
REMARK    1  A    between atoms: C_3  and  C_4
REMARK    2  A    between atoms: N_11  and  O_12
REMARK    3  A    between atoms: C_13  and  C_14
REMARK                            x       y       z     vdW  Elec       q    Type
REMARK                         _______ _______ _______ _____ _____    ______ ____
ROOT
ATOM      1  O   UNL     1       0.639   8.155  21.834  0.00  0.00    +0.000 OA
ATOM      2  N   UNL     1       1.180   8.125  20.683  0.00  0.00    +0.000 N 
ATOM      3  C   UNL     1       1.143   9.080  19.778  0.00  0.00    +0.000 C 
ATOM      4  C   UNL     1       1.895   8.491  18.632  0.00  0.00    +0.000 C 
ATOM      5  N   UNL     1       2.229   8.970  17.482  0.00  0.00    +0.000 NA
ATOM      6  C   UNL     1       2.324   7.110  18.994  0.00  0.00    +0.000 C 
ATOM      7  N   UNL     1       1.882   6.952  20.216  0.00  0.00    +0.000 N 
ATOM      8  O   UNL     1       2.041   5.921  20.946  0.00  0.00    +0.000 OA
ENDROOT
BRANCH   3   9
ATOM      9  C   UNL     1       0.451  10.358  19.950  0.00  0.00    +0.000 A 
ATOM     10  C   UNL     1      -0.842  10.536  19.442  0.00  0.00    +0.000 A 
ATOM     11  C   UNL     1      -1.499  11.762  19.586  0.00  0.00    +0.000 A 
ATOM     12  C   UNL     1      -0.883  12.807  20.267  0.00  0.00    +0.000 A 
ATOM     13  C   UNL     1       0.403  12.641  20.773  0.00  0.00    +0.000 A 
ATOM     14  C   UNL     1       1.080  11.433  20.583  0.00  0.00    +0.000 A 
ENDBRANCH   3   9
BRANCH   6  15
ATOM     15  C   UNL     1       3.082   6.147  18.202  0.00  0.00    +0.000 A 
ATOM     16  C   UNL     1       2.496   4.928  17.842  0.00  0.00    +0.000 A 
ATOM     17  C   UNL     1       3.226   3.984  17.115  0.00  0.00    +0.000 A 
ATOM     18  C   UNL     1       4.534   4.256  16.733  0.00  0.00    +0.000 A 
ATOM     19  C   UNL     1       5.119   5.476  17.074  0.00  0.00    +0.000 A 
ATOM     20  C   UNL     1       4.395   6.419  17.808  0.00  0.00    +0.000 A 
ENDBRANCH   6  15
BRANCH   5  21
ATOM     21  O   UNL     1       1.926  10.309  17.309  0.00  0.00    +0.000 OA
ATOM     22  H   UNL     1       0.971  10.344  17.511  0.00  0.00    +0.000 HD
ENDBRANCH   5  21
TORSDOF 3
ENDMDL
MODEL 7
REMARK VINA RESULT:      -7.8      5.367      6.786
REMARK  Name = 
REMARK  3 active torsions:
REMARK  status: ('A' for Active; 'I' for Inactive)
REMARK    1  A    between atoms: C_3  and  C_4
REMARK    2  A    between atoms: N_11  and  O_12
REMARK    3  A    between atoms: C_13  and  C_14
REMARK                            x       y       z     vdW  Elec       q    Type
REMARK                         _______ _______ _______ _____ _____    ______ ____
ROOT
ATOM      1  O   UNL     1       0.696   8.231  21.855  0.00  0.00    +0.000 OA
ATOM      2  N   UNL     1       1.224   8.176  20.700  0.00  0.00    +0.000 N 
ATOM      3  C   UNL     1       1.183   9.116  19.778  0.00  0.00    +0.000 C 
ATOM      4  C   UNL     1       1.920   8.502  18.634  0.00  0.00    +0.000 C 
ATOM      5  N   UNL     1       2.244   8.958  17.473  0.00  0.00    +0.000 NA
ATOM      6  C   UNL     1       2.345   7.126  19.017  0.00  0.00    +0.000 C 
ATOM      7  N   UNL     1       1.916   6.992  20.246  0.00  0.00    +0.000 N 
ATOM      8  O   UNL     1       2.078   5.974  20.993  0.00  0.00    +0.000 OA
ENDROOT
BRANCH   3   9
ATOM      9  C   UNL     1       0.498  10.400  19.934  0.00  0.00    +0.000 A 
ATOM     10  C   UNL     1      -0.807  10.569  19.455  0.00  0.00    +0.000 A 
ATOM     11  C   UNL     1      -1.457  11.800  19.583  0.00  0.00    +0.000 A 
ATOM     12  C   UNL     1      -0.821  12.861  20.220  0.00  0.00    +0.000 A 
ATOM     13  C   UNL     1       0.478  12.704  20.697  0.00  0.00    +0.000 A 
ATOM     14  C   UNL     1       1.146  11.489  20.522  0.00  0.00    +0.000 A 
ENDBRANCH   3   9
BRANCH   6  15
ATOM     15  C   UNL     1       3.091   6.145  18.235  0.00  0.00    +0.000 A 
ATOM     16  C   UNL     1       4.395   6.437  17.816  0.00  0.00    +0.000 A 
ATOM     17  C   UNL     1       5.105   5.521  17.036  0.00  0.00    +0.000 A 
ATOM     18  C   UNL     1       4.525   4.308  16.683  0.00  0.00    +0.000 A 
ATOM     19  C   UNL     1       3.232   4.004  17.111  0.00  0.00    +0.000 A 
ATOM     20  C   UNL     1       2.517   4.921  17.884  0.00  0.00    +0.000 A 
ENDBRANCH   6  15
BRANCH   5  21
ATOM     21  O   UNL     1       1.945  10.296  17.279  0.00  0.00    +0.000 OA
ATOM     22  H   UNL     1       1.247  10.266  16.596  0.00  0.00    +0.000 HD
ENDBRANCH   5  21
TORSDOF 3
ENDMDL
MODEL 8
REMARK VINA RESULT:      -7.8      5.393      6.828
REMARK  Name = 
REMARK  3 active torsions:
REMARK  status: ('A' for Active; 'I' for Inactive)
REMARK    1  A    between atoms: C_3  and  C_4
REMARK    2  A    between atoms: N_11  and  O_12
REMARK    3  A    between atoms: C_13  and  C_14
REMARK                            x       y       z     vdW  Elec       q    Type
REMARK                         _______ _______ _______ _____ _____    ______ ____
ROOT
ATOM      1  O   UNL     1       0.650   8.272  21.848  0.00  0.00    +0.000 OA
ATOM      2  N   UNL     1       1.187   8.206  20.697  0.00  0.00    +0.000 N 
ATOM      3  C   UNL     1       1.164   9.141  19.771  0.00  0.00    +0.000 C 
ATOM      4  C   UNL     1       1.903   8.514  18.636  0.00  0.00    +0.000 C 
ATOM      5  N   UNL     1       2.242   8.960  17.475  0.00  0.00    +0.000 NA
ATOM      6  C   UNL     1       2.309   7.134  19.029  0.00  0.00    +0.000 C 
ATOM      7  N   UNL     1       1.867   7.011  20.255  0.00  0.00    +0.000 N 
ATOM      8  O   UNL     1       2.011   5.995  21.008  0.00  0.00    +0.000 OA
ENDROOT
BRANCH   3   9
ATOM      9  C   UNL     1       0.494  10.434  19.915  0.00  0.00    +0.000 A 
ATOM     10  C   UNL     1       1.145  11.503  20.546  0.00  0.00    +0.000 A 
ATOM     11  C   UNL     1       0.501  12.733  20.704  0.00  0.00    +0.000 A 
ATOM     12  C   UNL     1      -0.784  12.916  20.205  0.00  0.00    +0.000 A 
ATOM     13  C   UNL     1      -1.442  11.860  19.580  0.00  0.00    +0.000 A 
ATOM     14  C   UNL     1      -0.817  10.615  19.469  0.00  0.00    +0.000 A 
ENDBRANCH   3   9
BRANCH   6  15
ATOM     15  C   UNL     1       3.049   6.141  18.258  0.00  0.00    +0.000 A 
ATOM     16  C   UNL     1       4.366   6.407  17.864  0.00  0.00    +0.000 A 
ATOM     17  C   UNL     1       5.072   5.479  17.094  0.00  0.00    +0.000 A 
ATOM     18  C   UNL     1       4.474   4.280  16.726  0.00  0.00    +0.000 A 
ATOM     19  C   UNL     1       3.168   4.000  17.129  0.00  0.00    +0.000 A 
ATOM     20  C   UNL     1       2.457   4.929  17.892  0.00  0.00    +0.000 A 
ENDBRANCH   6  15
BRANCH   5  21
ATOM     21  O   UNL     1       1.960  10.300  17.273  0.00  0.00    +0.000 OA
ATOM     22  H   UNL     1       2.597  10.748  17.861  0.00  0.00    +0.000 HD
ENDBRANCH   5  21
TORSDOF 3
ENDMDL
MODEL 9
REMARK VINA RESULT:      -7.7      1.725      2.032
REMARK  Name = 
REMARK  3 active torsions:
REMARK  status: ('A' for Active; 'I' for Inactive)
REMARK    1  A    between atoms: C_3  and  C_4
REMARK    2  A    between atoms: N_11  and  O_12
REMARK    3  A    between atoms: C_13  and  C_14
REMARK                            x       y       z     vdW  Elec       q    Type
REMARK                         _______ _______ _______ _____ _____    ______ ____
ROOT
ATOM      1  O   UNL     1       3.169   6.588  18.597  0.00  0.00    +0.000 OA
ATOM      2  N   UNL     1       3.638   5.619  17.920  0.00  0.00    +0.000 N 
ATOM      3  C   UNL     1       3.506   4.339  18.197  0.00  0.00    +0.000 C 
ATOM      4  C   UNL     1       4.280   3.674  17.107  0.00  0.00    +0.000 C 
ATOM      5  N   UNL     1       4.474   2.432  16.820  0.00  0.00    +0.000 NA
ATOM      6  C   UNL     1       4.865   4.722  16.223  0.00  0.00    +0.000 C 
ATOM      7  N   UNL     1       4.448   5.847  16.745  0.00  0.00    +0.000 N 
ATOM      8  O   UNL     1       4.683   7.016  16.301  0.00  0.00    +0.000 OA
ENDROOT
BRANCH   3   9
ATOM      9  C   UNL     1       2.791   3.812  19.359  0.00  0.00    +0.000 A 
ATOM     10  C   UNL     1       3.498   3.260  20.435  0.00  0.00    +0.000 A 
ATOM     11  C   UNL     1       2.817   2.736  21.538  0.00  0.00    +0.000 A 
ATOM     12  C   UNL     1       1.428   2.790  21.591  0.00  0.00    +0.000 A 
ATOM     13  C   UNL     1       0.716   3.334  20.524  0.00  0.00    +0.000 A 
ATOM     14  C   UNL     1       1.395   3.809  19.399  0.00  0.00    +0.000 A 
ENDBRANCH   3   9
BRANCH   6  15
ATOM     15  C   UNL     1       5.692   4.560  15.031  0.00  0.00    +0.000 A 
ATOM     16  C   UNL     1       6.979   5.112  14.998  0.00  0.00    +0.000 A 
ATOM     17  C   UNL     1       7.766   4.994  13.850  0.00  0.00    +0.000 A 
ATOM     18  C   UNL     1       7.280   4.316  12.738  0.00  0.00    +0.000 A 
ATOM     19  C   UNL     1       6.005   3.749  12.770  0.00  0.00    +0.000 A 
ATOM     20  C   UNL     1       5.213   3.873  13.913  0.00  0.00    +0.000 A 
ENDBRANCH   6  15
BRANCH   5  21
ATOM     21  O   UNL     1       3.757   1.545  17.604  0.00  0.00    +0.000 OA
ATOM     22  H   UNL     1       3.270   2.135  18.211  0.00  0.00    +0.000 HD
ENDBRANCH   5  21
TORSDOF 3
ENDMDL
