MODEL 1
REMARK VINA RESULT:      -8.0      0.000      0.000
REMARK  Name = 
REMARK  6 active torsions:
REMARK  status: ('A' for Active; 'I' for Inactive)
REMARK    1  A    between atoms: C_2  and  C_3
REMARK    2  A    between atoms: C_6  and  N_7
REMARK    3  A    between atoms: N_10  and  C_11
REMARK    4  A    between atoms: C_11  and  C_12
REMARK    5  A    between atoms: C_12  and  C_13
REMARK    6  A    between atoms: C_13  and  C_15
REMARK                            x       y       z     vdW  Elec       q    Type
REMARK                         _______ _______ _______ _____ _____    ______ ____
ROOT
ATOM      1  C   UNL     1       0.196  10.048  18.948  0.00  0.00    +0.000 C 
ENDROOT
BRANCH   1   5
ATOM      2  N   UNL     1      -1.525  12.359  21.063  0.00  0.00    +0.000 N 
ATOM      3  C   UNL     1      -2.097  11.906  19.787  0.00  0.00    +0.000 C 
ATOM      4  C   UNL     1      -1.069  12.121  18.651  0.00  0.00    +0.000 C 
ATOM      5  N   UNL     1       0.268  11.524  18.895  0.00  0.00    +0.000 NA
ATOM      6  C   UNL     1       0.763  12.075  20.189  0.00  0.00    +0.000 C 
ATOM      7  C   UNL     1      -0.187  11.842  21.385  0.00  0.00    +0.000 C 
BRANCH   2  11
ATOM      8  C   UNL     1      -3.539  15.119  23.520  0.00  0.00    +0.000 A 
ATOM      9  C   UNL     1      -2.962  15.533  22.321  0.00  0.00    +0.000 A 
ATOM     10  C   UNL     1      -2.292  14.606  21.520  0.00  0.00    +0.000 A 
ATOM     11  C   UNL     1      -2.194  13.251  21.872  0.00  0.00    +0.000 A 
ATOM     12  C   UNL     1      -2.819  12.870  23.076  0.00  0.00    +0.000 A 
ATOM     13  F   UNL     1      -2.762  11.598  23.506  0.00  0.00    +0.000 F 
ATOM     14  C   UNL     1      -3.478  13.781  23.893  0.00  0.00    +0.000 A 
BRANCH   8  16
ATOM     15  N   UNL     1      -4.691  16.850  25.064  0.00  0.00    +0.000 NA
ATOM     16  C   UNL     1      -4.176  16.067  24.368  0.00  0.00    +0.000 C 
ENDBRANCH   8  16
ENDBRANCH   2  11
ENDBRANCH   1   5
BRANCH   1  17
ATOM     17  C   UNL     1       1.575   9.415  19.114  0.00  0.00    +0.000 C 
BRANCH  17  18
ATOM     18  C   UNL     1       1.601   8.459  20.280  0.00  0.00    +0.000 C 
ATOM     19  O   UNL     1       1.360   8.809  21.432  0.00  0.00    +0.000 OA
BRANCH  18  20
ATOM     20  C   UNL     1       1.919   7.033  19.990  0.00  0.00    +0.000 A 
ATOM     21  C   UNL     1       2.752   6.760  18.880  0.00  0.00    +0.000 A 
ATOM     22  C   UNL     1       3.040   5.444  18.535  0.00  0.00    +0.000 A 
ATOM     23  C   UNL     1       2.495   4.458  19.334  0.00  0.00    +0.000 A 
ATOM     24  C   UNL     1       1.709   4.691  20.445  0.00  0.00    +0.000 A 
ATOM     25  C   UNL     1       1.400   5.988  20.787  0.00  0.00    +0.000 A 
ATOM     26  C   UNL     1       1.310   3.395  21.082  0.00  0.00    +0.000 C 
ATOM     27  C   UNL     1       2.029   2.351  20.191  0.00  0.00    +0.000 C 
ATOM     28  N   UNL     1       2.694   3.106  19.130  0.00  0.00    +0.000 N 
ATOM     29  C   UNL     1       3.383   2.613  18.055  0.00  0.00    +0.000 C 
ATOM     30  O   UNL     1       3.720   1.436  17.942  0.00  0.00    +0.000 OA
ATOM     31  C   UNL     1       3.555   3.624  16.923  0.00  0.00    +0.000 C 
ATOM     32  C   UNL     1       3.940   5.021  17.416  0.00  0.00    +0.000 C 
ENDBRANCH  18  20
ENDBRANCH  17  18
ENDBRANCH   1  17
TORSDOF 6
ENDMDL
MODEL 2
REMARK VINA RESULT:      -7.8      1.183      1.192
REMARK  Name = 
REMARK  6 active torsions:
REMARK  status: ('A' for Active; 'I' for Inactive)
REMARK    1  A    between atoms: C_2  and  C_3
REMARK    2  A    between atoms: C_6  and  N_7
REMARK    3  A    between atoms: N_10  and  C_11
REMARK    4  A    between atoms: C_11  and  C_12
REMARK    5  A    between atoms: C_12  and  C_13
REMARK    6  A    between atoms: C_13  and  C_15
REMARK                            x       y       z     vdW  Elec       q    Type
REMARK                         _______ _______ _______ _____ _____    ______ ____
ROOT
ATOM      1  C   UNL     1       1.392  10.672  19.187  0.00  0.00    +0.000 C 
ENDROOT
BRANCH   1   5
ATOM      2  N   UNL     1      -1.459  12.044  20.849  0.00  0.00    +0.000 N 
ATOM      3  C   UNL     1      -1.445  10.661  20.352  0.00  0.00    +0.000 C 
ATOM      4  C   UNL     1      -1.032  10.647  18.862  0.00  0.00    +0.000 C 
ATOM      5  N   UNL     1       0.240  11.351  18.558  0.00  0.00    +0.000 NA
ATOM      6  C   UNL     1       0.102  12.743  19.073  0.00  0.00    +0.000 C 
ATOM      7  C   UNL     1      -0.251  12.835  20.574  0.00  0.00    +0.000 C 
BRANCH   2  11
ATOM      8  C   UNL     1      -4.827  13.677  22.773  0.00  0.00    +0.000 A 
ATOM      9  C   UNL     1      -4.577  13.957  21.431  0.00  0.00    +0.000 A 
ATOM     10  C   UNL     1      -3.452  13.412  20.809  0.00  0.00    +0.000 A 
ATOM     11  C   UNL     1      -2.562  12.565  21.488  0.00  0.00    +0.000 A 
ATOM     12  C   UNL     1      -2.870  12.283  22.834  0.00  0.00    +0.000 A 
ATOM     13  F   UNL     1      -2.066  11.499  23.572  0.00  0.00    +0.000 F 
ATOM     14  C   UNL     1      -3.978  12.828  23.473  0.00  0.00    +0.000 A 
BRANCH   8  16
ATOM     15  N   UNL     1      -6.860  14.757  23.960  0.00  0.00    +0.000 NA
ATOM     16  C   UNL     1      -5.941  14.272  23.428  0.00  0.00    +0.000 C 
ENDBRANCH   8  16
ENDBRANCH   2  11
ENDBRANCH   1   5
BRANCH   1  17
ATOM     17  C   UNL     1       1.437   9.186  18.843  0.00  0.00    +0.000 C 
BRANCH  17  18
ATOM     18  C   UNL     1       1.643   8.344  20.077  0.00  0.00    +0.000 C 
ATOM     19  O   UNL     1       1.544   8.797  21.214  0.00  0.00    +0.000 OA
BRANCH  18  20
ATOM     20  C   UNL     1       1.965   6.904  19.878  0.00  0.00    +0.000 A 
ATOM     21  C   UNL     1       2.809   6.563  18.795  0.00  0.00    +0.000 A 
ATOM     22  C   UNL     1       3.100   5.229  18.534  0.00  0.00    +0.000 A 
ATOM     23  C   UNL     1       2.548   4.294  19.387  0.00  0.00    +0.000 A 
ATOM     24  C   UNL     1       1.750   4.593  20.473  0.00  0.00    +0.000 A 
ATOM     25  C   UNL     1       1.437   5.909  20.732  0.00  0.00    +0.000 A 
ATOM     26  C   UNL     1       1.345   3.339  21.184  0.00  0.00    +0.000 C 
ATOM     27  C   UNL     1       2.073   2.243  20.366  0.00  0.00    +0.000 C 
ATOM     28  N   UNL     1       2.748   2.932  19.268  0.00  0.00    +0.000 N 
ATOM     29  C   UNL     1       3.449   2.374  18.232  0.00  0.00    +0.000 C 
ATOM     30  O   UNL     1       3.786   1.194  18.195  0.00  0.00    +0.000 OA
ATOM     31  C   UNL     1       3.632   3.314  17.042  0.00  0.00    +0.000 C 
ATOM     32  C   UNL     1       4.011   4.739  17.453  0.00  0.00    +0.000 C 
ENDBRANCH  18  20
ENDBRANCH  17  18
ENDBRANCH   1  17
TORSDOF 6
ENDMDL
MODEL 3
REMARK VINA RESULT:      -7.7      1.984      2.407
REMARK  Name = 
REMARK  6 active torsions:
REMARK  status: ('A' for Active; 'I' for Inactive)
REMARK    1  A    between atoms: C_2  and  C_3
REMARK    2  A    between atoms: C_6  and  N_7
REMARK    3  A    between atoms: N_10  and  C_11
REMARK    4  A    between atoms: C_11  and  C_12
REMARK    5  A    between atoms: C_12  and  C_13
REMARK    6  A    between atoms: C_13  and  C_15
REMARK                            x       y       z     vdW  Elec       q    Type
REMARK                         _______ _______ _______ _____ _____    ______ ____
ROOT
ATOM      1  C   UNL     1       0.893  12.320  18.842  0.00  0.00    +0.000 C 
ENDROOT
BRANCH   1   5
ATOM      2  N   UNL     1      -2.083  12.587  20.804  0.00  0.00    +0.000 N 
ATOM      3  C   UNL     1      -1.515  13.745  20.100  0.00  0.00    +0.000 C 
ATOM      4  C   UNL     1      -0.021  13.899  20.472  0.00  0.00    +0.000 C 
ATOM      5  N   UNL     1       0.802  12.679  20.273  0.00  0.00    +0.000 NA
ATOM      6  C   UNL     1       0.156  11.584  21.052  0.00  0.00    +0.000 C 
ATOM      7  C   UNL     1      -1.324  11.333  20.689  0.00  0.00    +0.000 C 
BRANCH   2  11
ATOM      8  C   UNL     1      -5.607  12.955  23.074  0.00  0.00    +0.000 A 
ATOM      9  C   UNL     1      -5.667  12.908  21.683  0.00  0.00    +0.000 A 
ATOM     10  C   UNL     1      -4.488  12.791  20.944  0.00  0.00    +0.000 A 
ATOM     11  C   UNL     1      -3.230  12.698  21.558  0.00  0.00    +0.000 A 
ATOM     12  C   UNL     1      -3.218  12.717  22.967  0.00  0.00    +0.000 A 
ATOM     13  F   UNL     1      -2.059  12.654  23.645  0.00  0.00    +0.000 F 
ATOM     14  C   UNL     1      -4.380  12.848  23.719  0.00  0.00    +0.000 A 
BRANCH   8  16
ATOM     15  N   UNL     1      -7.771  13.274  24.461  0.00  0.00    +0.000 NA
ATOM     16  C   UNL     1      -6.798  13.128  23.832  0.00  0.00    +0.000 C 
ENDBRANCH   8  16
ENDBRANCH   2  11
ENDBRANCH   1   5
BRANCH   1  17
ATOM     17  C   UNL     1       1.876  11.177  18.602  0.00  0.00    +0.000 C 
BRANCH  17  18
ATOM     18  C   UNL     1       1.154   9.900  18.251  0.00  0.00    +0.000 C 
ATOM     19  O   UNL     1       0.038   9.886  17.738  0.00  0.00    +0.000 OA
BRANCH  18  20
ATOM     20  C   UNL     1       1.855   8.617  18.534  0.00  0.00    +0.000 A 
ATOM     21  C   UNL     1       2.912   8.242  17.672  0.00  0.00    +0.000 A 
ATOM     22  C   UNL     1       3.567   7.031  17.862  0.00  0.00    +0.000 A 
ATOM     23  C   UNL     1       3.147   6.256  18.925  0.00  0.00    +0.000 A 
ATOM     24  C   UNL     1       2.144   6.608  19.806  0.00  0.00    +0.000 A 
ATOM     25  C   UNL     1       1.473   7.796  19.619  0.00  0.00    +0.000 A 
ATOM     26  C   UNL     1       1.966   5.543  20.845  0.00  0.00    +0.000 C 
ATOM     27  C   UNL     1       3.063   4.518  20.462  0.00  0.00    +0.000 C 
ATOM     28  N   UNL     1       3.701   5.033  19.252  0.00  0.00    +0.000 N 
ATOM     29  C   UNL     1       4.668   4.432  18.492  0.00  0.00    +0.000 C 
ATOM     30  O   UNL     1       5.295   3.437  18.849  0.00  0.00    +0.000 OA
ATOM     31  C   UNL     1       4.786   5.010  17.084  0.00  0.00    +0.000 C 
ATOM     32  C   UNL     1       4.726   6.539  17.052  0.00  0.00    +0.000 C 
ENDBRANCH  18  20
ENDBRANCH  17  18
ENDBRANCH   1  17
TORSDOF 6
ENDMDL
MODEL 4
REMARK VINA RESULT:      -7.7      1.194      2.265
REMARK  Name = 
REMARK  6 active torsions:
REMARK  status: ('A' for Active; 'I' for Inactive)
REMARK    1  A    between atoms: C_2  and  C_3
REMARK    2  A    between atoms: C_6  and  N_7
REMARK    3  A    between atoms: N_10  and  C_11
REMARK    4  A    between atoms: C_11  and  C_12
REMARK    5  A    between atoms: C_12  and  C_13
REMARK    6  A    between atoms: C_13  and  C_15
REMARK                            x       y       z     vdW  Elec       q    Type
REMARK                         _______ _______ _______ _____ _____    ______ ____
ROOT
ATOM      1  C   UNL     1       0.056  10.147  18.745  0.00  0.00    +0.000 C 
ENDROOT
BRANCH   1   5
ATOM      2  N   UNL     1      -2.023  12.355  20.636  0.00  0.00    +0.000 N 
ATOM      3  C   UNL     1      -2.412  11.882  19.301  0.00  0.00    +0.000 C 
ATOM      4  C   UNL     1      -1.267  12.155  18.297  0.00  0.00    +0.000 C 
ATOM      5  N   UNL     1       0.059  11.625  18.701  0.00  0.00    +0.000 NA
ATOM      6  C   UNL     1       0.366  12.192  20.045  0.00  0.00    +0.000 C 
ATOM      7  C   UNL     1      -0.708  11.905  21.117  0.00  0.00    +0.000 C 
BRANCH   2  11
ATOM      8  C   UNL     1      -4.526  14.929  22.831  0.00  0.00    +0.000 A 
ATOM      9  C   UNL     1      -4.788  13.562  22.785  0.00  0.00    +0.000 A 
ATOM     10  C   UNL     1      -3.951  12.722  22.047  0.00  0.00    +0.000 A 
ATOM     11  C   UNL     1      -2.829  13.207  21.358  0.00  0.00    +0.000 A 
ATOM     12  C   UNL     1      -2.583  14.591  21.458  0.00  0.00    +0.000 A 
ATOM     13  F   UNL     1      -1.544  15.151  20.816  0.00  0.00    +0.000 F 
ATOM     14  C   UNL     1      -3.413  15.444  22.175  0.00  0.00    +0.000 A 
BRANCH   8  16
ATOM     15  N   UNL     1      -6.121  16.511  24.121  0.00  0.00    +0.000 NA
ATOM     16  C   UNL     1      -5.404  15.799  23.535  0.00  0.00    +0.000 C 
ENDBRANCH   8  16
ENDBRANCH   2  11
ENDBRANCH   1   5
BRANCH   1  17
ATOM     17  C   UNL     1       1.468   9.577  18.851  0.00  0.00    +0.000 C 
BRANCH  17  18
ATOM     18  C   UNL     1       1.561   8.547  19.949  0.00  0.00    +0.000 C 
ATOM     19  O   UNL     1       1.217   8.776  21.105  0.00  0.00    +0.000 OA
BRANCH  18  20
ATOM     20  C   UNL     1       2.080   7.200  19.582  0.00  0.00    +0.000 A 
ATOM     21  C   UNL     1       1.753   6.117  20.431  0.00  0.00    +0.000 A 
ATOM     22  C   UNL     1       2.253   4.848  20.162  0.00  0.00    +0.000 A 
ATOM     23  C   UNL     1       3.044   4.717  19.039  0.00  0.00    +0.000 A 
ATOM     24  C   UNL     1       3.354   5.744  18.170  0.00  0.00    +0.000 A 
ATOM     25  C   UNL     1       2.881   7.010  18.433  0.00  0.00    +0.000 A 
ATOM     26  C   UNL     1       4.214   5.240  17.052  0.00  0.00    +0.000 C 
ATOM     27  C   UNL     1       4.328   3.729  17.375  0.00  0.00    +0.000 C 
ATOM     28  N   UNL     1       3.608   3.523  18.631  0.00  0.00    +0.000 N 
ATOM     29  C   UNL     1       3.505   2.368  19.359  0.00  0.00    +0.000 C 
ATOM     30  O   UNL     1       3.845   1.265  18.939  0.00  0.00    +0.000 OA
ATOM     31  C   UNL     1       3.081   2.596  20.808  0.00  0.00    +0.000 C 
ATOM     32  C   UNL     1       1.947   3.614  20.952  0.00  0.00    +0.000 C 
ENDBRANCH  18  20
ENDBRANCH  17  18
ENDBRANCH   1  17
TORSDOF 6
ENDMDL
MODEL 5
REMARK VINA RESULT:      -7.7      0.944      1.022
REMARK  Name = 
REMARK  6 active torsions:
REMARK  status: ('A' for Active; 'I' for Inactive)
REMARK    1  A    between atoms: C_2  and  C_3
REMARK    2  A    between atoms: C_6  and  N_7
REMARK    3  A    between atoms: N_10  and  C_11
REMARK    4  A    between atoms: C_11  and  C_12
REMARK    5  A    between atoms: C_12  and  C_13
REMARK    6  A    between atoms: C_13  and  C_15
REMARK                            x       y       z     vdW  Elec       q    Type
REMARK                         _______ _______ _______ _____ _____    ______ ____
ROOT
ATOM      1  C   UNL     1       0.226  10.056  18.922  0.00  0.00    +0.000 C 
ENDROOT
BRANCH   1   5
ATOM      2  N   UNL     1      -1.577  12.328  21.011  0.00  0.00    +0.000 N 
ATOM      3  C   UNL     1      -1.983  12.066  19.622  0.00  0.00    +0.000 C 
ATOM      4  C   UNL     1      -0.775  12.274  18.678  0.00  0.00    +0.000 C 
ATOM      5  N   UNL     1       0.445  11.512  19.046  0.00  0.00    +0.000 NA
ATOM      6  C   UNL     1       0.782  11.878  20.451  0.00  0.00    +0.000 C 
ATOM      7  C   UNL     1      -0.361  11.637  21.463  0.00  0.00    +0.000 C 
BRANCH   2  11
ATOM      8  C   UNL     1      -3.687  15.046  23.433  0.00  0.00    +0.000 A 
ATOM      9  C   UNL     1      -3.141  15.460  22.220  0.00  0.00    +0.000 A 
ATOM     10  C   UNL     1      -2.439  14.547  21.430  0.00  0.00    +0.000 A 
ATOM     11  C   UNL     1      -2.277  13.205  21.808  0.00  0.00    +0.000 A 
ATOM     12  C   UNL     1      -2.873  12.822  23.027  0.00  0.00    +0.000 A 
ATOM     13  F   UNL     1      -2.755  11.563  23.482  0.00  0.00    +0.000 F 
ATOM     14  C   UNL     1      -3.563  13.720  23.832  0.00  0.00    +0.000 A 
BRANCH   8  16
ATOM     15  N   UNL     1      -4.912  16.754  24.947  0.00  0.00    +0.000 NA
ATOM     16  C   UNL     1      -4.357  15.983  24.268  0.00  0.00    +0.000 C 
ENDBRANCH   8  16
ENDBRANCH   2  11
ENDBRANCH   1   5
BRANCH   1  17
ATOM     17  C   UNL     1       1.366   9.252  19.542  0.00  0.00    +0.000 C 
BRANCH  17  18
ATOM     18  C   UNL     1       2.132   8.489  18.491  0.00  0.00    +0.000 C 
ATOM     19  O   UNL     1       2.530   9.007  17.451  0.00  0.00    +0.000 OA
BRANCH  18  20
ATOM     20  C   UNL     1       2.417   7.052  18.760  0.00  0.00    +0.000 A 
ATOM     21  C   UNL     1       3.175   6.342  17.800  0.00  0.00    +0.000 A 
ATOM     22  C   UNL     1       3.427   4.987  17.978  0.00  0.00    +0.000 A 
ATOM     23  C   UNL     1       2.924   4.406  19.124  0.00  0.00    +0.000 A 
ATOM     24  C   UNL     1       2.210   5.076  20.098  0.00  0.00    +0.000 A 
ATOM     25  C   UNL     1       1.937   6.414  19.927  0.00  0.00    +0.000 A 
ATOM     26  C   UNL     1       1.839   4.141  21.209  0.00  0.00    +0.000 C 
ATOM     27  C   UNL     1       2.490   2.810  20.755  0.00  0.00    +0.000 C 
ATOM     28  N   UNL     1       3.095   3.074  19.450  0.00  0.00    +0.000 N 
ATOM     29  C   UNL     1       3.711   2.180  18.615  0.00  0.00    +0.000 C 
ATOM     30  O   UNL     1       4.027   1.041  18.950  0.00  0.00    +0.000 OA
ATOM     31  C   UNL     1       3.822   2.669  17.173  0.00  0.00    +0.000 C 
ATOM     32  C   UNL     1       4.251   4.134  17.064  0.00  0.00    +0.000 C 
ENDBRANCH  18  20
ENDBRANCH  17  18
ENDBRANCH   1  17
TORSDOF 6
ENDMDL
MODEL 6
REMARK VINA RESULT:      -7.7      0.820      1.941
REMARK  Name = 
REMARK  6 active torsions:
REMARK  status: ('A' for Active; 'I' for Inactive)
REMARK    1  A    between atoms: C_2  and  C_3
REMARK    2  A    between atoms: C_6  and  N_7
REMARK    3  A    between atoms: N_10  and  C_11
REMARK    4  A    between atoms: C_11  and  C_12
REMARK    5  A    between atoms: C_12  and  C_13
REMARK    6  A    between atoms: C_13  and  C_15
REMARK                            x       y       z     vdW  Elec       q    Type
REMARK                         _______ _______ _______ _____ _____    ______ ____
ROOT
ATOM      1  C   UNL     1       0.090  10.382  19.286  0.00  0.00    +0.000 C 
ENDROOT
BRANCH   1   5
ATOM      2  N   UNL     1      -1.654  12.759  21.307  0.00  0.00    +0.000 N 
ATOM      3  C   UNL     1      -1.995  12.550  19.893  0.00  0.00    +0.000 C 
ATOM      4  C   UNL     1      -0.719  12.676  19.026  0.00  0.00    +0.000 C 
ATOM      5  N   UNL     1       0.414  11.815  19.450  0.00  0.00    +0.000 NA
ATOM      6  C   UNL     1       0.693  12.133  20.879  0.00  0.00    +0.000 C 
ATOM      7  C   UNL     1      -0.524  11.969  21.817  0.00  0.00    +0.000 C 
BRANCH   2  11
ATOM      8  C   UNL     1      -3.679  15.580  23.684  0.00  0.00    +0.000 A 
ATOM      9  C   UNL     1      -2.395  15.847  23.213  0.00  0.00    +0.000 A 
ATOM     10  C   UNL     1      -1.735  14.898  22.430  0.00  0.00    +0.000 A 
ATOM     11  C   UNL     1      -2.331  13.677  22.079  0.00  0.00    +0.000 A 
ATOM     12  C   UNL     1      -3.642  13.462  22.549  0.00  0.00    +0.000 A 
ATOM     13  F   UNL     1      -4.287  12.315  22.281  0.00  0.00    +0.000 F 
ATOM     14  C   UNL     1      -4.309  14.389  23.341  0.00  0.00    +0.000 A 
BRANCH   8  16
ATOM     15  N   UNL     1      -4.870  17.293  25.220  0.00  0.00    +0.000 NA
ATOM     16  C   UNL     1      -4.337  16.518  24.527  0.00  0.00    +0.000 C 
ENDBRANCH   8  16
ENDBRANCH   2  11
ENDBRANCH   1   5
BRANCH   1  17
ATOM     17  C   UNL     1       1.332   9.548  18.985  0.00  0.00    +0.000 C 
BRANCH  17  18
ATOM     18  C   UNL     1       1.593   8.541  20.077  0.00  0.00    +0.000 C 
ATOM     19  O   UNL     1       1.394   8.782  21.265  0.00  0.00    +0.000 OA
BRANCH  18  20
ATOM     20  C   UNL     1       2.096   7.201  19.667  0.00  0.00    +0.000 A 
ATOM     21  C   UNL     1       1.751   6.094  20.477  0.00  0.00    +0.000 A 
ATOM     22  C   UNL     1       2.236   4.828  20.167  0.00  0.00    +0.000 A 
ATOM     23  C   UNL     1       3.030   4.725  19.042  0.00  0.00    +0.000 A 
ATOM     24  C   UNL     1       3.357   5.777  18.210  0.00  0.00    +0.000 A 
ATOM     25  C   UNL     1       2.899   7.039  18.515  0.00  0.00    +0.000 A 
ATOM     26  C   UNL     1       4.215   5.300  17.078  0.00  0.00    +0.000 C 
ATOM     27  C   UNL     1       4.309   3.777  17.351  0.00  0.00    +0.000 C 
ATOM     28  N   UNL     1       3.581   3.538  18.596  0.00  0.00    +0.000 N 
ATOM     29  C   UNL     1       3.460   2.361  19.284  0.00  0.00    +0.000 C 
ATOM     30  O   UNL     1       3.788   1.268  18.828  0.00  0.00    +0.000 OA
ATOM     31  C   UNL     1       3.033   2.545  20.739  0.00  0.00    +0.000 C 
ATOM     32  C   UNL     1       1.911   3.572  20.913  0.00  0.00    +0.000 C 
ENDBRANCH  18  20
ENDBRANCH  17  18
ENDBRANCH   1  17
TORSDOF 6
ENDMDL
MODEL 7
REMARK VINA RESULT:      -7.6      3.534      5.076
REMARK  Name = 
REMARK  6 active torsions:
REMARK  status: ('A' for Active; 'I' for Inactive)
REMARK    1  A    between atoms: C_2  and  C_3
REMARK    2  A    between atoms: C_6  and  N_7
REMARK    3  A    between atoms: N_10  and  C_11
REMARK    4  A    between atoms: C_11  and  C_12
REMARK    5  A    between atoms: C_12  and  C_13
REMARK    6  A    between atoms: C_13  and  C_15
REMARK                            x       y       z     vdW  Elec       q    Type
REMARK                         _______ _______ _______ _____ _____    ______ ____
ROOT
ATOM      1  C   UNL     1       1.259   5.988  20.032  0.00  0.00    +0.000 C 
ENDROOT
BRANCH   1   5
ATOM      2  N   UNL     1       0.684   9.477  19.508  0.00  0.00    +0.000 N 
ATOM      3  C   UNL     1       1.242   8.618  18.453  0.00  0.00    +0.000 C 
ATOM      4  C   UNL     1       2.467   7.849  19.001  0.00  0.00    +0.000 C 
ATOM      5  N   UNL     1       2.220   7.089  20.253  0.00  0.00    +0.000 NA
ATOM      6  C   UNL     1       1.692   8.058  21.255  0.00  0.00    +0.000 C 
ATOM      7  C   UNL     1       0.428   8.821  20.798  0.00  0.00    +0.000 C 
BRANCH   2  11
ATOM      8  C   UNL     1       0.040  13.592  18.908  0.00  0.00    +0.000 A 
ATOM      9  C   UNL     1       1.173  13.147  19.588  0.00  0.00    +0.000 A 
ATOM     10  C   UNL     1       1.368  11.778  19.784  0.00  0.00    +0.000 A 
ATOM     11  C   UNL     1       0.466  10.820  19.298  0.00  0.00    +0.000 A 
ATOM     12  C   UNL     1      -0.648  11.312  18.589  0.00  0.00    +0.000 A 
ATOM     13  F   UNL     1      -1.578  10.472  18.102  0.00  0.00    +0.000 F 
ATOM     14  C   UNL     1      -0.867  12.671  18.397  0.00  0.00    +0.000 A 
BRANCH   8  16
ATOM     15  N   UNL     1      -0.390  16.129  18.617  0.00  0.00    +0.000 NA
ATOM     16  C   UNL     1      -0.194  14.986  18.753  0.00  0.00    +0.000 C 
ENDBRANCH   8  16
ENDBRANCH   2  11
ENDBRANCH   1   5
BRANCH   1  17
ATOM     17  C   UNL     1       1.683   4.708  20.748  0.00  0.00    +0.000 C 
BRANCH  17  18
ATOM     18  C   UNL     1       2.268   3.709  19.781  0.00  0.00    +0.000 C 
ATOM     19  O   UNL     1       1.798   2.585  19.623  0.00  0.00    +0.000 OA
BRANCH  18  20
ATOM     20  C   UNL     1       3.453   4.136  18.988  0.00  0.00    +0.000 A 
ATOM     21  C   UNL     1       3.410   3.945  17.588  0.00  0.00    +0.000 A 
ATOM     22  C   UNL     1       4.510   4.280  16.806  0.00  0.00    +0.000 A 
ATOM     23  C   UNL     1       5.600   4.813  17.463  0.00  0.00    +0.000 A 
ATOM     24  C   UNL     1       5.663   5.046  18.823  0.00  0.00    +0.000 A 
ATOM     25  C   UNL     1       4.589   4.702  19.612  0.00  0.00    +0.000 A 
ATOM     26  C   UNL     1       6.984   5.651  19.188  0.00  0.00    +0.000 C 
ATOM     27  C   UNL     1       7.683   5.781  17.811  0.00  0.00    +0.000 C 
ATOM     28  N   UNL     1       6.764   5.205  16.830  0.00  0.00    +0.000 N 
ATOM     29  C   UNL     1       6.977   5.016  15.490  0.00  0.00    +0.000 C 
ATOM     30  O   UNL     1       7.922   5.506  14.875  0.00  0.00    +0.000 OA
ATOM     31  C   UNL     1       6.027   4.003  14.857  0.00  0.00    +0.000 C 
ATOM     32  C   UNL     1       4.575   4.170  15.315  0.00  0.00    +0.000 C 
ENDBRANCH  18  20
ENDBRANCH  17  18
ENDBRANCH   1  17
TORSDOF 6
ENDMDL
MODEL 8
REMARK VINA RESULT:      -7.6      1.448      1.861
REMARK  Name = 
REMARK  6 active torsions:
REMARK  status: ('A' for Active; 'I' for Inactive)
REMARK    1  A    between atoms: C_2  and  C_3
REMARK    2  A    between atoms: C_6  and  N_7
REMARK    3  A    between atoms: N_10  and  C_11
REMARK    4  A    between atoms: C_11  and  C_12
REMARK    5  A    between atoms: C_12  and  C_13
REMARK    6  A    between atoms: C_13  and  C_15
REMARK                            x       y       z     vdW  Elec       q    Type
REMARK                         _______ _______ _______ _____ _____    ______ ____
ROOT
ATOM      1  C   UNL     1       0.084  10.074  19.466  0.00  0.00    +0.000 C 
ENDROOT
BRANCH   1   5
ATOM      2  N   UNL     1      -1.684  12.504  21.402  0.00  0.00    +0.000 N 
ATOM      3  C   UNL     1      -1.958  12.308  19.972  0.00  0.00    +0.000 C 
ATOM      4  C   UNL     1      -0.636  12.394  19.172  0.00  0.00    +0.000 C 
ATOM      5  N   UNL     1       0.445  11.496  19.651  0.00  0.00    +0.000 NA
ATOM      6  C   UNL     1       0.661  11.803  21.093  0.00  0.00    +0.000 C 
ATOM      7  C   UNL     1      -0.608  11.677  21.967  0.00  0.00    +0.000 C 
BRANCH   2  11
ATOM      8  C   UNL     1      -3.736  15.383  23.685  0.00  0.00    +0.000 A 
ATOM      9  C   UNL     1      -2.381  15.544  23.400  0.00  0.00    +0.000 A 
ATOM     10  C   UNL     1      -1.714  14.577  22.646  0.00  0.00    +0.000 A 
ATOM     11  C   UNL     1      -2.368  13.443  22.141  0.00  0.00    +0.000 A 
ATOM     12  C   UNL     1      -3.744  13.336  22.426  0.00  0.00    +0.000 A 
ATOM     13  F   UNL     1      -4.452  12.275  22.002  0.00  0.00    +0.000 F 
ATOM     14  C   UNL     1      -4.422  14.281  23.187  0.00  0.00    +0.000 A 
BRANCH   8  16
ATOM     15  N   UNL     1      -4.966  17.123  25.158  0.00  0.00    +0.000 NA
ATOM     16  C   UNL     1      -4.410  16.336  24.498  0.00  0.00    +0.000 C 
ENDBRANCH   8  16
ENDBRANCH   2  11
ENDBRANCH   1   5
BRANCH   1  17
ATOM     17  C   UNL     1       1.176   9.299  18.735  0.00  0.00    +0.000 C 
BRANCH  17  18
ATOM     18  C   UNL     1       1.719   8.181  19.590  0.00  0.00    +0.000 C 
ATOM     19  O   UNL     1       1.547   8.131  20.805  0.00  0.00    +0.000 OA
BRANCH  18  20
ATOM     20  C   UNL     1       2.480   7.101  18.903  0.00  0.00    +0.000 A 
ATOM     21  C   UNL     1       3.440   7.485  17.939  0.00  0.00    +0.000 A 
ATOM     22  C   UNL     1       4.142   6.515  17.232  0.00  0.00    +0.000 A 
ATOM     23  C   UNL     1       3.864   5.198  17.541  0.00  0.00    +0.000 A 
ATOM     24  C   UNL     1       2.960   4.789  18.501  0.00  0.00    +0.000 A 
ATOM     25  C   UNL     1       2.244   5.738  19.195  0.00  0.00    +0.000 A 
ATOM     26  C   UNL     1       2.928   3.293  18.583  0.00  0.00    +0.000 C 
ATOM     27  C   UNL     1       3.999   2.880  17.542  0.00  0.00    +0.000 C 
ATOM     28  N   UNL     1       4.481   4.120  16.936  0.00  0.00    +0.000 N 
ATOM     29  C   UNL     1       5.370   4.259  15.904  0.00  0.00    +0.000 C 
ATOM     30  O   UNL     1       6.057   3.338  15.468  0.00  0.00    +0.000 OA
ATOM     31  C   UNL     1       5.312   5.627  15.228  0.00  0.00    +0.000 C 
ATOM     32  C   UNL     1       5.212   6.787  16.222  0.00  0.00    +0.000 C 
ENDBRANCH  18  20
ENDBRANCH  17  18
ENDBRANCH   1  17
TORSDOF 6
ENDMDL
MODEL 9
REMARK VINA RESULT:      -7.6      3.241     10.547
REMARK  Name = 
REMARK  6 active torsions:
REMARK  status: ('A' for Active; 'I' for Inactive)
REMARK    1  A    between atoms: C_2  and  C_3
REMARK    2  A    between atoms: C_6  and  N_7
REMARK    3  A    between atoms: N_10  and  C_11
REMARK    4  A    between atoms: C_11  and  C_12
REMARK    5  A    between atoms: C_12  and  C_13
REMARK    6  A    between atoms: C_13  and  C_15
REMARK                            x       y       z     vdW  Elec       q    Type
REMARK                         _______ _______ _______ _____ _____    ______ ____
ROOT
ATOM      1  C   UNL     1       1.017  11.383  19.980  0.00  0.00    +0.000 C 
ENDROOT
BRANCH   1   5
ATOM      2  N   UNL     1       1.972   7.996  19.354  0.00  0.00    +0.000 N 
ATOM      3  C   UNL     1       1.844   8.977  18.266  0.00  0.00    +0.000 C 
ATOM      4  C   UNL     1       0.457   9.657  18.339  0.00  0.00    +0.000 C 
ATOM      5  N   UNL     1       0.120  10.253  19.657  0.00  0.00    +0.000 NA
ATOM      6  C   UNL     1       0.249   9.170  20.672  0.00  0.00    +0.000 C 
ATOM      7  C   UNL     1       1.634   8.484  20.699  0.00  0.00    +0.000 C 
BRANCH   2  11
ATOM      8  C   UNL     1       3.097   4.023  18.542  0.00  0.00    +0.000 A 
ATOM      9  C   UNL     1       3.566   5.065  17.745  0.00  0.00    +0.000 A 
ATOM     10  C   UNL     1       3.179   6.378  18.025  0.00  0.00    +0.000 A 
ATOM     11  C   UNL     1       2.340   6.693  19.104  0.00  0.00    +0.000 A 
ATOM     12  C   UNL     1       1.914   5.612  19.903  0.00  0.00    +0.000 A 
ATOM     13  F   UNL     1       1.092   5.813  20.947  0.00  0.00    +0.000 F 
ATOM     14  C   UNL     1       2.278   4.298  19.631  0.00  0.00    +0.000 A 
BRANCH   8  16
ATOM     15  N   UNL     1       3.732   1.575  17.984  0.00  0.00    +0.000 NA
ATOM     16  C   UNL     1       3.443   2.679  18.232  0.00  0.00    +0.000 C 
ENDBRANCH   8  16
ENDBRANCH   2  11
ENDBRANCH   1   5
BRANCH   1  17
ATOM     17  C   UNL     1       0.265  12.538  20.637  0.00  0.00    +0.000 C 
BRANCH  17  18
ATOM     18  C   UNL     1      -0.966  12.909  19.849  0.00  0.00    +0.000 C 
ATOM     19  O   UNL     1      -0.927  13.211  18.659  0.00  0.00    +0.000 OA
BRANCH  18  20
ATOM     20  C   UNL     1      -2.271  12.883  20.565  0.00  0.00    +0.000 A 
ATOM     21  C   UNL     1      -2.250  13.023  21.972  0.00  0.00    +0.000 A 
ATOM     22  C   UNL     1      -3.437  12.956  22.695  0.00  0.00    +0.000 A 
ATOM     23  C   UNL     1      -4.597  12.772  21.969  0.00  0.00    +0.000 A 
ATOM     24  C   UNL     1      -4.657  12.668  20.594  0.00  0.00    +0.000 A 
ATOM     25  C   UNL     1      -3.488  12.713  19.867  0.00  0.00    +0.000 A 
ATOM     26  C   UNL     1      -6.076  12.496  20.145  0.00  0.00    +0.000 C 
ATOM     27  C   UNL     1      -6.857  12.561  21.482  0.00  0.00    +0.000 C 
ATOM     28  N   UNL     1      -5.854  12.694  22.537  0.00  0.00    +0.000 N 
ATOM     29  C   UNL     1      -6.057  12.703  23.891  0.00  0.00    +0.000 C 
ATOM     30  O   UNL     1      -7.164  12.808  24.414  0.00  0.00    +0.000 OA
ATOM     31  C   UNL     1      -4.797  12.404  24.700  0.00  0.00    +0.000 C 
ATOM     32  C   UNL     1      -3.557  13.133  24.176  0.00  0.00    +0.000 C 
ENDBRANCH  18  20
ENDBRANCH  17  18
ENDBRANCH   1  17
TORSDOF 6
ENDMDL
