MODEL 1
REMARK VINA RESULT:      -6.9      0.000      0.000
REMARK  Name = 
REMARK  9 active torsions:
REMARK  status: ('A' for Active; 'I' for Inactive)
REMARK    1  A    between atoms: C_1  and  N_2
REMARK    2  A    between atoms: C_3  and  C_5
REMARK    3  A    between atoms: C_8  and  N_9
REMARK    4  A    between atoms: C_10  and  C_12
REMARK    5  A    between atoms: C_14  and  C_15
REMARK    6  A    between atoms: N_18  and  C_19
REMARK    7  A    between atoms: C_19  and  C_20
REMARK    8  A    between atoms: C_19  and  C_21
REMARK    9  A    between atoms: C_19  and  C_22
REMARK                            x       y       z     vdW  Elec       q    Type
REMARK                         _______ _______ _______ _____ _____    ______ ____
ROOT
ATOM      1  N   UNL     1       0.767   9.595  20.148  0.00  0.00    +0.000 N 
ATOM      2  C   UNL     1       1.332   8.595  20.913  0.00  0.00    +0.000 C 
ATOM      3  O   UNL     1       1.426   8.649  22.136  0.00  0.00    +0.000 OA
ATOM      4  H   UNL     1       0.834   9.452  19.144  0.00  0.00    +0.000 HD
ENDROOT
BRANCH   1   8
ATOM      5  C   UNL     1      -0.187  12.859  18.545  0.00  0.00    +0.000 C 
ATOM      6  C   UNL     1       1.227  12.518  19.045  0.00  0.00    +0.000 C 
ATOM      7  C   UNL     1       1.242  11.999  20.487  0.00  0.00    +0.000 C 
ATOM      8  C   UNL     1       0.268  10.836  20.721  0.00  0.00    +0.000 C 
ATOM      9  C   UNL     1      -1.131  11.164  20.189  0.00  0.00    +0.000 C 
ATOM     10  C   UNL     1      -1.115  11.653  18.741  0.00  0.00    +0.000 C 
BRANCH   5  13
ATOM     11  C   UNL     1      -0.718  16.598  19.081  0.00  0.00    +0.000 C 
ATOM     12  N   UNL     1      -0.343  15.310  18.548  0.00  0.00    +0.000 N 
ATOM     13  C   UNL     1      -0.716  14.153  19.187  0.00  0.00    +0.000 C 
ATOM     14  O   UNL     1      -1.377  14.165  20.221  0.00  0.00    +0.000 OA
ATOM     15  H   UNL     1       0.270  15.284  17.743  0.00  0.00    +0.000 HD
ENDBRANCH   5  13
ENDBRANCH   1   8
BRANCH   2  16
ATOM     16  C   UNL     1       1.806   7.440  20.131  0.00  0.00    +0.000 A 
ATOM     17  C   UNL     1       2.566   7.489  18.939  0.00  0.00    +0.000 A 
ATOM     18  C   UNL     1       2.852   6.181  18.620  0.00  0.00    +0.000 A 
ATOM     19  N   UNL     1       2.230   5.409  19.578  0.00  0.00    +0.000 N 
ATOM     20  N   UNL     1       1.577   6.166  20.502  0.00  0.00    +0.000 NA
BRANCH  19  21
ATOM     21  C   UNL     1       2.152   3.935  19.672  0.00  0.00    +0.000 C 
ATOM     22  C   UNL     1       1.197   3.528  20.808  0.00  0.00    +0.000 C 
ATOM     23  C   UNL     1       1.601   3.309  18.364  0.00  0.00    +0.000 C 
ATOM     24  C   UNL     1       3.542   3.306  19.901  0.00  0.00    +0.000 C 
ENDBRANCH  19  21
BRANCH  18  25
ATOM     25  C   UNL     1       3.747   5.743  17.471  0.00  0.00    +0.000 C 
ATOM     26  C   UNL     1       4.664   6.751  16.829  0.00  0.00    +0.000 C 
ATOM     27  C   UNL     1       5.241   5.640  17.652  0.00  0.00    +0.000 C 
ENDBRANCH  18  25
ENDBRANCH   2  16
TORSDOF 5
ENDMDL
MODEL 2
REMARK VINA RESULT:      -6.7      2.475      8.588
REMARK  Name = 
REMARK  9 active torsions:
REMARK  status: ('A' for Active; 'I' for Inactive)
REMARK    1  A    between atoms: C_1  and  N_2
REMARK    2  A    between atoms: C_3  and  C_5
REMARK    3  A    between atoms: C_8  and  N_9
REMARK    4  A    between atoms: C_10  and  C_12
REMARK    5  A    between atoms: C_14  and  C_15
REMARK    6  A    between atoms: N_18  and  C_19
REMARK    7  A    between atoms: C_19  and  C_20
REMARK    8  A    between atoms: C_19  and  C_21
REMARK    9  A    between atoms: C_19  and  C_22
REMARK                            x       y       z     vdW  Elec       q    Type
REMARK                         _______ _______ _______ _____ _____    ______ ____
ROOT
ATOM      1  N   UNL     1       1.760   7.552  19.444  0.00  0.00    +0.000 N 
ATOM      2  C   UNL     1       1.981   8.598  18.572  0.00  0.00    +0.000 C 
ATOM      3  O   UNL     1       2.970   8.680  17.848  0.00  0.00    +0.000 OA
ATOM      4  H   UNL     1       0.945   7.660  20.041  0.00  0.00    +0.000 HD
ENDROOT
BRANCH   1   8
ATOM      5  C   UNL     1       1.345   3.827  19.147  0.00  0.00    +0.000 C 
ATOM      6  C   UNL     1       1.129   4.624  20.444  0.00  0.00    +0.000 C 
ATOM      7  C   UNL     1       2.306   5.545  20.783  0.00  0.00    +0.000 C 
ATOM      8  C   UNL     1       2.708   6.463  19.621  0.00  0.00    +0.000 C 
ATOM      9  C   UNL     1       2.887   5.673  18.320  0.00  0.00    +0.000 C 
ATOM     10  C   UNL     1       1.685   4.785  17.997  0.00  0.00    +0.000 C 
BRANCH   5  13
ATOM     11  C   UNL     1       3.863   1.119  18.210  0.00  0.00    +0.000 C 
ATOM     12  N   UNL     1       2.927   2.218  18.178  0.00  0.00    +0.000 N 
ATOM     13  C   UNL     1       2.377   2.703  19.338  0.00  0.00    +0.000 C 
ATOM     14  O   UNL     1       2.655   2.231  20.437  0.00  0.00    +0.000 OA
ATOM     15  H   UNL     1       2.624   2.565  17.276  0.00  0.00    +0.000 HD
ENDBRANCH   5  13
ENDBRANCH   1   8
BRANCH   2  16
ATOM     16  C   UNL     1       0.913   9.614  18.575  0.00  0.00    +0.000 A 
ATOM     17  C   UNL     1      -0.189   9.675  17.692  0.00  0.00    +0.000 A 
ATOM     18  C   UNL     1      -0.962  10.727  18.126  0.00  0.00    +0.000 A 
ATOM     19  N   UNL     1      -0.291  11.279  19.197  0.00  0.00    +0.000 N 
ATOM     20  N   UNL     1       0.863  10.615  19.476  0.00  0.00    +0.000 NA
BRANCH  19  21
ATOM     21  C   UNL     1      -0.641  12.477  19.991  0.00  0.00    +0.000 C 
ATOM     22  C   UNL     1      -2.038  12.308  20.614  0.00  0.00    +0.000 C 
ATOM     23  C   UNL     1       0.357  12.698  21.158  0.00  0.00    +0.000 C 
ATOM     24  C   UNL     1      -0.597  13.759  19.134  0.00  0.00    +0.000 C 
ENDBRANCH  19  21
BRANCH  18  25
ATOM     25  C   UNL     1      -2.316  11.108  17.547  0.00  0.00    +0.000 C 
ATOM     26  C   UNL     1      -2.878  10.302  16.405  0.00  0.00    +0.000 C 
ATOM     27  C   UNL     1      -3.522  10.226  17.757  0.00  0.00    +0.000 C 
ENDBRANCH  18  25
ENDBRANCH   2  16
TORSDOF 5
ENDMDL
MODEL 3
REMARK VINA RESULT:      -6.7      0.937      1.301
REMARK  Name = 
REMARK  9 active torsions:
REMARK  status: ('A' for Active; 'I' for Inactive)
REMARK    1  A    between atoms: C_1  and  N_2
REMARK    2  A    between atoms: C_3  and  C_5
REMARK    3  A    between atoms: C_8  and  N_9
REMARK    4  A    between atoms: C_10  and  C_12
REMARK    5  A    between atoms: C_14  and  C_15
REMARK    6  A    between atoms: N_18  and  C_19
REMARK    7  A    between atoms: C_19  and  C_20
REMARK    8  A    between atoms: C_19  and  C_21
REMARK    9  A    between atoms: C_19  and  C_22
REMARK                            x       y       z     vdW  Elec       q    Type
REMARK                         _______ _______ _______ _____ _____    ______ ____
ROOT
ATOM      1  N   UNL     1       1.147   9.689  20.246  0.00  0.00    +0.000 N 
ATOM      2  C   UNL     1       1.407   8.550  20.980  0.00  0.00    +0.000 C 
ATOM      3  O   UNL     1       1.284   8.486  22.200  0.00  0.00    +0.000 OA
ATOM      4  H   UNL     1       1.374   9.620  19.259  0.00  0.00    +0.000 HD
ENDROOT
BRANCH   1   8
ATOM      5  C   UNL     1      -0.721  12.644  18.861  0.00  0.00    +0.000 C 
ATOM      6  C   UNL     1       0.809  12.485  18.817  0.00  0.00    +0.000 C 
ATOM      7  C   UNL     1       1.414  12.147  20.184  0.00  0.00    +0.000 C 
ATOM      8  C   UNL     1       0.744  10.945  20.861  0.00  0.00    +0.000 C 
ATOM      9  C   UNL     1      -0.782  11.087  20.871  0.00  0.00    +0.000 C 
ATOM     10  C   UNL     1      -1.357  11.396  19.488  0.00  0.00    +0.000 C 
BRANCH   5  13
ATOM     11  C   UNL     1      -2.865  15.089  20.853  0.00  0.00    +0.000 C 
ATOM     12  N   UNL     1      -2.329  13.908  20.217  0.00  0.00    +0.000 N 
ATOM     13  C   UNL     1      -1.133  13.957  19.546  0.00  0.00    +0.000 C 
ATOM     14  O   UNL     1      -0.477  14.991  19.460  0.00  0.00    +0.000 OA
ATOM     15  H   UNL     1      -2.895  13.069  20.209  0.00  0.00    +0.000 HD
ENDBRANCH   5  13
ENDBRANCH   1   8
BRANCH   2  16
ATOM     16  C   UNL     1       1.838   7.400  20.165  0.00  0.00    +0.000 A 
ATOM     17  C   UNL     1       2.566   7.456  18.955  0.00  0.00    +0.000 A 
ATOM     18  C   UNL     1       2.818   6.149  18.605  0.00  0.00    +0.000 A 
ATOM     19  N   UNL     1       2.207   5.372  19.566  0.00  0.00    +0.000 N 
ATOM     20  N   UNL     1       1.594   6.124  20.520  0.00  0.00    +0.000 NA
BRANCH  19  21
ATOM     21  C   UNL     1       2.103   3.897  19.637  0.00  0.00    +0.000 C 
ATOM     22  C   UNL     1       3.484   3.285  19.932  0.00  0.00    +0.000 C 
ATOM     23  C   UNL     1       1.149   3.447  20.774  0.00  0.00    +0.000 C 
ATOM     24  C   UNL     1       1.532   3.305  18.332  0.00  0.00    +0.000 C 
ENDBRANCH  19  21
BRANCH  18  25
ATOM     25  C   UNL     1       3.673   5.714  17.425  0.00  0.00    +0.000 C 
ATOM     26  C   UNL     1       4.646   6.694  16.823  0.00  0.00    +0.000 C 
ATOM     27  C   UNL     1       5.159   5.509  17.582  0.00  0.00    +0.000 C 
ENDBRANCH  18  25
ENDBRANCH   2  16
TORSDOF 5
ENDMDL
MODEL 4
REMARK VINA RESULT:      -6.7      2.592      8.582
REMARK  Name = 
REMARK  9 active torsions:
REMARK  status: ('A' for Active; 'I' for Inactive)
REMARK    1  A    between atoms: C_1  and  N_2
REMARK    2  A    between atoms: C_3  and  C_5
REMARK    3  A    between atoms: C_8  and  N_9
REMARK    4  A    between atoms: C_10  and  C_12
REMARK    5  A    between atoms: C_14  and  C_15
REMARK    6  A    between atoms: N_18  and  C_19
REMARK    7  A    between atoms: C_19  and  C_20
REMARK    8  A    between atoms: C_19  and  C_21
REMARK    9  A    between atoms: C_19  and  C_22
REMARK                            x       y       z     vdW  Elec       q    Type
REMARK                         _______ _______ _______ _____ _____    ______ ____
ROOT
ATOM      1  N   UNL     1       1.927   7.493  19.076  0.00  0.00    +0.000 N 
ATOM      2  C   UNL     1       2.038   8.555  18.202  0.00  0.00    +0.000 C 
ATOM      3  O   UNL     1       2.949   8.670  17.387  0.00  0.00    +0.000 OA
ATOM      4  H   UNL     1       1.172   7.574  19.751  0.00  0.00    +0.000 HD
ENDROOT
BRANCH   1   8
ATOM      5  C   UNL     1       1.540   3.753  19.067  0.00  0.00    +0.000 C 
ATOM      6  C   UNL     1       1.540   4.623  20.336  0.00  0.00    +0.000 C 
ATOM      7  C   UNL     1       2.740   5.574  20.409  0.00  0.00    +0.000 C 
ATOM      8  C   UNL     1       2.913   6.425  19.145  0.00  0.00    +0.000 C 
ATOM      9  C   UNL     1       2.877   5.562  17.879  0.00  0.00    +0.000 C 
ATOM     10  C   UNL     1       1.655   4.644  17.824  0.00  0.00    +0.000 C 
BRANCH   5  13
ATOM     11  C   UNL     1       4.565   1.818  20.353  0.00  0.00    +0.000 C 
ATOM     12  N   UNL     1       3.473   2.750  20.202  0.00  0.00    +0.000 N 
ATOM     13  C   UNL     1       2.612   2.652  19.137  0.00  0.00    +0.000 C 
ATOM     14  O   UNL     1       2.732   1.781  18.282  0.00  0.00    +0.000 OA
ATOM     15  H   UNL     1       3.408   3.523  20.853  0.00  0.00    +0.000 HD
ENDBRANCH   5  13
ENDBRANCH   1   8
BRANCH   2  16
ATOM     16  C   UNL     1       0.952   9.544  18.324  0.00  0.00    +0.000 A 
ATOM     17  C   UNL     1      -0.231   9.589  17.553  0.00  0.00    +0.000 A 
ATOM     18  C   UNL     1      -0.983  10.617  18.075  0.00  0.00    +0.000 A 
ATOM     19  N   UNL     1      -0.225  11.171  19.084  0.00  0.00    +0.000 N 
ATOM     20  N   UNL     1       0.966  10.532  19.240  0.00  0.00    +0.000 NA
BRANCH  19  21
ATOM     21  C   UNL     1      -0.523  12.350  19.926  0.00  0.00    +0.000 C 
ATOM     22  C   UNL     1      -0.585  13.618  19.056  0.00  0.00    +0.000 C 
ATOM     23  C   UNL     1      -1.897  12.212  20.633  0.00  0.00    +0.000 C 
ATOM     24  C   UNL     1       0.524  12.528  21.045  0.00  0.00    +0.000 C 
ENDBRANCH  19  21
BRANCH  18  25
ATOM     25  C   UNL     1      -2.396  10.971  17.635  0.00  0.00    +0.000 C 
ATOM     26  C   UNL     1      -2.984  10.283  16.431  0.00  0.00    +0.000 C 
ATOM     27  C   UNL     1      -3.525   9.985  17.796  0.00  0.00    +0.000 C 
ENDBRANCH  18  25
ENDBRANCH   2  16
TORSDOF 5
ENDMDL
MODEL 5
REMARK VINA RESULT:      -6.7      2.250      8.539
REMARK  Name = 
REMARK  9 active torsions:
REMARK  status: ('A' for Active; 'I' for Inactive)
REMARK    1  A    between atoms: C_1  and  N_2
REMARK    2  A    between atoms: C_3  and  C_5
REMARK    3  A    between atoms: C_8  and  N_9
REMARK    4  A    between atoms: C_10  and  C_12
REMARK    5  A    between atoms: C_14  and  C_15
REMARK    6  A    between atoms: N_18  and  C_19
REMARK    7  A    between atoms: C_19  and  C_20
REMARK    8  A    between atoms: C_19  and  C_21
REMARK    9  A    between atoms: C_19  and  C_22
REMARK                            x       y       z     vdW  Elec       q    Type
REMARK                         _______ _______ _______ _____ _____    ______ ____
ROOT
ATOM      1  N   UNL     1       1.789   7.611  19.637  0.00  0.00    +0.000 N 
ATOM      2  C   UNL     1       1.397   8.522  20.596  0.00  0.00    +0.000 C 
ATOM      3  O   UNL     1       1.753   8.467  21.770  0.00  0.00    +0.000 OA
ATOM      4  H   UNL     1       1.349   7.732  18.729  0.00  0.00    +0.000 HD
ENDROOT
BRANCH   1   8
ATOM      5  C   UNL     1       1.374   3.956  18.859  0.00  0.00    +0.000 C 
ATOM      6  C   UNL     1       0.844   4.638  20.131  0.00  0.00    +0.000 C 
ATOM      7  C   UNL     1       1.913   5.463  20.857  0.00  0.00    +0.000 C 
ATOM      8  C   UNL     1       2.630   6.463  19.941  0.00  0.00    +0.000 C 
ATOM      9  C   UNL     1       3.125   5.790  18.657  0.00  0.00    +0.000 C 
ATOM     10  C   UNL     1       2.029   4.998  17.942  0.00  0.00    +0.000 C 
BRANCH   5  13
ATOM     11  C   UNL     1       3.897   1.149  18.306  0.00  0.00    +0.000 C 
ATOM     12  N   UNL     1       3.041   2.301  18.144  0.00  0.00    +0.000 N 
ATOM     13  C   UNL     1       2.291   2.768  19.195  0.00  0.00    +0.000 C 
ATOM     14  O   UNL     1       2.319   2.236  20.301  0.00  0.00    +0.000 OA
ATOM     15  H   UNL     1       2.944   2.701  17.219  0.00  0.00    +0.000 HD
ENDBRANCH   5  13
ENDBRANCH   1   8
BRANCH   2  16
ATOM     16  C   UNL     1       0.515   9.587  20.084  0.00  0.00    +0.000 A 
ATOM     17  C   UNL     1      -0.125   9.611  18.824  0.00  0.00    +0.000 A 
ATOM     18  C   UNL     1      -0.910  10.742  18.821  0.00  0.00    +0.000 A 
ATOM     19  N   UNL     1      -0.682  11.368  20.028  0.00  0.00    +0.000 N 
ATOM     20  N   UNL     1       0.196  10.678  20.806  0.00  0.00    +0.000 NA
BRANCH  19  21
ATOM     21  C   UNL     1      -1.213  12.660  20.516  0.00  0.00    +0.000 C 
ATOM     22  C   UNL     1      -2.741  12.573  20.682  0.00  0.00    +0.000 C 
ATOM     23  C   UNL     1      -0.622  13.032  21.901  0.00  0.00    +0.000 C 
ATOM     24  C   UNL     1      -0.851  13.818  19.564  0.00  0.00    +0.000 C 
ENDBRANCH  19  21
BRANCH  18  25
ATOM     25  C   UNL     1      -1.873  11.128  17.710  0.00  0.00    +0.000 C 
ATOM     26  C   UNL     1      -2.243  10.103  16.670  0.00  0.00    +0.000 C 
ATOM     27  C   UNL     1      -3.269  10.557  17.664  0.00  0.00    +0.000 C 
ENDBRANCH  18  25
ENDBRANCH   2  16
TORSDOF 5
ENDMDL
MODEL 6
REMARK VINA RESULT:      -6.5      0.918      2.568
REMARK  Name = 
REMARK  9 active torsions:
REMARK  status: ('A' for Active; 'I' for Inactive)
REMARK    1  A    between atoms: C_1  and  N_2
REMARK    2  A    between atoms: C_3  and  C_5
REMARK    3  A    between atoms: C_8  and  N_9
REMARK    4  A    between atoms: C_10  and  C_12
REMARK    5  A    between atoms: C_14  and  C_15
REMARK    6  A    between atoms: N_18  and  C_19
REMARK    7  A    between atoms: C_19  and  C_20
REMARK    8  A    between atoms: C_19  and  C_21
REMARK    9  A    between atoms: C_19  and  C_22
REMARK                            x       y       z     vdW  Elec       q    Type
REMARK                         _______ _______ _______ _____ _____    ______ ____
ROOT
ATOM      1  N   UNL     1       0.466   9.314  20.338  0.00  0.00    +0.000 N 
ATOM      2  C   UNL     1       1.130   8.514  21.245  0.00  0.00    +0.000 C 
ATOM      3  O   UNL     1       1.207   8.768  22.444  0.00  0.00    +0.000 OA
ATOM      4  H   UNL     1       0.557   9.024  19.369  0.00  0.00    +0.000 HD
ENDROOT
BRANCH   1   8
ATOM      5  C   UNL     1       0.320  12.642  18.594  0.00  0.00    +0.000 C 
ATOM      6  C   UNL     1       1.420  12.230  19.588  0.00  0.00    +0.000 C 
ATOM      7  C   UNL     1       0.860  11.688  20.908  0.00  0.00    +0.000 C 
ATOM      8  C   UNL     1      -0.170  10.568  20.714  0.00  0.00    +0.000 C 
ATOM      9  C   UNL     1      -1.244  10.966  19.696  0.00  0.00    +0.000 C 
ATOM     10  C   UNL     1      -0.654  11.475  18.380  0.00  0.00    +0.000 C 
BRANCH   5  13
ATOM     11  C   UNL     1      -0.239  16.392  19.006  0.00  0.00    +0.000 C 
ATOM     12  N   UNL     1       0.266  15.096  18.618  0.00  0.00    +0.000 N 
ATOM     13  C   UNL     1      -0.368  13.948  19.023  0.00  0.00    +0.000 C 
ATOM     14  O   UNL     1      -1.378  13.974  19.720  0.00  0.00    +0.000 OA
ATOM     15  H   UNL     1       1.142  15.054  18.112  0.00  0.00    +0.000 HD
ENDBRANCH   5  13
ENDBRANCH   1   8
BRANCH   2  16
ATOM     16  C   UNL     1       1.734   7.309  20.649  0.00  0.00    +0.000 A 
ATOM     17  C   UNL     1       1.463   5.969  21.009  0.00  0.00    +0.000 A 
ATOM     18  C   UNL     1       2.182   5.190  20.131  0.00  0.00    +0.000 A 
ATOM     19  N   UNL     1       2.880   6.065  19.327  0.00  0.00    +0.000 N 
ATOM     20  N   UNL     1       2.624   7.365  19.639  0.00  0.00    +0.000 NA
BRANCH  19  21
ATOM     21  C   UNL     1       3.862   5.762  18.262  0.00  0.00    +0.000 C 
ATOM     22  C   UNL     1       5.183   5.278  18.885  0.00  0.00    +0.000 C 
ATOM     23  C   UNL     1       3.356   4.634  17.325  0.00  0.00    +0.000 C 
ATOM     24  C   UNL     1       4.121   6.989  17.363  0.00  0.00    +0.000 C 
ENDBRANCH  19  21
BRANCH  18  25
ATOM     25  C   UNL     1       2.116   3.672  20.062  0.00  0.00    +0.000 C 
ATOM     26  C   UNL     1       1.267   2.928  21.059  0.00  0.00    +0.000 C 
ATOM     27  C   UNL     1       0.855   2.973  19.619  0.00  0.00    +0.000 C 
ENDBRANCH  18  25
ENDBRANCH   2  16
TORSDOF 5
ENDMDL
MODEL 7
REMARK VINA RESULT:      -6.5      2.043      3.361
REMARK  Name = 
REMARK  9 active torsions:
REMARK  status: ('A' for Active; 'I' for Inactive)
REMARK    1  A    between atoms: C_1  and  N_2
REMARK    2  A    between atoms: C_3  and  C_5
REMARK    3  A    between atoms: C_8  and  N_9
REMARK    4  A    between atoms: C_10  and  C_12
REMARK    5  A    between atoms: C_14  and  C_15
REMARK    6  A    between atoms: N_18  and  C_19
REMARK    7  A    between atoms: C_19  and  C_20
REMARK    8  A    between atoms: C_19  and  C_21
REMARK    9  A    between atoms: C_19  and  C_22
REMARK                            x       y       z     vdW  Elec       q    Type
REMARK                         _______ _______ _______ _____ _____    ______ ____
ROOT
ATOM      1  N   UNL     1       0.926   9.612  19.080  0.00  0.00    +0.000 N 
ATOM      2  C   UNL     1       1.871   9.224  18.153  0.00  0.00    +0.000 C 
ATOM      3  O   UNL     1       2.167   9.894  17.167  0.00  0.00    +0.000 OA
ATOM      4  H   UNL     1       0.723   8.920  19.796  0.00  0.00    +0.000 HD
ENDROOT
BRANCH   1   8
ATOM      5  C   UNL     1      -0.000  12.240  21.605  0.00  0.00    +0.000 C 
ATOM      6  C   UNL     1      -0.844  10.990  21.303  0.00  0.00    +0.000 C 
ATOM      7  C   UNL     1      -1.118  10.800  19.807  0.00  0.00    +0.000 C 
ATOM      8  C   UNL     1       0.154  10.839  18.951  0.00  0.00    +0.000 C 
ATOM      9  C   UNL     1       1.012  12.065  19.279  0.00  0.00    +0.000 C 
ATOM     10  C   UNL     1       1.290  12.211  20.775  0.00  0.00    +0.000 C 
BRANCH   5  13
ATOM     11  C   UNL     1      -3.012  14.578  21.704  0.00  0.00    +0.000 C 
ATOM     12  N   UNL     1      -2.116  13.457  21.868  0.00  0.00    +0.000 N 
ATOM     13  C   UNL     1      -0.818  13.530  21.428  0.00  0.00    +0.000 C 
ATOM     14  O   UNL     1      -0.370  14.536  20.887  0.00  0.00    +0.000 OA
ATOM     15  H   UNL     1      -2.491  12.593  22.238  0.00  0.00    +0.000 HD
ENDBRANCH   5  13
ENDBRANCH   1   8
BRANCH   2  16
ATOM     16  C   UNL     1       2.508   7.930  18.455  0.00  0.00    +0.000 A 
ATOM     17  C   UNL     1       2.189   7.068  19.528  0.00  0.00    +0.000 A 
ATOM     18  C   UNL     1       2.971   5.948  19.358  0.00  0.00    +0.000 A 
ATOM     19  N   UNL     1       3.749   6.190  18.246  0.00  0.00    +0.000 N 
ATOM     20  N   UNL     1       3.484   7.403  17.690  0.00  0.00    +0.000 NA
BRANCH  19  21
ATOM     21  C   UNL     1       4.815   5.349  17.661  0.00  0.00    +0.000 C 
ATOM     22  C   UNL     1       4.202   4.095  17.013  0.00  0.00    +0.000 C 
ATOM     23  C   UNL     1       5.594   6.105  16.552  0.00  0.00    +0.000 C 
ATOM     24  C   UNL     1       5.859   4.938  18.720  0.00  0.00    +0.000 C 
ENDBRANCH  19  21
BRANCH  18  25
ATOM     25  C   UNL     1       2.891   4.694  20.215  0.00  0.00    +0.000 C 
ATOM     26  C   UNL     1       1.623   4.404  20.974  0.00  0.00    +0.000 C 
ATOM     27  C   UNL     1       2.008   3.539  19.813  0.00  0.00    +0.000 C 
ENDBRANCH  18  25
ENDBRANCH   2  16
TORSDOF 5
ENDMDL
MODEL 8
REMARK VINA RESULT:      -6.4      0.989      2.654
REMARK  Name = 
REMARK  9 active torsions:
REMARK  status: ('A' for Active; 'I' for Inactive)
REMARK    1  A    between atoms: C_1  and  N_2
REMARK    2  A    between atoms: C_3  and  C_5
REMARK    3  A    between atoms: C_8  and  N_9
REMARK    4  A    between atoms: C_10  and  C_12
REMARK    5  A    between atoms: C_14  and  C_15
REMARK    6  A    between atoms: N_18  and  C_19
REMARK    7  A    between atoms: C_19  and  C_20
REMARK    8  A    between atoms: C_19  and  C_21
REMARK    9  A    between atoms: C_19  and  C_22
REMARK                            x       y       z     vdW  Elec       q    Type
REMARK                         _______ _______ _______ _____ _____    ______ ____
ROOT
ATOM      1  N   UNL     1       1.109   9.675  20.586  0.00  0.00    +0.000 N 
ATOM      2  C   UNL     1       0.664   8.459  21.061  0.00  0.00    +0.000 C 
ATOM      3  O   UNL     1      -0.302   8.337  21.810  0.00  0.00    +0.000 OA
ATOM      4  H   UNL     1       1.969   9.632  20.046  0.00  0.00    +0.000 HD
ENDROOT
BRANCH   1   8
ATOM      5  C   UNL     1       0.304  12.749  18.575  0.00  0.00    +0.000 C 
ATOM      6  C   UNL     1       1.641  12.510  19.299  0.00  0.00    +0.000 C 
ATOM      7  C   UNL     1       1.463  12.117  20.769  0.00  0.00    +0.000 C 
ATOM      8  C   UNL     1       0.499  10.940  20.967  0.00  0.00    +0.000 C 
ATOM      9  C   UNL     1      -0.818  11.163  20.216  0.00  0.00    +0.000 C 
ATOM     10  C   UNL     1      -0.608  11.527  18.746  0.00  0.00    +0.000 C 
BRANCH   5  13
ATOM     11  C   UNL     1      -0.144  16.509  19.032  0.00  0.00    +0.000 C 
ATOM     12  N   UNL     1       0.325  15.204  18.631  0.00  0.00    +0.000 N 
ATOM     13  C   UNL     1      -0.348  14.071  19.016  0.00  0.00    +0.000 C 
ATOM     14  O   UNL     1      -1.362  14.118  19.705  0.00  0.00    +0.000 OA
ATOM     15  H   UNL     1       1.204  15.142  18.132  0.00  0.00    +0.000 HD
ENDBRANCH   5  13
ENDBRANCH   1   8
BRANCH   2  16
ATOM     16  C   UNL     1       1.446   7.307  20.580  0.00  0.00    +0.000 A 
ATOM     17  C   UNL     1       1.389   5.986  21.081  0.00  0.00    +0.000 A 
ATOM     18  C   UNL     1       2.217   5.240  20.274  0.00  0.00    +0.000 A 
ATOM     19  N   UNL     1       2.767   6.124  19.370  0.00  0.00    +0.000 N 
ATOM     20  N   UNL     1       2.313   7.393  19.553  0.00  0.00    +0.000 NA
BRANCH  19  21
ATOM     21  C   UNL     1       3.780   5.867  18.323  0.00  0.00    +0.000 C 
ATOM     22  C   UNL     1       4.005   7.137  17.483  0.00  0.00    +0.000 C 
ATOM     23  C   UNL     1       5.149   5.475  18.939  0.00  0.00    +0.000 C 
ATOM     24  C   UNL     1       3.366   4.696  17.408  0.00  0.00    +0.000 C 
ENDBRANCH  19  21
BRANCH  18  25
ATOM     25  C   UNL     1       2.389   3.732  20.363  0.00  0.00    +0.000 C 
ATOM     26  C   UNL     1       1.561   2.956  21.354  0.00  0.00    +0.000 C 
ATOM     27  C   UNL     1       1.302   2.801  19.887  0.00  0.00    +0.000 C 
ENDBRANCH  18  25
ENDBRANCH   2  16
TORSDOF 5
ENDMDL
MODEL 9
REMARK VINA RESULT:      -6.4      2.719      3.342
REMARK  Name = 
REMARK  9 active torsions:
REMARK  status: ('A' for Active; 'I' for Inactive)
REMARK    1  A    between atoms: C_1  and  N_2
REMARK    2  A    between atoms: C_3  and  C_5
REMARK    3  A    between atoms: C_8  and  N_9
REMARK    4  A    between atoms: C_10  and  C_12
REMARK    5  A    between atoms: C_14  and  C_15
REMARK    6  A    between atoms: N_18  and  C_19
REMARK    7  A    between atoms: C_19  and  C_20
REMARK    8  A    between atoms: C_19  and  C_21
REMARK    9  A    between atoms: C_19  and  C_22
REMARK                            x       y       z     vdW  Elec       q    Type
REMARK                         _______ _______ _______ _____ _____    ______ ____
ROOT
ATOM      1  N   UNL     1       1.491   8.728  19.386  0.00  0.00    +0.000 N 
ATOM      2  C   UNL     1       2.181   8.559  18.203  0.00  0.00    +0.000 C 
ATOM      3  O   UNL     1       2.268   9.427  17.339  0.00  0.00    +0.000 OA
ATOM      4  H   UNL     1       1.432   7.897  19.967  0.00  0.00    +0.000 HD
ENDROOT
BRANCH   1   8
ATOM      5  C   UNL     1      -0.058   9.933  22.593  0.00  0.00    +0.000 C 
ATOM      6  C   UNL     1      -0.786   9.071  21.548  0.00  0.00    +0.000 C 
ATOM      7  C   UNL     1      -0.685   9.640  20.128  0.00  0.00    +0.000 C 
ATOM      8  C   UNL     1       0.756   9.944  19.700  0.00  0.00    +0.000 C 
ATOM      9  C   UNL     1       1.492  10.772  20.759  0.00  0.00    +0.000 C 
ATOM     10  C   UNL     1       1.395  10.163  22.159  0.00  0.00    +0.000 C 
BRANCH   5  13
ATOM     11  C   UNL     1      -2.999  12.200  23.462  0.00  0.00    +0.000 C 
ATOM     12  N   UNL     1      -2.147  11.060  23.222  0.00  0.00    +0.000 N 
ATOM     13  C   UNL     1      -0.826  11.232  22.888  0.00  0.00    +0.000 C 
ATOM     14  O   UNL     1      -0.321  12.345  22.783  0.00  0.00    +0.000 OA
ATOM     15  H   UNL     1      -2.566  10.139  23.224  0.00  0.00    +0.000 HD
ENDBRANCH   5  13
ENDBRANCH   1   8
BRANCH   2  16
ATOM     16  C   UNL     1       2.823   7.239  18.069  0.00  0.00    +0.000 A 
ATOM     17  C   UNL     1       4.047   6.964  17.419  0.00  0.00    +0.000 A 
ATOM     18  C   UNL     1       4.290   5.625  17.624  0.00  0.00    +0.000 A 
ATOM     19  N   UNL     1       3.208   5.143  18.329  0.00  0.00    +0.000 N 
ATOM     20  N   UNL     1       2.297   6.117  18.599  0.00  0.00    +0.000 NA
BRANCH  19  21
ATOM     21  C   UNL     1       2.920   3.754  18.749  0.00  0.00    +0.000 C 
ATOM     22  C   UNL     1       1.600   3.705  19.540  0.00  0.00    +0.000 C 
ATOM     23  C   UNL     1       2.758   2.811  17.528  0.00  0.00    +0.000 C 
ATOM     24  C   UNL     1       4.067   3.169  19.599  0.00  0.00    +0.000 C 
ENDBRANCH  19  21
BRANCH  18  25
ATOM     25  C   UNL     1       5.556   4.896  17.199  0.00  0.00    +0.000 C 
ATOM     26  C   UNL     1       6.709   5.691  16.646  0.00  0.00    +0.000 C 
ATOM     27  C   UNL     1       6.832   5.040  17.990  0.00  0.00    +0.000 C 
ENDBRANCH  18  25
ENDBRANCH   2  16
TORSDOF 5
ENDMDL
