MODEL 1
REMARK VINA RESULT:      -7.5      0.000      0.000
REMARK  Name = 
REMARK  3 active torsions:
REMARK  status: ('A' for Active; 'I' for Inactive)
REMARK    1  A    between atoms: C_2  and  C_3
REMARK    2  A    between atoms: C_3  and  N_4
REMARK    3  A    between atoms: N_7  and  C_8
REMARK                            x       y       z     vdW  Elec       q    Type
REMARK                         _______ _______ _______ _____ _____    ______ ____
ROOT
ATOM      1  N   UNL     1       7.452   6.336  17.385  0.00  0.00    +0.000 NA
ATOM      2  C   UNL     1       7.449   4.887  17.764  0.00  0.00    +0.000 C 
ATOM      3  C   UNL     1       6.459   4.488  18.889  0.00  0.00    +0.000 C 
ATOM      4  N   UNL     1       5.112   5.014  18.654  0.00  0.00    +0.000 N 
ATOM      5  C   UNL     1       4.990   6.379  18.142  0.00  0.00    +0.000 C 
ATOM      6  C   UNL     1       6.046   6.685  17.060  0.00  0.00    +0.000 C 
ENDROOT
BRANCH   4   7
ATOM      7  C   UNL     1       4.054   4.135  18.508  0.00  0.00    +0.000 A 
ATOM      8  N   UNL     1       4.154   3.104  17.619  0.00  0.00    +0.000 NA
ATOM      9  C   UNL     1       3.135   2.226  17.448  0.00  0.00    +0.000 A 
ATOM     10  C   UNL     1       1.936   2.258  18.126  0.00  0.00    +0.000 A 
ATOM     11  C   UNL     1       1.856   3.288  19.045  0.00  0.00    +0.000 A 
ATOM     12  O   UNL     1       0.789   3.527  19.859  0.00  0.00    +0.000 OA
ATOM     13  C   UNL     1       1.108   4.598  20.629  0.00  0.00    +0.000 A 
ATOM     14  C   UNL     1       2.369   5.049  20.321  0.00  0.00    +0.000 A 
ATOM     15  C   UNL     1       2.860   4.219  19.268  0.00  0.00    +0.000 A 
ENDBRANCH   4   7
BRANCH   1  16
ATOM     16  C   UNL     1       8.006   7.131  18.512  0.00  0.00    +0.000 C 
BRANCH  16  18
ATOM     17  O   UNL     1       7.957   9.042  17.077  0.00  0.00    +0.000 OA
ATOM     18  C   UNL     1       8.340   8.583  18.150  0.00  0.00    +0.000 C 
ATOM     19  N   UNL     1       9.042   9.256  19.122  0.00  0.00    +0.000 N 
ATOM     20  C   UNL     1       9.456  10.563  19.053  0.00  0.00    +0.000 A 
ATOM     21  N   UNL     1      10.388  11.065  19.834  0.00  0.00    +0.000 NA
ATOM     22  N   UNL     1      10.622  12.405  19.578  0.00  0.00    +0.000 NA
ATOM     23  C   UNL     1       9.817  12.864  18.643  0.00  0.00    +0.000 A 
ATOM     24  S   UNL     1       8.745  11.703  17.995  0.00  0.00    +0.000 S 
ATOM     25  H   UNL     1       9.455   8.699  19.863  0.00  0.00    +0.000 HD
ENDBRANCH  16  18
ENDBRANCH   1  16
TORSDOF 3
ENDMDL
MODEL 2
REMARK VINA RESULT:      -7.1      4.495      6.697
REMARK  Name = 
REMARK  3 active torsions:
REMARK  status: ('A' for Active; 'I' for Inactive)
REMARK    1  A    between atoms: C_2  and  C_3
REMARK    2  A    between atoms: C_3  and  N_4
REMARK    3  A    between atoms: N_7  and  C_8
REMARK                            x       y       z     vdW  Elec       q    Type
REMARK                         _______ _______ _______ _____ _____    ______ ____
ROOT
ATOM      1  N   UNL     1       1.744   3.014  19.696  0.00  0.00    +0.000 NA
ATOM      2  C   UNL     1       1.458   3.693  21.000  0.00  0.00    +0.000 C 
ATOM      3  C   UNL     1       2.244   5.003  21.263  0.00  0.00    +0.000 C 
ATOM      4  N   UNL     1       2.189   5.922  20.123  0.00  0.00    +0.000 N 
ATOM      5  C   UNL     1       2.312   5.353  18.781  0.00  0.00    +0.000 C 
ATOM      6  C   UNL     1       1.527   4.033  18.639  0.00  0.00    +0.000 C 
ENDROOT
BRANCH   4   7
ATOM      7  C   UNL     1       1.621   7.172  20.283  0.00  0.00    +0.000 A 
ATOM      8  N   UNL     1       0.927   7.455  21.424  0.00  0.00    +0.000 NA
ATOM      9  C   UNL     1       0.353   8.670  21.612  0.00  0.00    +0.000 A 
ATOM     10  C   UNL     1       0.409   9.721  20.723  0.00  0.00    +0.000 A 
ATOM     11  C   UNL     1       1.140   9.435  19.584  0.00  0.00    +0.000 A 
ATOM     12  O   UNL     1       1.366  10.308  18.562  0.00  0.00    +0.000 OA
ATOM     13  C   UNL     1       2.144   9.665  17.655  0.00  0.00    +0.000 A 
ATOM     14  C   UNL     1       2.421   8.388  18.082  0.00  0.00    +0.000 A 
ATOM     15  C   UNL     1       1.750   8.214  19.330  0.00  0.00    +0.000 A 
ENDBRANCH   4   7
BRANCH   1  16
ATOM     16  C   UNL     1       3.131   2.482  19.721  0.00  0.00    +0.000 C 
BRANCH  16  18
ATOM     17  O   UNL     1       3.565   2.318  17.376  0.00  0.00    +0.000 OA
ATOM     18  C   UNL     1       3.939   2.778  18.452  0.00  0.00    +0.000 C 
ATOM     19  N   UNL     1       5.032   3.586  18.659  0.00  0.00    +0.000 N 
ATOM     20  C   UNL     1       5.912   4.007  17.693  0.00  0.00    +0.000 A 
ATOM     21  N   UNL     1       7.104   4.493  17.969  0.00  0.00    +0.000 NA
ATOM     22  N   UNL     1       7.799   4.856  16.829  0.00  0.00    +0.000 NA
ATOM     23  C   UNL     1       7.076   4.670  15.745  0.00  0.00    +0.000 A 
ATOM     24  S   UNL     1       5.522   4.022  16.029  0.00  0.00    +0.000 S 
ATOM     25  H   UNL     1       5.326   3.728  19.620  0.00  0.00    +0.000 HD
ENDBRANCH  16  18
ENDBRANCH   1  16
TORSDOF 3
ENDMDL
MODEL 3
REMARK VINA RESULT:      -7.0      4.644      6.808
REMARK  Name = 
REMARK  3 active torsions:
REMARK  status: ('A' for Active; 'I' for Inactive)
REMARK    1  A    between atoms: C_2  and  C_3
REMARK    2  A    between atoms: C_3  and  N_4
REMARK    3  A    between atoms: N_7  and  C_8
REMARK                            x       y       z     vdW  Elec       q    Type
REMARK                         _______ _______ _______ _____ _____    ______ ____
ROOT
ATOM      1  N   UNL     1       2.311   4.700  18.784  0.00  0.00    +0.000 NA
ATOM      2  C   UNL     1       1.707   4.829  20.148  0.00  0.00    +0.000 C 
ATOM      3  C   UNL     1       2.197   6.034  20.991  0.00  0.00    +0.000 C 
ATOM      4  N   UNL     1       2.161   7.290  20.236  0.00  0.00    +0.000 N 
ATOM      5  C   UNL     1       2.593   7.260  18.838  0.00  0.00    +0.000 C 
ATOM      6  C   UNL     1       2.086   6.001  18.104  0.00  0.00    +0.000 C 
ENDROOT
BRANCH   4   7
ATOM      7  C   UNL     1       1.362   8.327  20.679  0.00  0.00    +0.000 A 
ATOM      8  N   UNL     1       1.149   8.488  22.018  0.00  0.00    +0.000 NA
ATOM      9  C   UNL     1       0.368   9.493  22.487  0.00  0.00    +0.000 A 
ATOM     10  C   UNL     1      -0.266  10.437  21.708  0.00  0.00    +0.000 A 
ATOM     11  C   UNL     1      -0.020  10.284  20.356  0.00  0.00    +0.000 A 
ATOM     12  O   UNL     1      -0.508  11.096  19.377  0.00  0.00    +0.000 OA
ATOM     13  C   UNL     1      -0.019  10.636  18.198  0.00  0.00    +0.000 A 
ATOM     14  C   UNL     1       0.779   9.537  18.408  0.00  0.00    +0.000 A 
ATOM     15  C   UNL     1       0.767   9.278  19.811  0.00  0.00    +0.000 A 
ENDBRANCH   4   7
BRANCH   1  16
ATOM     16  C   UNL     1       3.749   4.352  18.920  0.00  0.00    +0.000 C 
BRANCH  16  18
ATOM     17  O   UNL     1       4.154   3.049  16.957  0.00  0.00    +0.000 OA
ATOM     18  C   UNL     1       4.452   4.059  17.590  0.00  0.00    +0.000 C 
ATOM     19  N   UNL     1       5.365   5.016  17.216  0.00  0.00    +0.000 N 
ATOM     20  C   UNL     1       6.122   4.999  16.070  0.00  0.00    +0.000 A 
ATOM     21  N   UNL     1       7.198   5.738  15.907  0.00  0.00    +0.000 NA
ATOM     22  N   UNL     1       7.781   5.551  14.666  0.00  0.00    +0.000 NA
ATOM     23  C   UNL     1       7.085   4.711  13.930  0.00  0.00    +0.000 A 
ATOM     24  S   UNL     1       5.699   4.073  14.697  0.00  0.00    +0.000 S 
ATOM     25  H   UNL     1       5.647   5.687  17.923  0.00  0.00    +0.000 HD
ENDBRANCH  16  18
ENDBRANCH   1  16
TORSDOF 3
ENDMDL
MODEL 4
REMARK VINA RESULT:      -6.9      1.288      1.369
REMARK  Name = 
REMARK  3 active torsions:
REMARK  status: ('A' for Active; 'I' for Inactive)
REMARK    1  A    between atoms: C_2  and  C_3
REMARK    2  A    between atoms: C_3  and  N_4
REMARK    3  A    between atoms: N_7  and  C_8
REMARK                            x       y       z     vdW  Elec       q    Type
REMARK                         _______ _______ _______ _____ _____    ______ ____
ROOT
ATOM      1  N   UNL     1       7.364   6.281  17.438  0.00  0.00    +0.000 NA
ATOM      2  C   UNL     1       6.878   5.878  18.796  0.00  0.00    +0.000 C 
ATOM      3  C   UNL     1       5.341   5.891  18.993  0.00  0.00    +0.000 C 
ATOM      4  N   UNL     1       4.638   5.193  17.913  0.00  0.00    +0.000 N 
ATOM      5  C   UNL     1       5.116   5.395  16.545  0.00  0.00    +0.000 C 
ATOM      6  C   UNL     1       6.657   5.408  16.468  0.00  0.00    +0.000 C 
ENDROOT
BRANCH   4   7
ATOM      7  C   UNL     1       3.865   4.085  18.207  0.00  0.00    +0.000 A 
ATOM      8  N   UNL     1       4.208   2.869  17.691  0.00  0.00    +0.000 NA
ATOM      9  C   UNL     1       3.470   1.762  17.957  0.00  0.00    +0.000 A 
ATOM     10  C   UNL     1       2.346   1.729  18.753  0.00  0.00    +0.000 A 
ATOM     11  C   UNL     1       2.025   2.959  19.296  0.00  0.00    +0.000 A 
ATOM     12  O   UNL     1       0.976   3.193  20.135  0.00  0.00    +0.000 OA
ATOM     13  C   UNL     1       1.018   4.508  20.468  0.00  0.00    +0.000 A 
ATOM     14  C   UNL     1       2.083   5.122  19.854  0.00  0.00    +0.000 A 
ATOM     15  C   UNL     1       2.736   4.129  19.064  0.00  0.00    +0.000 A 
ENDBRANCH   4   7
BRANCH   1  16
ATOM     16  C   UNL     1       7.088   7.726  17.233  0.00  0.00    +0.000 C 
BRANCH  16  18
ATOM     17  O   UNL     1       8.776   8.206  18.857  0.00  0.00    +0.000 OA
ATOM     18  C   UNL     1       8.053   8.660  17.973  0.00  0.00    +0.000 C 
ATOM     19  N   UNL     1       8.026   9.961  17.530  0.00  0.00    +0.000 N 
ATOM     20  C   UNL     1       8.794  10.990  18.015  0.00  0.00    +0.000 A 
ATOM     21  N   UNL     1       8.514  12.259  17.804  0.00  0.00    +0.000 NA
ATOM     22  N   UNL     1       9.440  13.105  18.387  0.00  0.00    +0.000 NA
ATOM     23  C   UNL     1      10.406  12.430  18.972  0.00  0.00    +0.000 A 
ATOM     24  S   UNL     1      10.246  10.732  18.880  0.00  0.00    +0.000 S 
ATOM     25  H   UNL     1       7.249  10.230  16.934  0.00  0.00    +0.000 HD
ENDBRANCH  16  18
ENDBRANCH   1  16
TORSDOF 3
ENDMDL
MODEL 5
REMARK VINA RESULT:      -6.8      1.490      1.657
REMARK  Name = 
REMARK  3 active torsions:
REMARK  status: ('A' for Active; 'I' for Inactive)
REMARK    1  A    between atoms: C_2  and  C_3
REMARK    2  A    between atoms: C_3  and  N_4
REMARK    3  A    between atoms: N_7  and  C_8
REMARK                            x       y       z     vdW  Elec       q    Type
REMARK                         _______ _______ _______ _____ _____    ______ ____
ROOT
ATOM      1  N   UNL     1       5.979   6.800  16.448  0.00  0.00    +0.000 NA
ATOM      2  C   UNL     1       5.502   5.557  15.763  0.00  0.00    +0.000 C 
ATOM      3  C   UNL     1       5.436   4.284  16.647  0.00  0.00    +0.000 C 
ATOM      4  N   UNL     1       4.749   4.528  17.919  0.00  0.00    +0.000 N 
ATOM      5  C   UNL     1       5.026   5.784  18.615  0.00  0.00    +0.000 C 
ATOM      6  C   UNL     1       5.113   6.978  17.640  0.00  0.00    +0.000 C 
ENDROOT
BRANCH   4   7
ATOM      7  C   UNL     1       3.596   3.825  18.215  0.00  0.00    +0.000 A 
ATOM      8  N   UNL     1       3.356   2.633  17.596  0.00  0.00    +0.000 NA
ATOM      9  C   UNL     1       2.234   1.919  17.860  0.00  0.00    +0.000 A 
ATOM     10  C   UNL     1       1.250   2.287  18.753  0.00  0.00    +0.000 A 
ATOM     11  C   UNL     1       1.517   3.481  19.397  0.00  0.00    +0.000 A 
ATOM     12  O   UNL     1       0.717   4.055  20.341  0.00  0.00    +0.000 OA
ATOM     13  C   UNL     1       1.335   5.192  20.749  0.00  0.00    +0.000 A 
ATOM     14  C   UNL     1       2.524   5.356  20.078  0.00  0.00    +0.000 A 
ATOM     15  C   UNL     1       2.644   4.259  19.172  0.00  0.00    +0.000 A 
ENDBRANCH   4   7
BRANCH   1  16
ATOM     16  C   UNL     1       7.418   6.646  16.787  0.00  0.00    +0.000 C 
BRANCH  16  18
ATOM     17  O   UNL     1       8.326   7.349  18.884  0.00  0.00    +0.000 OA
ATOM     18  C   UNL     1       7.947   7.698  17.768  0.00  0.00    +0.000 C 
ATOM     19  N   UNL     1       7.968   8.977  17.262  0.00  0.00    +0.000 N 
ATOM     20  C   UNL     1       8.401  10.096  17.928  0.00  0.00    +0.000 A 
ATOM     21  N   UNL     1       8.106  11.320  17.547  0.00  0.00    +0.000 NA
ATOM     22  N   UNL     1       8.666  12.278  18.374  0.00  0.00    +0.000 NA
ATOM     23  C   UNL     1       9.401  11.728  19.316  0.00  0.00    +0.000 A 
ATOM     24  S   UNL     1       9.443  10.021  19.282  0.00  0.00    +0.000 S 
ATOM     25  H   UNL     1       7.448   9.143  16.407  0.00  0.00    +0.000 HD
ENDBRANCH  16  18
ENDBRANCH   1  16
TORSDOF 3
ENDMDL
MODEL 6
REMARK VINA RESULT:      -6.8      7.798     10.401
REMARK  Name = 
REMARK  3 active torsions:
REMARK  status: ('A' for Active; 'I' for Inactive)
REMARK    1  A    between atoms: C_2  and  C_3
REMARK    2  A    between atoms: C_3  and  N_4
REMARK    3  A    between atoms: N_7  and  C_8
REMARK                            x       y       z     vdW  Elec       q    Type
REMARK                         _______ _______ _______ _____ _____    ______ ____
ROOT
ATOM      1  N   UNL     1      -0.092   8.817  20.844  0.00  0.00    +0.000 NA
ATOM      2  C   UNL     1      -0.647   8.780  22.234  0.00  0.00    +0.000 C 
ATOM      3  C   UNL     1      -0.333  10.014  23.118  0.00  0.00    +0.000 C 
ATOM      4  N   UNL     1      -0.616  11.276  22.430  0.00  0.00    +0.000 N 
ATOM      5  C   UNL     1      -0.248  11.383  21.018  0.00  0.00    +0.000 C 
ATOM      6  C   UNL     1      -0.564  10.088  20.240  0.00  0.00    +0.000 C 
ENDROOT
BRANCH   4   7
ATOM      7  C   UNL     1      -1.560  12.140  22.954  0.00  0.00    +0.000 A 
ATOM      8  N   UNL     1      -2.729  11.639  23.450  0.00  0.00    +0.000 NA
ATOM      9  C   UNL     1      -3.678  12.458  23.968  0.00  0.00    +0.000 A 
ATOM     10  C   UNL     1      -3.578  13.829  24.065  0.00  0.00    +0.000 A 
ATOM     11  C   UNL     1      -2.378  14.324  23.588  0.00  0.00    +0.000 A 
ATOM     12  O   UNL     1      -2.019  15.639  23.590  0.00  0.00    +0.000 OA
ATOM     13  C   UNL     1      -0.767  15.711  23.072  0.00  0.00    +0.000 A 
ATOM     14  C   UNL     1      -0.315  14.457  22.738  0.00  0.00    +0.000 A 
ATOM     15  C   UNL     1      -1.367  13.542  23.045  0.00  0.00    +0.000 A 
ENDBRANCH   4   7
BRANCH   1  16
ATOM     16  C   UNL     1       1.389   8.717  20.910  0.00  0.00    +0.000 C 
BRANCH  16  18
ATOM     17  O   UNL     1       2.421   7.562  19.088  0.00  0.00    +0.000 OA
ATOM     18  C   UNL     1       1.965   7.471  20.226  0.00  0.00    +0.000 C 
ATOM     19  N   UNL     1       1.932   6.338  21.004  0.00  0.00    +0.000 N 
ATOM     20  C   UNL     1       2.390   5.098  20.634  0.00  0.00    +0.000 A 
ATOM     21  N   UNL     1       2.051   3.990  21.258  0.00  0.00    +0.000 NA
ATOM     22  N   UNL     1       2.648   2.871  20.704  0.00  0.00    +0.000 NA
ATOM     23  C   UNL     1       3.452   3.196  19.714  0.00  0.00    +0.000 A 
ATOM     24  S   UNL     1       3.519   4.868  19.371  0.00  0.00    +0.000 S 
ATOM     25  H   UNL     1       1.355   6.367  21.838  0.00  0.00    +0.000 HD
ENDBRANCH  16  18
ENDBRANCH   1  16
TORSDOF 3
ENDMDL
MODEL 7
REMARK VINA RESULT:      -6.7      4.644      6.530
REMARK  Name = 
REMARK  3 active torsions:
REMARK  status: ('A' for Active; 'I' for Inactive)
REMARK    1  A    between atoms: C_2  and  C_3
REMARK    2  A    between atoms: C_3  and  N_4
REMARK    3  A    between atoms: N_7  and  C_8
REMARK                            x       y       z     vdW  Elec       q    Type
REMARK                         _______ _______ _______ _____ _____    ______ ____
ROOT
ATOM      1  N   UNL     1       1.776   3.501  19.751  0.00  0.00    +0.000 NA
ATOM      2  C   UNL     1       1.652   4.527  20.835  0.00  0.00    +0.000 C 
ATOM      3  C   UNL     1       2.571   5.769  20.695  0.00  0.00    +0.000 C 
ATOM      4  N   UNL     1       2.510   6.354  19.353  0.00  0.00    +0.000 N 
ATOM      5  C   UNL     1       2.478   5.442  18.210  0.00  0.00    +0.000 C 
ATOM      6  C   UNL     1       1.570   4.222  18.470  0.00  0.00    +0.000 C 
ENDROOT
BRANCH   4   7
ATOM      7  C   UNL     1       2.070   7.656  19.197  0.00  0.00    +0.000 A 
ATOM      8  N   UNL     1       2.326   8.319  18.032  0.00  0.00    +0.000 NA
ATOM      9  C   UNL     1       1.912   9.597  17.848  0.00  0.00    +0.000 A 
ATOM     10  C   UNL     1       1.204  10.343  18.765  0.00  0.00    +0.000 A 
ATOM     11  C   UNL     1       0.923   9.653  19.930  0.00  0.00    +0.000 A 
ATOM     12  O   UNL     1       0.218  10.154  20.984  0.00  0.00    +0.000 OA
ATOM     13  C   UNL     1       0.133   9.167  21.911  0.00  0.00    +0.000 A 
ATOM     14  C   UNL     1       0.774   8.035  21.465  0.00  0.00    +0.000 A 
ATOM     15  C   UNL     1       1.318   8.346  20.182  0.00  0.00    +0.000 A 
ENDBRANCH   4   7
BRANCH   1  16
ATOM     16  C   UNL     1       3.107   2.850  19.849  0.00  0.00    +0.000 C 
BRANCH  16  18
ATOM     17  O   UNL     1       3.595   2.351  17.562  0.00  0.00    +0.000 OA
ATOM     18  C   UNL     1       3.951   2.953  18.573  0.00  0.00    +0.000 C 
ATOM     19  N   UNL     1       5.053   3.766  18.693  0.00  0.00    +0.000 N 
ATOM     20  C   UNL     1       5.964   4.034  17.702  0.00  0.00    +0.000 A 
ATOM     21  N   UNL     1       7.157   4.536  17.938  0.00  0.00    +0.000 NA
ATOM     22  N   UNL     1       7.887   4.725  16.777  0.00  0.00    +0.000 NA
ATOM     23  C   UNL     1       7.187   4.399  15.711  0.00  0.00    +0.000 A 
ATOM     24  S   UNL     1       5.614   3.820  16.042  0.00  0.00    +0.000 S 
ATOM     25  H   UNL     1       5.327   4.038  19.632  0.00  0.00    +0.000 HD
ENDBRANCH  16  18
ENDBRANCH   1  16
TORSDOF 3
ENDMDL
MODEL 8
REMARK VINA RESULT:      -6.7      4.919      7.059
REMARK  Name = 
REMARK  3 active torsions:
REMARK  status: ('A' for Active; 'I' for Inactive)
REMARK    1  A    between atoms: C_2  and  C_3
REMARK    2  A    between atoms: C_3  and  N_4
REMARK    3  A    between atoms: N_7  and  C_8
REMARK                            x       y       z     vdW  Elec       q    Type
REMARK                         _______ _______ _______ _____ _____    ______ ____
ROOT
ATOM      1  N   UNL     1       2.230   5.864  19.035  0.00  0.00    +0.000 NA
ATOM      2  C   UNL     1       1.448   6.201  20.267  0.00  0.00    +0.000 C 
ATOM      3  C   UNL     1       1.713   7.604  20.871  0.00  0.00    +0.000 C 
ATOM      4  N   UNL     1       1.656   8.662  19.858  0.00  0.00    +0.000 N 
ATOM      5  C   UNL     1       2.264   8.395  18.555  0.00  0.00    +0.000 C 
ATOM      6  C   UNL     1       1.975   6.960  18.067  0.00  0.00    +0.000 C 
ENDROOT
BRANCH   4   7
ATOM      7  C   UNL     1       0.714   9.667  19.977  0.00  0.00    +0.000 A 
ATOM      8  N   UNL     1       0.346  10.379  18.872  0.00  0.00    +0.000 NA
ATOM      9  C   UNL     1      -0.572  11.374  18.953  0.00  0.00    +0.000 A 
ATOM     10  C   UNL     1      -1.225  11.761  20.104  0.00  0.00    +0.000 A 
ATOM     11  C   UNL     1      -0.868  11.014  21.211  0.00  0.00    +0.000 A 
ATOM     12  O   UNL     1      -1.383  11.179  22.463  0.00  0.00    +0.000 OA
ATOM     13  C   UNL     1      -0.805  10.242  23.257  0.00  0.00    +0.000 A 
ATOM     14  C   UNL     1       0.074   9.476  22.530  0.00  0.00    +0.000 A 
ATOM     15  C   UNL     1       0.064   9.986  21.197  0.00  0.00    +0.000 A 
ENDBRANCH   4   7
BRANCH   1  16
ATOM     16  C   UNL     1       3.665   5.724  19.394  0.00  0.00    +0.000 C 
BRANCH  16  18
ATOM     17  O   UNL     1       4.460   3.781  18.252  0.00  0.00    +0.000 OA
ATOM     18  C   UNL     1       4.510   5.006  18.336  0.00  0.00    +0.000 C 
ATOM     19  N   UNL     1       5.247   5.850  17.539  0.00  0.00    +0.000 N 
ATOM     20  C   UNL     1       6.077   5.465  16.515  0.00  0.00    +0.000 A 
ATOM     21  N   UNL     1       6.999   6.251  16.002  0.00  0.00    +0.000 NA
ATOM     22  N   UNL     1       7.699   5.639  14.977  0.00  0.00    +0.000 NA
ATOM     23  C   UNL     1       7.235   4.432  14.731  0.00  0.00    +0.000 A 
ATOM     24  S   UNL     1       5.945   3.947  15.739  0.00  0.00    +0.000 S 
ATOM     25  H   UNL     1       5.340   6.812  17.847  0.00  0.00    +0.000 HD
ENDBRANCH  16  18
ENDBRANCH   1  16
TORSDOF 3
ENDMDL
MODEL 9
REMARK VINA RESULT:      -6.6      3.612      6.184
REMARK  Name = 
REMARK  3 active torsions:
REMARK  status: ('A' for Active; 'I' for Inactive)
REMARK    1  A    between atoms: C_2  and  C_3
REMARK    2  A    between atoms: C_3  and  N_4
REMARK    3  A    between atoms: N_7  and  C_8
REMARK                            x       y       z     vdW  Elec       q    Type
REMARK                         _______ _______ _______ _____ _____    ______ ____
ROOT
ATOM      1  N   UNL     1       1.747   3.463  18.794  0.00  0.00    +0.000 NA
ATOM      2  C   UNL     1       1.184   3.878  20.118  0.00  0.00    +0.000 C 
ATOM      3  C   UNL     1       1.919   5.044  20.827  0.00  0.00    +0.000 C 
ATOM      4  N   UNL     1       2.150   6.180  19.930  0.00  0.00    +0.000 N 
ATOM      5  C   UNL     1       2.565   5.894  18.557  0.00  0.00    +0.000 C 
ATOM      6  C   UNL     1       1.803   4.691  17.962  0.00  0.00    +0.000 C 
ENDROOT
BRANCH   4   7
ATOM      7  C   UNL     1       1.589   7.408  20.229  0.00  0.00    +0.000 A 
ATOM      8  N   UNL     1       0.975   7.592  21.434  0.00  0.00    +0.000 NA
ATOM      9  C   UNL     1       0.411   8.783  21.759  0.00  0.00    +0.000 A 
ATOM     10  C   UNL     1       0.401   9.902  20.956  0.00  0.00    +0.000 A 
ATOM     11  C   UNL     1       1.052   9.715  19.750  0.00  0.00    +0.000 A 
ATOM     12  O   UNL     1       1.203  10.669  18.788  0.00  0.00    +0.000 OA
ATOM     13  C   UNL     1       1.917  10.108  17.780  0.00  0.00    +0.000 A 
ATOM     14  C   UNL     1       2.229   8.804  18.083  0.00  0.00    +0.000 A 
ATOM     15  C   UNL     1       1.647   8.524  19.356  0.00  0.00    +0.000 A 
ENDBRANCH   4   7
BRANCH   1  16
ATOM     16  C   UNL     1       3.078   2.838  19.006  0.00  0.00    +0.000 C 
BRANCH  16  18
ATOM     17  O   UNL     1       4.366   3.521  17.112  0.00  0.00    +0.000 OA
ATOM     18  C   UNL     1       4.235   3.584  18.332  0.00  0.00    +0.000 C 
ATOM     19  N   UNL     1       5.025   4.299  19.201  0.00  0.00    +0.000 N 
ATOM     20  C   UNL     1       6.116   5.057  18.856  0.00  0.00    +0.000 A 
ATOM     21  N   UNL     1       7.024   5.449  19.724  0.00  0.00    +0.000 NA
ATOM     22  N   UNL     1       8.020   6.208  19.136  0.00  0.00    +0.000 NA
ATOM     23  C   UNL     1       7.788   6.395  17.854  0.00  0.00    +0.000 A 
ATOM     24  S   UNL     1       6.369   5.644  17.270  0.00  0.00    +0.000 S 
ATOM     25  H   UNL     1       4.916   4.103  20.191  0.00  0.00    +0.000 HD
ENDBRANCH  16  18
ENDBRANCH   1  16
TORSDOF 3
ENDMDL
