MODEL 1
REMARK VINA RESULT:      -8.0      0.000      0.000
REMARK  Name = 
REMARK  5 active torsions:
REMARK  status: ('A' for Active; 'I' for Inactive)
REMARK    1  A    between atoms: C_2  and  C_3
REMARK    2  A    between atoms: C_3  and  C_4
REMARK    3  A    between atoms: C_4  and  N_5
REMARK    4  A    between atoms: N_11  and  C_12
REMARK    5  A    between atoms: N_20  and  C_21
REMARK                            x       y       z     vdW  Elec       q    Type
REMARK                         _______ _______ _______ _____ _____    ______ ____
ROOT
ATOM      1  C   UNL     1       2.023   6.369  20.148  0.00  0.00    +0.000 A 
ATOM      2  C   UNL     1       1.346   5.349  20.802  0.00  0.00    +0.000 A 
ATOM      3  C   UNL     1       1.523   4.022  20.397  0.00  0.00    +0.000 A 
ATOM      4  C   UNL     1       2.390   3.671  19.368  0.00  0.00    +0.000 A 
ATOM      5  N   UNL     1       2.544   2.377  19.077  0.00  0.00    +0.000 NA
ATOM      6  C   UNL     1       3.404   2.082  18.100  0.00  0.00    +0.000 A 
ATOM      7  N   UNL     1       4.114   2.959  17.391  0.00  0.00    +0.000 NA
ATOM      8  C   UNL     1       3.957   4.263  17.689  0.00  0.00    +0.000 A 
ATOM      9  N   UNL     1       4.747   5.218  16.985  0.00  0.00    +0.000 N 
ATOM     10  C   UNL     1       3.071   4.693  18.694  0.00  0.00    +0.000 A 
ATOM     11  C   UNL     1       2.841   6.045  19.062  0.00  0.00    +0.000 A 
ATOM     12  H   UNL     1       5.298   5.740  17.658  0.00  0.00    +0.000 HD
ENDROOT
BRANCH   9  13
ATOM     13  C   UNL     1       5.499   4.902  15.825  0.00  0.00    +0.000 A 
ATOM     14  C   UNL     1       6.872   5.188  15.765  0.00  0.00    +0.000 A 
ATOM     15  C   UNL     1       7.610   4.950  14.606  0.00  0.00    +0.000 A 
ATOM     16  C   UNL     1       6.986   4.403  13.489  0.00  0.00    +0.000 A 
ATOM     17  C   UNL     1       5.630   4.080  13.550  0.00  0.00    +0.000 A 
ATOM     18 BR   UNL     1       4.784   3.344  12.027  0.00  0.00    +0.000 Br
ATOM     19  C   UNL     1       4.888   4.312  14.712  0.00  0.00    +0.000 A 
ENDBRANCH   9  13
BRANCH   1  22
ATOM     20  O   UNL     1      -0.234   7.872  21.395  0.00  0.00    +0.000 OA
ATOM     21  C   UNL     1       0.827   8.377  21.063  0.00  0.00    +0.000 C 
ATOM     22  N   UNL     1       1.928   7.722  20.507  0.00  0.00    +0.000 N 
ATOM     23  H   UNL     1       2.795   8.249  20.485  0.00  0.00    +0.000 HD
BRANCH  21  24
ATOM     24  C   UNL     1       1.087   9.869  21.125  0.00  0.00    +0.000 C 
BRANCH  24  25
ATOM     25  C   UNL     1      -0.161  10.753  21.217  0.00  0.00    +0.000 C 
BRANCH  25  26
ATOM     26  N   UNL     1      -0.113  11.820  20.191  0.00  0.00    +0.000 NA
ATOM     27  C   UNL     1      -1.273  12.741  20.265  0.00  0.00    +0.000 C 
ATOM     28  C   UNL     1      -2.577  12.219  19.625  0.00  0.00    +0.000 C 
ATOM     29  O   UNL     1      -2.378  11.688  18.307  0.00  0.00    +0.000 OA
ATOM     30  C   UNL     1      -1.349  10.695  18.315  0.00  0.00    +0.000 C 
ATOM     31  C   UNL     1      -0.035  11.315  18.803  0.00  0.00    +0.000 C 
ENDBRANCH  25  26
ENDBRANCH  24  25
ENDBRANCH  21  24
ENDBRANCH   1  22
TORSDOF 5
ENDMDL
MODEL 2
REMARK VINA RESULT:      -7.9      1.797      2.228
REMARK  Name = 
REMARK  5 active torsions:
REMARK  status: ('A' for Active; 'I' for Inactive)
REMARK    1  A    between atoms: C_2  and  C_3
REMARK    2  A    between atoms: C_3  and  C_4
REMARK    3  A    between atoms: C_4  and  N_5
REMARK    4  A    between atoms: N_11  and  C_12
REMARK    5  A    between atoms: N_20  and  C_21
REMARK                            x       y       z     vdW  Elec       q    Type
REMARK                         _______ _______ _______ _____ _____    ______ ____
ROOT
ATOM      1  C   UNL     1       1.956   7.293  19.593  0.00  0.00    +0.000 A 
ATOM      2  C   UNL     1       1.630   6.469  20.661  0.00  0.00    +0.000 A 
ATOM      3  C   UNL     1       2.159   5.176  20.733  0.00  0.00    +0.000 A 
ATOM      4  C   UNL     1       3.041   4.683  19.778  0.00  0.00    +0.000 A 
ATOM      5  N   UNL     1       3.544   3.458  19.946  0.00  0.00    +0.000 NA
ATOM      6  C   UNL     1       4.405   3.032  19.020  0.00  0.00    +0.000 A 
ATOM      7  N   UNL     1       4.802   3.715  17.947  0.00  0.00    +0.000 NA
ATOM      8  C   UNL     1       4.293   4.952  17.782  0.00  0.00    +0.000 A 
ATOM      9  N   UNL     1       4.745   5.726  16.673  0.00  0.00    +0.000 N 
ATOM     10  C   UNL     1       3.369   5.502  18.690  0.00  0.00    +0.000 A 
ATOM     11  C   UNL     1       2.782   6.789  18.583  0.00  0.00    +0.000 A 
ATOM     12  H   UNL     1       5.155   6.585  17.025  0.00  0.00    +0.000 HD
ENDROOT
BRANCH   9  13
ATOM     13  C   UNL     1       5.501   5.185  15.603  0.00  0.00    +0.000 A 
ATOM     14  C   UNL     1       6.898   5.308  15.583  0.00  0.00    +0.000 A 
ATOM     15  C   UNL     1       7.649   4.846  14.503  0.00  0.00    +0.000 A 
ATOM     16  C   UNL     1       7.011   4.235  13.428  0.00  0.00    +0.000 A 
ATOM     17  C   UNL     1       5.626   4.074  13.454  0.00  0.00    +0.000 A 
ATOM     18 BR   UNL     1       4.760   3.250  11.987  0.00  0.00    +0.000 Br
ATOM     19  C   UNL     1       4.869   4.531  14.537  0.00  0.00    +0.000 A 
ENDBRANCH   9  13
BRANCH   1  22
ATOM     20  O   UNL     1       2.159   9.167  17.280  0.00  0.00    +0.000 OA
ATOM     21  C   UNL     1       1.651   9.453  18.353  0.00  0.00    +0.000 C 
ATOM     22  N   UNL     1       1.497   8.612  19.457  0.00  0.00    +0.000 N 
ATOM     23  H   UNL     1       0.873   8.942  20.185  0.00  0.00    +0.000 HD
BRANCH  21  24
ATOM     24  C   UNL     1       1.167  10.849  18.692  0.00  0.00    +0.000 C 
BRANCH  24  25
ATOM     25  C   UNL     1       0.145  10.934  19.829  0.00  0.00    +0.000 C 
BRANCH  25  26
ATOM     26  N   UNL     1       0.823  11.237  21.111  0.00  0.00    +0.000 NA
ATOM     27  C   UNL     1       0.323  10.411  22.236  0.00  0.00    +0.000 C 
ATOM     28  C   UNL     1      -1.010  10.877  22.860  0.00  0.00    +0.000 C 
ATOM     29  O   UNL     1      -1.026  12.280  23.157  0.00  0.00    +0.000 OA
ATOM     30  C   UNL     1      -0.681  13.044  21.999  0.00  0.00    +0.000 C 
ATOM     31  C   UNL     1       0.723  12.656  21.522  0.00  0.00    +0.000 C 
ENDBRANCH  25  26
ENDBRANCH  24  25
ENDBRANCH  21  24
ENDBRANCH   1  22
TORSDOF 5
ENDMDL
MODEL 3
REMARK VINA RESULT:      -7.9      1.414      1.796
REMARK  Name = 
REMARK  5 active torsions:
REMARK  status: ('A' for Active; 'I' for Inactive)
REMARK    1  A    between atoms: C_2  and  C_3
REMARK    2  A    between atoms: C_3  and  C_4
REMARK    3  A    between atoms: C_4  and  N_5
REMARK    4  A    between atoms: N_11  and  C_12
REMARK    5  A    between atoms: N_20  and  C_21
REMARK                            x       y       z     vdW  Elec       q    Type
REMARK                         _______ _______ _______ _____ _____    ______ ____
ROOT
ATOM      1  C   UNL     1       2.019   7.414  19.626  0.00  0.00    +0.000 A 
ATOM      2  C   UNL     1       1.556   6.562  20.618  0.00  0.00    +0.000 A 
ATOM      3  C   UNL     1       1.941   5.217  20.618  0.00  0.00    +0.000 A 
ATOM      4  C   UNL     1       2.810   4.695  19.667  0.00  0.00    +0.000 A 
ATOM      5  N   UNL     1       3.171   3.413  19.768  0.00  0.00    +0.000 NA
ATOM      6  C   UNL     1       4.026   2.959  18.849  0.00  0.00    +0.000 A 
ATOM      7  N   UNL     1       4.544   3.664  17.844  0.00  0.00    +0.000 NA
ATOM      8  C   UNL     1       4.178   4.957  17.747  0.00  0.00    +0.000 A 
ATOM      9  N   UNL     1       4.761   5.750  16.716  0.00  0.00    +0.000 N 
ATOM     10  C   UNL     1       3.275   5.543  18.654  0.00  0.00    +0.000 A 
ATOM     11  C   UNL     1       2.834   6.892  18.616  0.00  0.00    +0.000 A 
ATOM     12  H   UNL     1       5.243   6.533  17.144  0.00  0.00    +0.000 HD
ENDROOT
BRANCH   9  13
ATOM     13  C   UNL     1       5.506   5.202  15.641  0.00  0.00    +0.000 A 
ATOM     14  C   UNL     1       6.905   5.309  15.614  0.00  0.00    +0.000 A 
ATOM     15  C   UNL     1       7.645   4.839  14.530  0.00  0.00    +0.000 A 
ATOM     16  C   UNL     1       6.994   4.238  13.457  0.00  0.00    +0.000 A 
ATOM     17  C   UNL     1       5.607   4.093  13.489  0.00  0.00    +0.000 A 
ATOM     18 BR   UNL     1       4.725   3.281  12.025  0.00  0.00    +0.000 Br
ATOM     19  C   UNL     1       4.861   4.557  14.577  0.00  0.00    +0.000 A 
ENDBRANCH   9  13
BRANCH   1  22
ATOM     20  O   UNL     1       1.839   9.240  17.272  0.00  0.00    +0.000 OA
ATOM     21  C   UNL     1       1.671   9.593  18.429  0.00  0.00    +0.000 C 
ATOM     22  N   UNL     1       1.710   8.781  19.566  0.00  0.00    +0.000 N 
ATOM     23  H   UNL     1       1.346   9.192  20.418  0.00  0.00    +0.000 HD
BRANCH  21  24
ATOM     24  C   UNL     1       1.473  11.041  18.831  0.00  0.00    +0.000 C 
BRANCH  24  25
ATOM     25  C   UNL     1       0.078  11.614  18.566  0.00  0.00    +0.000 C 
BRANCH  25  26
ATOM     26  N   UNL     1      -0.951  10.810  19.266  0.00  0.00    +0.000 NA
ATOM     27  C   UNL     1      -2.042  10.363  18.367  0.00  0.00    +0.000 C 
ATOM     28  C   UNL     1      -3.119  11.423  18.053  0.00  0.00    +0.000 C 
ATOM     29  O   UNL     1      -3.609  12.085  19.227  0.00  0.00    +0.000 OA
ATOM     30  C   UNL     1      -2.527  12.629  19.987  0.00  0.00    +0.000 C 
ATOM     31  C   UNL     1      -1.577  11.505  20.413  0.00  0.00    +0.000 C 
ENDBRANCH  25  26
ENDBRANCH  24  25
ENDBRANCH  21  24
ENDBRANCH   1  22
TORSDOF 5
ENDMDL
MODEL 4
REMARK VINA RESULT:      -7.8      1.476      1.881
REMARK  Name = 
REMARK  5 active torsions:
REMARK  status: ('A' for Active; 'I' for Inactive)
REMARK    1  A    between atoms: C_2  and  C_3
REMARK    2  A    between atoms: C_3  and  C_4
REMARK    3  A    between atoms: C_4  and  N_5
REMARK    4  A    between atoms: N_11  and  C_12
REMARK    5  A    between atoms: N_20  and  C_21
REMARK                            x       y       z     vdW  Elec       q    Type
REMARK                         _______ _______ _______ _____ _____    ______ ____
ROOT
ATOM      1  C   UNL     1       2.129   7.486  19.501  0.00  0.00    +0.000 A 
ATOM      2  C   UNL     1       1.592   6.635  20.456  0.00  0.00    +0.000 A 
ATOM      3  C   UNL     1       1.881   5.267  20.415  0.00  0.00    +0.000 A 
ATOM      4  C   UNL     1       2.726   4.718  19.458  0.00  0.00    +0.000 A 
ATOM      5  N   UNL     1       2.994   3.411  19.518  0.00  0.00    +0.000 NA
ATOM      6  C   UNL     1       3.829   2.928  18.595  0.00  0.00    +0.000 A 
ATOM      7  N   UNL     1       4.411   3.629  17.623  0.00  0.00    +0.000 NA
ATOM      8  C   UNL     1       4.138   4.947  17.566  0.00  0.00    +0.000 A 
ATOM      9  N   UNL     1       4.792   5.731  16.571  0.00  0.00    +0.000 N 
ATOM     10  C   UNL     1       3.265   5.565  18.481  0.00  0.00    +0.000 A 
ATOM     11  C   UNL     1       2.921   6.941  18.484  0.00  0.00    +0.000 A 
ATOM     12  H   UNL     1       5.322   6.463  17.033  0.00  0.00    +0.000 HD
ENDROOT
BRANCH   9  13
ATOM     13  C   UNL     1       5.513   5.168  15.487  0.00  0.00    +0.000 A 
ATOM     14  C   UNL     1       6.911   5.272  15.430  0.00  0.00    +0.000 A 
ATOM     15  C   UNL     1       7.628   4.788  14.336  0.00  0.00    +0.000 A 
ATOM     16  C   UNL     1       6.954   4.175  13.285  0.00  0.00    +0.000 A 
ATOM     17  C   UNL     1       5.568   4.032  13.349  0.00  0.00    +0.000 A 
ATOM     18 BR   UNL     1       4.654   3.204  11.914  0.00  0.00    +0.000 Br
ATOM     19  C   UNL     1       4.846   4.511  14.446  0.00  0.00    +0.000 A 
ENDBRANCH   9  13
BRANCH   1  22
ATOM     20  O   UNL     1       0.607   9.173  17.567  0.00  0.00    +0.000 OA
ATOM     21  C   UNL     1       1.217   9.612  18.529  0.00  0.00    +0.000 C 
ATOM     22  N   UNL     1       1.918   8.873  19.485  0.00  0.00    +0.000 N 
ATOM     23  H   UNL     1       2.188   9.373  20.325  0.00  0.00    +0.000 HD
BRANCH  21  24
ATOM     24  C   UNL     1       1.386  11.095  18.794  0.00  0.00    +0.000 C 
BRANCH  24  25
ATOM     25  C   UNL     1       0.763  11.608  20.096  0.00  0.00    +0.000 C 
BRANCH  25  26
ATOM     26  N   UNL     1      -0.470  10.849  20.411  0.00  0.00    +0.000 NA
ATOM     27  C   UNL     1      -1.704  11.553  19.985  0.00  0.00    +0.000 C 
ATOM     28  C   UNL     1      -2.185  12.678  20.926  0.00  0.00    +0.000 C 
ATOM     29  O   UNL     1      -2.229  12.273  22.301  0.00  0.00    +0.000 OA
ATOM     30  C   UNL     1      -0.968  11.737  22.708  0.00  0.00    +0.000 C 
ATOM     31  C   UNL     1      -0.620  10.519  21.846  0.00  0.00    +0.000 C 
ENDBRANCH  25  26
ENDBRANCH  24  25
ENDBRANCH  21  24
ENDBRANCH   1  22
TORSDOF 5
ENDMDL
MODEL 5
REMARK VINA RESULT:      -7.8      1.191      1.395
REMARK  Name = 
REMARK  5 active torsions:
REMARK  status: ('A' for Active; 'I' for Inactive)
REMARK    1  A    between atoms: C_2  and  C_3
REMARK    2  A    between atoms: C_3  and  C_4
REMARK    3  A    between atoms: C_4  and  N_5
REMARK    4  A    between atoms: N_11  and  C_12
REMARK    5  A    between atoms: N_20  and  C_21
REMARK                            x       y       z     vdW  Elec       q    Type
REMARK                         _______ _______ _______ _____ _____    ______ ____
ROOT
ATOM      1  C   UNL     1       1.993   6.309  20.227  0.00  0.00    +0.000 A 
ATOM      2  C   UNL     1       1.271   5.286  20.825  0.00  0.00    +0.000 A 
ATOM      3  C   UNL     1       1.413   3.971  20.368  0.00  0.00    +0.000 A 
ATOM      4  C   UNL     1       2.288   3.635  19.341  0.00  0.00    +0.000 A 
ATOM      5  N   UNL     1       2.406   2.350  18.998  0.00  0.00    +0.000 NA
ATOM      6  C   UNL     1       3.274   2.067  18.025  0.00  0.00    +0.000 A 
ATOM      7  N   UNL     1       4.026   2.948  17.366  0.00  0.00    +0.000 NA
ATOM      8  C   UNL     1       3.904   4.244  17.715  0.00  0.00    +0.000 A 
ATOM      9  N   UNL     1       4.738   5.201  17.066  0.00  0.00    +0.000 N 
ATOM     10  C   UNL     1       3.014   4.661  18.722  0.00  0.00    +0.000 A 
ATOM     11  C   UNL     1       2.821   6.003  19.142  0.00  0.00    +0.000 A 
ATOM     12  H   UNL     1       5.293   5.676  17.770  0.00  0.00    +0.000 HD
ENDROOT
BRANCH   9  13
ATOM     13  C   UNL     1       5.501   4.908  15.907  0.00  0.00    +0.000 A 
ATOM     14  C   UNL     1       6.867   5.227  15.854  0.00  0.00    +0.000 A 
ATOM     15  C   UNL     1       7.614   5.012  14.696  0.00  0.00    +0.000 A 
ATOM     16  C   UNL     1       7.007   4.456  13.574  0.00  0.00    +0.000 A 
ATOM     17  C   UNL     1       5.659   4.101  13.629  0.00  0.00    +0.000 A 
ATOM     18 BR   UNL     1       4.835   3.353  12.098  0.00  0.00    +0.000 Br
ATOM     19  C   UNL     1       4.907   4.310  14.789  0.00  0.00    +0.000 A 
ENDBRANCH   9  13
BRANCH   1  22
ATOM     20  O   UNL     1      -0.251   7.843  21.459  0.00  0.00    +0.000 OA
ATOM     21  C   UNL     1       0.839   8.321  21.185  0.00  0.00    +0.000 C 
ATOM     22  N   UNL     1       1.935   7.648  20.640  0.00  0.00    +0.000 N 
ATOM     23  H   UNL     1       2.821   8.142  20.671  0.00  0.00    +0.000 HD
BRANCH  21  24
ATOM     24  C   UNL     1       1.151   9.798  21.321  0.00  0.00    +0.000 C 
BRANCH  24  25
ATOM     25  C   UNL     1       0.747  10.670  20.129  0.00  0.00    +0.000 C 
BRANCH  25  26
ATOM     26  N   UNL     1       0.435  12.046  20.578  0.00  0.00    +0.000 NA
ATOM     27  C   UNL     1      -0.637  12.685  19.777  0.00  0.00    +0.000 C 
ATOM     28  C   UNL     1      -0.194  13.257  18.413  0.00  0.00    +0.000 C 
ATOM     29  O   UNL     1       0.984  14.071  18.506  0.00  0.00    +0.000 OA
ATOM     30  C   UNL     1       2.038  13.357  19.156  0.00  0.00    +0.000 C 
ATOM     31  C   UNL     1       1.600  12.959  20.569  0.00  0.00    +0.000 C 
ENDBRANCH  25  26
ENDBRANCH  24  25
ENDBRANCH  21  24
ENDBRANCH   1  22
TORSDOF 5
ENDMDL
MODEL 6
REMARK VINA RESULT:      -7.8      1.312      1.421
REMARK  Name = 
REMARK  5 active torsions:
REMARK  status: ('A' for Active; 'I' for Inactive)
REMARK    1  A    between atoms: C_2  and  C_3
REMARK    2  A    between atoms: C_3  and  C_4
REMARK    3  A    between atoms: C_4  and  N_5
REMARK    4  A    between atoms: N_11  and  C_12
REMARK    5  A    between atoms: N_20  and  C_21
REMARK                            x       y       z     vdW  Elec       q    Type
REMARK                         _______ _______ _______ _____ _____    ______ ____
ROOT
ATOM      1  C   UNL     1       2.047   7.380  19.664  0.00  0.00    +0.000 A 
ATOM      2  C   UNL     1       1.562   6.513  20.634  0.00  0.00    +0.000 A 
ATOM      3  C   UNL     1       1.918   5.161  20.603  0.00  0.00    +0.000 A 
ATOM      4  C   UNL     1       2.781   4.644  19.643  0.00  0.00    +0.000 A 
ATOM      5  N   UNL     1       3.115   3.353  19.714  0.00  0.00    +0.000 NA
ATOM      6  C   UNL     1       3.964   2.903  18.788  0.00  0.00    +0.000 A 
ATOM      7  N   UNL     1       4.501   3.622  17.803  0.00  0.00    +0.000 NA
ATOM      8  C   UNL     1       4.162   4.924  17.735  0.00  0.00    +0.000 A 
ATOM      9  N   UNL     1       4.767   5.729  16.726  0.00  0.00    +0.000 N 
ATOM     10  C   UNL     1       3.268   5.507  18.653  0.00  0.00    +0.000 A 
ATOM     11  C   UNL     1       2.855   6.865  18.645  0.00  0.00    +0.000 A 
ATOM     12  H   UNL     1       5.263   6.491  17.176  0.00  0.00    +0.000 HD
ENDROOT
BRANCH   9  13
ATOM     13  C   UNL     1       5.505   5.192  15.641  0.00  0.00    +0.000 A 
ATOM     14  C   UNL     1       6.903   5.308  15.602  0.00  0.00    +0.000 A 
ATOM     15  C   UNL     1       7.636   4.850  14.508  0.00  0.00    +0.000 A 
ATOM     16  C   UNL     1       6.979   4.250  13.438  0.00  0.00    +0.000 A 
ATOM     17  C   UNL     1       5.593   4.095  13.483  0.00  0.00    +0.000 A 
ATOM     18 BR   UNL     1       4.703   3.286  12.023  0.00  0.00    +0.000 Br
ATOM     19  C   UNL     1       4.855   4.548  14.580  0.00  0.00    +0.000 A 
ENDBRANCH   9  13
BRANCH   1  22
ATOM     20  O   UNL     1       0.811   9.043  17.517  0.00  0.00    +0.000 OA
ATOM     21  C   UNL     1       1.211   9.484  18.583  0.00  0.00    +0.000 C 
ATOM     22  N   UNL     1       1.766   8.754  19.636  0.00  0.00    +0.000 N 
ATOM     23  H   UNL     1       1.851   9.243  20.521  0.00  0.00    +0.000 HD
BRANCH  21  24
ATOM     24  C   UNL     1       1.247  10.966  18.903  0.00  0.00    +0.000 C 
BRANCH  24  25
ATOM     25  C   UNL     1       0.114  11.475  19.798  0.00  0.00    +0.000 C 
BRANCH  25  26
ATOM     26  N   UNL     1      -0.641  12.550  19.114  0.00  0.00    +0.000 NA
ATOM     27  C   UNL     1      -1.538  13.295  20.030  0.00  0.00    +0.000 C 
ATOM     28  C   UNL     1      -2.876  12.600  20.360  0.00  0.00    +0.000 C 
ATOM     29  O   UNL     1      -3.557  12.119  19.193  0.00  0.00    +0.000 OA
ATOM     30  C   UNL     1      -2.695  11.282  18.417  0.00  0.00    +0.000 C 
ATOM     31  C   UNL     1      -1.461  12.077  17.977  0.00  0.00    +0.000 C 
ENDBRANCH  25  26
ENDBRANCH  24  25
ENDBRANCH  21  24
ENDBRANCH   1  22
TORSDOF 5
ENDMDL
MODEL 7
REMARK VINA RESULT:      -7.6      1.257      1.695
REMARK  Name = 
REMARK  5 active torsions:
REMARK  status: ('A' for Active; 'I' for Inactive)
REMARK    1  A    between atoms: C_2  and  C_3
REMARK    2  A    between atoms: C_3  and  C_4
REMARK    3  A    between atoms: C_4  and  N_5
REMARK    4  A    between atoms: N_11  and  C_12
REMARK    5  A    between atoms: N_20  and  C_21
REMARK                            x       y       z     vdW  Elec       q    Type
REMARK                         _______ _______ _______ _____ _____    ______ ____
ROOT
ATOM      1  C   UNL     1       1.928   6.098  20.327  0.00  0.00    +0.000 A 
ATOM      2  C   UNL     1       1.198   5.051  20.871  0.00  0.00    +0.000 A 
ATOM      3  C   UNL     1       1.350   3.755  20.364  0.00  0.00    +0.000 A 
ATOM      4  C   UNL     1       2.244   3.462  19.340  0.00  0.00    +0.000 A 
ATOM      5  N   UNL     1       2.370   2.191  18.949  0.00  0.00    +0.000 NA
ATOM      6  C   UNL     1       3.256   1.949  17.980  0.00  0.00    +0.000 A 
ATOM      7  N   UNL     1       4.017   2.857  17.370  0.00  0.00    +0.000 NA
ATOM      8  C   UNL     1       3.887   4.137  17.769  0.00  0.00    +0.000 A 
ATOM      9  N   UNL     1       4.730   5.120  17.173  0.00  0.00    +0.000 N 
ATOM     10  C   UNL     1       2.978   4.512  18.776  0.00  0.00    +0.000 A 
ATOM     11  C   UNL     1       2.775   5.836  19.246  0.00  0.00    +0.000 A 
ATOM     12  H   UNL     1       5.271   5.567  17.905  0.00  0.00    +0.000 HD
ENDROOT
BRANCH   9  13
ATOM     13  C   UNL     1       5.514   4.875  16.018  0.00  0.00    +0.000 A 
ATOM     14  C   UNL     1       6.871   5.231  15.988  0.00  0.00    +0.000 A 
ATOM     15  C   UNL     1       7.637   5.063  14.835  0.00  0.00    +0.000 A 
ATOM     16  C   UNL     1       7.058   4.518  13.693  0.00  0.00    +0.000 A 
ATOM     17  C   UNL     1       5.720   4.126  13.723  0.00  0.00    +0.000 A 
ATOM     18 BR   UNL     1       4.934   3.392  12.166  0.00  0.00    +0.000 Br
ATOM     19  C   UNL     1       4.949   4.287  14.879  0.00  0.00    +0.000 A 
ENDBRANCH   9  13
BRANCH   1  22
ATOM     20  O   UNL     1      -0.382   7.627  21.436  0.00  0.00    +0.000 OA
ATOM     21  C   UNL     1       0.735   8.092  21.274  0.00  0.00    +0.000 C 
ATOM     22  N   UNL     1       1.860   7.419  20.793  0.00  0.00    +0.000 N 
ATOM     23  H   UNL     1       2.749   7.892  20.918  0.00  0.00    +0.000 HD
BRANCH  21  24
ATOM     24  C   UNL     1       1.061   9.555  21.500  0.00  0.00    +0.000 C 
BRANCH  24  25
ATOM     25  C   UNL     1      -0.062  10.394  22.116  0.00  0.00    +0.000 C 
BRANCH  25  26
ATOM     26  N   UNL     1      -0.627  11.320  21.107  0.00  0.00    +0.000 NA
ATOM     27  C   UNL     1       0.412  11.944  20.253  0.00  0.00    +0.000 C 
ATOM     28  C   UNL     1       1.165  13.134  20.887  0.00  0.00    +0.000 C 
ATOM     29  O   UNL     1       0.284  14.099  21.478  0.00  0.00    +0.000 OA
ATOM     30  C   UNL     1      -0.603  13.470  22.406  0.00  0.00    +0.000 C 
ATOM     31  C   UNL     1      -1.443  12.411  21.684  0.00  0.00    +0.000 C 
ENDBRANCH  25  26
ENDBRANCH  24  25
ENDBRANCH  21  24
ENDBRANCH   1  22
TORSDOF 5
ENDMDL
MODEL 8
REMARK VINA RESULT:      -7.6      1.931      2.834
REMARK  Name = 
REMARK  5 active torsions:
REMARK  status: ('A' for Active; 'I' for Inactive)
REMARK    1  A    between atoms: C_2  and  C_3
REMARK    2  A    between atoms: C_3  and  C_4
REMARK    3  A    between atoms: C_4  and  N_5
REMARK    4  A    between atoms: N_11  and  C_12
REMARK    5  A    between atoms: N_20  and  C_21
REMARK                            x       y       z     vdW  Elec       q    Type
REMARK                         _______ _______ _______ _____ _____    ______ ____
ROOT
ATOM      1  C   UNL     1       1.187   9.119  19.594  0.00  0.00    +0.000 A 
ATOM      2  C   UNL     1       0.440   8.584  20.634  0.00  0.00    +0.000 A 
ATOM      3  C   UNL     1       0.694   7.282  21.079  0.00  0.00    +0.000 A 
ATOM      4  C   UNL     1       1.704   6.497  20.533  0.00  0.00    +0.000 A 
ATOM      5  N   UNL     1       1.918   5.284  21.049  0.00  0.00    +0.000 NA
ATOM      6  C   UNL     1       2.912   4.573  20.513  0.00  0.00    +0.000 A 
ATOM      7  N   UNL     1       3.702   4.962  19.513  0.00  0.00    +0.000 NA
ATOM      8  C   UNL     1       3.483   6.187  18.996  0.00  0.00    +0.000 A 
ATOM      9  N   UNL     1       4.350   6.650  17.964  0.00  0.00    +0.000 N 
ATOM     10  C   UNL     1       2.457   7.022  19.475  0.00  0.00    +0.000 A 
ATOM     11  C   UNL     1       2.156   8.318  18.981  0.00  0.00    +0.000 A 
ATOM     12  H   UNL     1       4.792   7.509  18.275  0.00  0.00    +0.000 HD
ENDROOT
BRANCH   9  13
ATOM     13  C   UNL     1       5.264   5.809  17.280  0.00  0.00    +0.000 A 
ATOM     14  C   UNL     1       6.483   5.449  17.873  0.00  0.00    +0.000 A 
ATOM     15  C   UNL     1       7.424   4.683  17.185  0.00  0.00    +0.000 A 
ATOM     16  C   UNL     1       7.149   4.250  15.892  0.00  0.00    +0.000 A 
ATOM     17  C   UNL     1       5.925   4.570  15.306  0.00  0.00    +0.000 A 
ATOM     18 BR   UNL     1       5.558   3.985  13.544  0.00  0.00    +0.000 Br
ATOM     19  C   UNL     1       4.977   5.334  15.994  0.00  0.00    +0.000 A 
ENDBRANCH   9  13
BRANCH   1  22
ATOM     20  O   UNL     1       1.451  11.740  20.996  0.00  0.00    +0.000 OA
ATOM     21  C   UNL     1       1.130  11.617  19.824  0.00  0.00    +0.000 C 
ATOM     22  N   UNL     1       1.022  10.424  19.106  0.00  0.00    +0.000 N 
ATOM     23  H   UNL     1       0.948  10.515  18.099  0.00  0.00    +0.000 HD
BRANCH  21  24
ATOM     24  C   UNL     1       0.697  12.784  18.960  0.00  0.00    +0.000 C 
BRANCH  24  25
ATOM     25  C   UNL     1      -0.813  12.916  18.737  0.00  0.00    +0.000 C 
BRANCH  25  26
ATOM     26  N   UNL     1      -1.532  11.807  19.406  0.00  0.00    +0.000 NA
ATOM     27  C   UNL     1      -2.412  11.052  18.482  0.00  0.00    +0.000 C 
ATOM     28  C   UNL     1      -3.772  11.713  18.171  0.00  0.00    +0.000 C 
ATOM     29  O   UNL     1      -4.459  12.154  19.351  0.00  0.00    +0.000 OA
ATOM     30  C   UNL     1      -3.618  13.001  20.137  0.00  0.00    +0.000 C 
ATOM     31  C   UNL     1      -2.359  12.236  20.556  0.00  0.00    +0.000 C 
ENDBRANCH  25  26
ENDBRANCH  24  25
ENDBRANCH  21  24
ENDBRANCH   1  22
TORSDOF 5
ENDMDL
MODEL 9
REMARK VINA RESULT:      -7.6      1.116      1.289
REMARK  Name = 
REMARK  5 active torsions:
REMARK  status: ('A' for Active; 'I' for Inactive)
REMARK    1  A    between atoms: C_2  and  C_3
REMARK    2  A    between atoms: C_3  and  C_4
REMARK    3  A    between atoms: C_4  and  N_5
REMARK    4  A    between atoms: N_11  and  C_12
REMARK    5  A    between atoms: N_20  and  C_21
REMARK                            x       y       z     vdW  Elec       q    Type
REMARK                         _______ _______ _______ _____ _____    ______ ____
ROOT
ATOM      1  C   UNL     1       1.709   5.395  20.483  0.00  0.00    +0.000 A 
ATOM      2  C   UNL     1       1.090   4.249  20.960  0.00  0.00    +0.000 A 
ATOM      3  C   UNL     1       1.402   3.003  20.404  0.00  0.00    +0.000 A 
ATOM      4  C   UNL     1       2.348   2.860  19.395  0.00  0.00    +0.000 A 
ATOM      5  N   UNL     1       2.628   1.631  18.953  0.00  0.00    +0.000 NA
ATOM      6  C   UNL     1       3.558   1.535  18.001  0.00  0.00    +0.000 A 
ATOM      7  N   UNL     1       4.226   2.550  17.453  0.00  0.00    +0.000 NA
ATOM      8  C   UNL     1       3.941   3.788  17.903  0.00  0.00    +0.000 A 
ATOM      9  N   UNL     1       4.681   4.886  17.374  0.00  0.00    +0.000 N 
ATOM     10  C   UNL     1       2.971   4.011  18.897  0.00  0.00    +0.000 A 
ATOM     11  C   UNL     1       2.607   5.281  19.417  0.00  0.00    +0.000 A 
ATOM     12  H   UNL     1       5.149   5.357  18.140  0.00  0.00    +0.000 HD
ENDROOT
BRANCH   9  13
ATOM     13  C   UNL     1       5.515   4.784  16.232  0.00  0.00    +0.000 A 
ATOM     14  C   UNL     1       6.831   5.270  16.265  0.00  0.00    +0.000 A 
ATOM     15  C   UNL     1       7.640   5.243  15.130  0.00  0.00    +0.000 A 
ATOM     16  C   UNL     1       7.148   4.711  13.942  0.00  0.00    +0.000 A 
ATOM     17  C   UNL     1       5.854   4.190  13.908  0.00  0.00    +0.000 A 
ATOM     18 BR   UNL     1       5.186   3.474  12.290  0.00  0.00    +0.000 Br
ATOM     19  C   UNL     1       5.041   4.210  15.046  0.00  0.00    +0.000 A 
ENDBRANCH   9  13
BRANCH   1  22
ATOM     20  O   UNL     1       2.023   8.070  19.199  0.00  0.00    +0.000 OA
ATOM     21  C   UNL     1       1.676   7.901  20.357  0.00  0.00    +0.000 C 
ATOM     22  N   UNL     1       1.480   6.678  21.003  0.00  0.00    +0.000 N 
ATOM     23  H   UNL     1       0.995   6.717  21.893  0.00  0.00    +0.000 HD
BRANCH  21  24
ATOM     24  C   UNL     1       1.482   9.042  21.336  0.00  0.00    +0.000 C 
BRANCH  24  25
ATOM     25  C   UNL     1       0.261   9.930  21.079  0.00  0.00    +0.000 C 
BRANCH  25  26
ATOM     26  N   UNL     1       0.568  10.942  20.042  0.00  0.00    +0.000 NA
ATOM     27  C   UNL     1       0.908  12.267  20.614  0.00  0.00    +0.000 C 
ATOM     28  C   UNL     1      -0.294  13.126  21.060  0.00  0.00    +0.000 C 
ATOM     29  O   UNL     1      -1.324  13.204  20.064  0.00  0.00    +0.000 OA
ATOM     30  C   UNL     1      -1.724  11.895  19.651  0.00  0.00    +0.000 C 
ATOM     31  C   UNL     1      -0.522  11.148  19.063  0.00  0.00    +0.000 C 
ENDBRANCH  25  26
ENDBRANCH  24  25
ENDBRANCH  21  24
ENDBRANCH   1  22
TORSDOF 5
ENDMDL
