MODEL 1
REMARK VINA RESULT:      -3.9      0.000      0.000
REMARK  Name = 
REMARK  1 active torsions:
REMARK  status: ('A' for Active; 'I' for Inactive)
REMARK    1  A    between atoms: C_1  and  N_2
REMARK                            x       y       z     vdW  Elec       q    Type
REMARK                         _______ _______ _______ _____ _____    ______ ____
ROOT
ATOM      1  C   UNL     1       2.470   2.754  21.530  0.00  0.00    +0.000 C 
ATOM      2  N   UNL     1       2.604   2.562  20.108  0.00  0.00    +0.000 N 
ATOM      3  S   UNL     1       1.304   2.684  19.069  0.00  0.00    +0.000 S 
ATOM      4  C   UNL     1       2.325   2.315  17.708  0.00  0.00    +0.000 A 
ATOM      5  C   UNL     1       3.615   2.100  17.999  0.00  0.00    +0.000 A 
ATOM      6  C   UNL     1       3.778   2.253  19.467  0.00  0.00    +0.000 A 
ATOM      7  N   UNL     1       4.921   2.102  20.050  0.00  0.00    +0.000 NA
ATOM      8  H   UNL     1       5.648   1.873  19.366  0.00  0.00    +0.000 HD
ENDROOT
TORSDOF 0
ENDMDL
MODEL 2
REMARK VINA RESULT:      -3.8      1.535      2.407
REMARK  Name = 
REMARK  1 active torsions:
REMARK  status: ('A' for Active; 'I' for Inactive)
REMARK    1  A    between atoms: C_1  and  N_2
REMARK                            x       y       z     vdW  Elec       q    Type
REMARK                         _______ _______ _______ _____ _____    ______ ____
ROOT
ATOM      1  C   UNL     1       4.484   2.183  20.123  0.00  0.00    +0.000 C 
ATOM      2  N   UNL     1       3.109   2.426  19.770  0.00  0.00    +0.000 N 
ATOM      3  S   UNL     1       2.557   2.290  18.201  0.00  0.00    +0.000 S 
ATOM      4  C   UNL     1       0.950   2.741  18.701  0.00  0.00    +0.000 A 
ATOM      5  C   UNL     1       0.805   2.994  20.008  0.00  0.00    +0.000 A 
ATOM      6  C   UNL     1       2.128   2.799  20.655  0.00  0.00    +0.000 A 
ATOM      7  N   UNL     1       2.304   2.974  21.923  0.00  0.00    +0.000 NA
ATOM      8  H   UNL     1       1.428   3.251  22.375  0.00  0.00    +0.000 HD
ENDROOT
TORSDOF 0
ENDMDL
MODEL 3
REMARK VINA RESULT:      -3.8      0.722      2.478
REMARK  Name = 
REMARK  1 active torsions:
REMARK  status: ('A' for Active; 'I' for Inactive)
REMARK    1  A    between atoms: C_1  and  N_2
REMARK                            x       y       z     vdW  Elec       q    Type
REMARK                         _______ _______ _______ _____ _____    ______ ____
ROOT
ATOM      1  C   UNL     1       3.048   2.187  17.707  0.00  0.00    +0.000 C 
ATOM      2  N   UNL     1       2.635   2.438  19.064  0.00  0.00    +0.000 N 
ATOM      3  S   UNL     1       1.053   2.784  19.463  0.00  0.00    +0.000 S 
ATOM      4  C   UNL     1       1.483   2.937  21.143  0.00  0.00    +0.000 A 
ATOM      5  C   UNL     1       2.778   2.740  21.425  0.00  0.00    +0.000 A 
ATOM      6  C   UNL     1       3.475   2.435  20.150  0.00  0.00    +0.000 A 
ATOM      7  N   UNL     1       4.745   2.198  20.102  0.00  0.00    +0.000 NA
ATOM      8  H   UNL     1       5.158   2.253  21.037  0.00  0.00    +0.000 HD
ENDROOT
TORSDOF 0
ENDMDL
MODEL 4
REMARK VINA RESULT:      -3.8      1.833      2.537
REMARK  Name = 
REMARK  1 active torsions:
REMARK  status: ('A' for Active; 'I' for Inactive)
REMARK    1  A    between atoms: C_1  and  N_2
REMARK                            x       y       z     vdW  Elec       q    Type
REMARK                         _______ _______ _______ _____ _____    ______ ____
ROOT
ATOM      1  C   UNL     1       4.456   2.227  20.101  0.00  0.00    +0.000 C 
ATOM      2  N   UNL     1       3.060   2.574  20.012  0.00  0.00    +0.000 N 
ATOM      3  S   UNL     1       2.257   3.354  21.249  0.00  0.00    +0.000 S 
ATOM      4  C   UNL     1       0.775   3.333  20.335  0.00  0.00    +0.000 A 
ATOM      5  C   UNL     1       0.854   2.759  19.128  0.00  0.00    +0.000 A 
ATOM      6  C   UNL     1       2.252   2.297  18.937  0.00  0.00    +0.000 A 
ATOM      7  N   UNL     1       2.636   1.698  17.858  0.00  0.00    +0.000 NA
ATOM      8  H   UNL     1       1.858   1.605  17.200  0.00  0.00    +0.000 HD
ENDROOT
TORSDOF 0
ENDMDL
MODEL 5
REMARK VINA RESULT:      -3.8      1.725      1.975
REMARK  Name = 
REMARK  1 active torsions:
REMARK  status: ('A' for Active; 'I' for Inactive)
REMARK    1  A    between atoms: C_1  and  N_2
REMARK                            x       y       z     vdW  Elec       q    Type
REMARK                         _______ _______ _______ _____ _____    ______ ____
ROOT
ATOM      1  C   UNL     1       4.685   5.057  19.298  0.00  0.00    +0.000 C 
ATOM      2  N   UNL     1       3.939   3.929  18.802  0.00  0.00    +0.000 N 
ATOM      3  S   UNL     1       2.685   4.100  17.715  0.00  0.00    +0.000 S 
ATOM      4  C   UNL     1       2.414   2.380  17.717  0.00  0.00    +0.000 A 
ATOM      5  C   UNL     1       3.230   1.671  18.508  0.00  0.00    +0.000 A 
ATOM      6  C   UNL     1       4.159   2.624  19.167  0.00  0.00    +0.000 A 
ATOM      7  N   UNL     1       5.070   2.231  19.997  0.00  0.00    +0.000 NA
ATOM      8  H   UNL     1       5.040   1.215  20.111  0.00  0.00    +0.000 HD
ENDROOT
TORSDOF 0
ENDMDL
MODEL 6
REMARK VINA RESULT:      -3.7      5.236      5.459
REMARK  Name = 
REMARK  1 active torsions:
REMARK  status: ('A' for Active; 'I' for Inactive)
REMARK    1  A    between atoms: C_1  and  N_2
REMARK                            x       y       z     vdW  Elec       q    Type
REMARK                         _______ _______ _______ _____ _____    ______ ____
ROOT
ATOM      1  C   UNL     1       7.670   6.940  18.144  0.00  0.00    +0.000 C 
ATOM      2  N   UNL     1       6.878   6.053  17.330  0.00  0.00    +0.000 N 
ATOM      3  S   UNL     1       5.500   6.565  16.542  0.00  0.00    +0.000 S 
ATOM      4  C   UNL     1       5.243   4.967  15.900  0.00  0.00    +0.000 A 
ATOM      5  C   UNL     1       6.155   4.052  16.255  0.00  0.00    +0.000 A 
ATOM      6  C   UNL     1       7.150   4.723  17.129  0.00  0.00    +0.000 A 
ATOM      7  N   UNL     1       8.158   4.090  17.634  0.00  0.00    +0.000 NA
ATOM      8  H   UNL     1       8.150   3.108  17.343  0.00  0.00    +0.000 HD
ENDROOT
TORSDOF 0
ENDMDL
MODEL 7
REMARK VINA RESULT:      -3.7      1.571      2.369
REMARK  Name = 
REMARK  1 active torsions:
REMARK  status: ('A' for Active; 'I' for Inactive)
REMARK    1  A    between atoms: C_1  and  N_2
REMARK                            x       y       z     vdW  Elec       q    Type
REMARK                         _______ _______ _______ _____ _____    ______ ____
ROOT
ATOM      1  C   UNL     1       2.062   2.882  21.620  0.00  0.00    +0.000 C 
ATOM      2  N   UNL     1       2.444   2.633  20.253  0.00  0.00    +0.000 N 
ATOM      3  S   UNL     1       4.040   2.492  19.788  0.00  0.00    +0.000 S 
ATOM      4  C   UNL     1       3.562   2.245  18.132  0.00  0.00    +0.000 A 
ATOM      5  C   UNL     1       2.242   2.266  17.906  0.00  0.00    +0.000 A 
ATOM      6  C   UNL     1       1.565   2.504  19.206  0.00  0.00    +0.000 A 
ATOM      7  N   UNL     1       0.278   2.577  19.307  0.00  0.00    +0.000 NA
ATOM      8  H   UNL     1      -0.163   2.450  18.392  0.00  0.00    +0.000 HD
ENDROOT
TORSDOF 0
ENDMDL
MODEL 8
REMARK VINA RESULT:      -3.7      2.249      2.506
REMARK  Name = 
REMARK  1 active torsions:
REMARK  status: ('A' for Active; 'I' for Inactive)
REMARK    1  A    between atoms: C_1  and  N_2
REMARK                            x       y       z     vdW  Elec       q    Type
REMARK                         _______ _______ _______ _____ _____    ______ ____
ROOT
ATOM      1  C   UNL     1       1.443   2.723  21.524  0.00  0.00    +0.000 C 
ATOM      2  N   UNL     1       1.563   3.349  20.232  0.00  0.00    +0.000 N 
ATOM      3  S   UNL     1       1.127   2.570  18.823  0.00  0.00    +0.000 S 
ATOM      4  C   UNL     1       1.595   3.958  17.880  0.00  0.00    +0.000 A 
ATOM      5  C   UNL     1       2.072   4.994  18.583  0.00  0.00    +0.000 A 
ATOM      6  C   UNL     1       2.050   4.615  20.018  0.00  0.00    +0.000 A 
ATOM      7  N   UNL     1       2.456   5.418  20.946  0.00  0.00    +0.000 NA
ATOM      8  H   UNL     1       2.774   6.303  20.544  0.00  0.00    +0.000 HD
ENDROOT
TORSDOF 0
ENDMDL
MODEL 9
REMARK VINA RESULT:      -3.7      2.343      2.686
REMARK  Name = 
REMARK  1 active torsions:
REMARK  status: ('A' for Active; 'I' for Inactive)
REMARK    1  A    between atoms: C_1  and  N_2
REMARK                            x       y       z     vdW  Elec       q    Type
REMARK                         _______ _______ _______ _____ _____    ______ ____
ROOT
ATOM      1  C   UNL     1       1.534   2.873  21.337  0.00  0.00    +0.000 C 
ATOM      2  N   UNL     1       1.755   3.606  20.116  0.00  0.00    +0.000 N 
ATOM      3  S   UNL     1       2.326   5.173  20.112  0.00  0.00    +0.000 S 
ATOM      4  C   UNL     1       2.258   5.221  18.373  0.00  0.00    +0.000 A 
ATOM      5  C   UNL     1       1.819   4.100  17.785  0.00  0.00    +0.000 A 
ATOM      6  C   UNL     1       1.513   3.118  18.856  0.00  0.00    +0.000 A 
ATOM      7  N   UNL     1       1.065   1.934  18.594  0.00  0.00    +0.000 NA
ATOM      8  H   UNL     1       0.966   1.801  17.584  0.00  0.00    +0.000 HD
ENDROOT
TORSDOF 0
ENDMDL
