MODEL 1
REMARK VINA RESULT:      -7.6      0.000      0.000
REMARK  Name = 
REMARK  5 active torsions:
REMARK  status: ('A' for Active; 'I' for Inactive)
REMARK    1  A    between atoms: C_1  and  C_2
REMARK    2  A    between atoms: C_5  and  C_6
REMARK    3  A    between atoms: C_7  and  N_8
REMARK    4  A    between atoms: N_11  and  C_12
REMARK    5  A    between atoms: C_23  and  C_24
REMARK                            x       y       z     vdW  Elec       q    Type
REMARK                         _______ _______ _______ _____ _____    ______ ____
ROOT
ATOM      1  C   UNL     1       0.323  10.079  22.391  0.00  0.00    +0.000 A 
ATOM      2  C   UNL     1      -0.844   9.983  23.133  0.00  0.00    +0.000 A 
ATOM      3  N   UNL     1      -1.532  11.164  23.168  0.00  0.00    +0.000 NA
ATOM      4  C   UNL     1      -0.805  11.997  22.463  0.00  0.00    +0.000 A 
ATOM      5  C   UNL     1      -1.005  13.357  22.184  0.00  0.00    +0.000 A 
ATOM      6  C   UNL     1      -0.107  14.003  21.435  0.00  0.00    +0.000 A 
ATOM      7  C   UNL     1       1.049  13.235  20.869  0.00  0.00    +0.000 A 
ATOM      8  N   UNL     1       1.935  13.888  20.043  0.00  0.00    +0.000 N 
ATOM      9  C   UNL     1       2.093  13.532  18.643  0.00  0.00    +0.000 C 
ATOM     10  C   UNL     1       3.415  14.183  18.277  0.00  0.00    +0.000 C 
ATOM     11  C   UNL     1       3.361  15.504  19.035  0.00  0.00    +0.000 C 
ATOM     12  C   UNL     1       2.583  15.179  20.328  0.00  0.00    +0.000 C 
ATOM     13  N   UNL     1       1.257  11.959  21.111  0.00  0.00    +0.000 NA
ATOM     14  N   UNL     1       0.328  11.394  21.940  0.00  0.00    +0.000 N 
ENDROOT
BRANCH  12  15
ATOM     15  C   UNL     1       3.501  15.100  21.528  0.00  0.00    +0.000 A 
ATOM     16  C   UNL     1       4.454  14.081  21.681  0.00  0.00    +0.000 A 
ATOM     17  C   UNL     1       5.287  14.058  22.796  0.00  0.00    +0.000 A 
ATOM     18  F   UNL     1       6.170  13.060  22.931  0.00  0.00    +0.000 F 
ATOM     19  C   UNL     1       5.214  15.050  23.766  0.00  0.00    +0.000 A 
ATOM     20  C   UNL     1       4.286  16.080  23.622  0.00  0.00    +0.000 A 
ATOM     21  C   UNL     1       3.440  16.095  22.512  0.00  0.00    +0.000 A 
ATOM     22  F   UNL     1       2.554  17.094  22.392  0.00  0.00    +0.000 F 
ENDBRANCH  12  15
BRANCH   1  26
ATOM     23  N   UNL     1       2.139   7.287  20.864  0.00  0.00    +0.000 N 
ATOM     24  C   UNL     1       1.220   8.297  20.955  0.00  0.00    +0.000 C 
ATOM     25  O   UNL     1       0.384   8.593  20.126  0.00  0.00    +0.000 OA
ATOM     26  N   UNL     1       1.296   9.085  22.147  0.00  0.00    +0.000 N 
ATOM     27  H   UNL     1       2.775   7.111  21.630  0.00  0.00    +0.000 HD
ATOM     28  H   UNL     1       2.059   9.029  22.806  0.00  0.00    +0.000 HD
BRANCH  23  35
ATOM     29  C   UNL     1       1.345   4.155  20.730  0.00  0.00    +0.000 C 
ATOM     30  C   UNL     1       1.904   5.048  19.691  0.00  0.00    +0.000 A 
ATOM     31  N   UNL     1       2.150   4.526  18.486  0.00  0.00    +0.000 NA
ATOM     32  O   UNL     1       2.644   5.549  17.724  0.00  0.00    +0.000 OA
ATOM     33  C   UNL     1       2.701   6.693  18.455  0.00  0.00    +0.000 A 
ATOM     34  C   UNL     1       3.215   7.844  17.678  0.00  0.00    +0.000 C 
ATOM     35  C   UNL     1       2.249   6.441  19.746  0.00  0.00    +0.000 A 
ENDBRANCH  23  35
ENDBRANCH   1  26
TORSDOF 3
ENDMDL
MODEL 2
REMARK VINA RESULT:      -7.5      4.331      8.411
REMARK  Name = 
REMARK  5 active torsions:
REMARK  status: ('A' for Active; 'I' for Inactive)
REMARK    1  A    between atoms: C_1  and  C_2
REMARK    2  A    between atoms: C_5  and  C_6
REMARK    3  A    between atoms: C_7  and  N_8
REMARK    4  A    between atoms: N_11  and  C_12
REMARK    5  A    between atoms: C_23  and  C_24
REMARK                            x       y       z     vdW  Elec       q    Type
REMARK                         _______ _______ _______ _____ _____    ______ ____
ROOT
ATOM      1  C   UNL     1       1.757  15.888  20.252  0.00  0.00    +0.000 A 
ATOM      2  C   UNL     1       3.047  16.338  20.019  0.00  0.00    +0.000 A 
ATOM      3  N   UNL     1       3.757  15.479  19.226  0.00  0.00    +0.000 NA
ATOM      4  C   UNL     1       2.926  14.496  18.969  0.00  0.00    +0.000 A 
ATOM      5  C   UNL     1       3.121  13.320  18.229  0.00  0.00    +0.000 A 
ATOM      6  C   UNL     1       2.110  12.456  18.111  0.00  0.00    +0.000 A 
ATOM      7  C   UNL     1       0.786  12.802  18.722  0.00  0.00    +0.000 A 
ATOM      8  N   UNL     1      -0.271  11.941  18.543  0.00  0.00    +0.000 N 
ATOM      9  C   UNL     1      -1.459  12.320  17.796  0.00  0.00    +0.000 C 
ATOM     10  C   UNL     1      -2.473  11.272  18.220  0.00  0.00    +0.000 C 
ATOM     11  C   UNL     1      -1.631  10.003  18.299  0.00  0.00    +0.000 C 
ATOM     12  C   UNL     1      -0.243  10.487  18.771  0.00  0.00    +0.000 C 
ATOM     13  N   UNL     1       0.576  13.900  19.417  0.00  0.00    +0.000 NA
ATOM     14  N   UNL     1       1.682  14.695  19.544  0.00  0.00    +0.000 N 
ENDROOT
BRANCH  12  15
ATOM     15  C   UNL     1       0.004  10.146  20.223  0.00  0.00    +0.000 A 
ATOM     16  C   UNL     1      -0.732  10.725  21.269  0.00  0.00    +0.000 A 
ATOM     17  C   UNL     1      -0.478  10.369  22.590  0.00  0.00    +0.000 A 
ATOM     18  F   UNL     1      -1.177  10.956  23.570  0.00  0.00    +0.000 F 
ATOM     19  C   UNL     1       0.485   9.418  22.904  0.00  0.00    +0.000 A 
ATOM     20  C   UNL     1       1.214   8.820  21.878  0.00  0.00    +0.000 A 
ATOM     21  C   UNL     1       0.971   9.188  20.555  0.00  0.00    +0.000 A 
ATOM     22  F   UNL     1       1.683   8.600  19.582  0.00  0.00    +0.000 F 
ENDBRANCH  12  15
BRANCH   1  26
ATOM     23  N   UNL     1      -0.573  16.582  22.994  0.00  0.00    +0.000 N 
ATOM     24  C   UNL     1       0.501  16.016  22.362  0.00  0.00    +0.000 C 
ATOM     25  O   UNL     1       1.262  15.191  22.824  0.00  0.00    +0.000 OA
ATOM     26  N   UNL     1       0.743  16.488  21.033  0.00  0.00    +0.000 N 
ATOM     27  H   UNL     1      -1.159  17.243  22.503  0.00  0.00    +0.000 HD
ATOM     28  H   UNL     1       0.278  17.288  20.631  0.00  0.00    +0.000 HD
BRANCH  23  35
ATOM     29  C   UNL     1       0.547  18.005  25.675  0.00  0.00    +0.000 C 
ATOM     30  C   UNL     1      -0.432  16.907  25.509  0.00  0.00    +0.000 A 
ATOM     31  N   UNL     1      -0.963  16.373  26.612  0.00  0.00    +0.000 NA
ATOM     32  O   UNL     1      -1.828  15.404  26.184  0.00  0.00    +0.000 OA
ATOM     33  C   UNL     1      -1.829  15.342  24.827  0.00  0.00    +0.000 A 
ATOM     34  C   UNL     1      -2.761  14.318  24.301  0.00  0.00    +0.000 C 
ATOM     35  C   UNL     1      -0.936  16.280  24.319  0.00  0.00    +0.000 A 
ENDBRANCH  23  35
ENDBRANCH   1  26
TORSDOF 3
ENDMDL
MODEL 3
REMARK VINA RESULT:      -7.5      4.315      8.304
REMARK  Name = 
REMARK  5 active torsions:
REMARK  status: ('A' for Active; 'I' for Inactive)
REMARK    1  A    between atoms: C_1  and  C_2
REMARK    2  A    between atoms: C_5  and  C_6
REMARK    3  A    between atoms: C_7  and  N_8
REMARK    4  A    between atoms: N_11  and  C_12
REMARK    5  A    between atoms: C_23  and  C_24
REMARK                            x       y       z     vdW  Elec       q    Type
REMARK                         _______ _______ _______ _____ _____    ______ ____
ROOT
ATOM      1  C   UNL     1       1.763  15.888  20.254  0.00  0.00    +0.000 A 
ATOM      2  C   UNL     1       3.059  16.327  20.034  0.00  0.00    +0.000 A 
ATOM      3  N   UNL     1       3.775  15.456  19.261  0.00  0.00    +0.000 NA
ATOM      4  C   UNL     1       2.942  14.476  19.002  0.00  0.00    +0.000 A 
ATOM      5  C   UNL     1       3.140  13.291  18.277  0.00  0.00    +0.000 A 
ATOM      6  C   UNL     1       2.125  12.431  18.154  0.00  0.00    +0.000 A 
ATOM      7  C   UNL     1       0.795  12.792  18.743  0.00  0.00    +0.000 A 
ATOM      8  N   UNL     1      -0.265  11.934  18.557  0.00  0.00    +0.000 N 
ATOM      9  C   UNL     1      -1.440  12.313  17.790  0.00  0.00    +0.000 C 
ATOM     10  C   UNL     1      -2.466  11.276  18.210  0.00  0.00    +0.000 C 
ATOM     11  C   UNL     1      -1.633  10.003  18.315  0.00  0.00    +0.000 C 
ATOM     12  C   UNL     1      -0.248  10.483  18.801  0.00  0.00    +0.000 C 
ATOM     13  N   UNL     1       0.582  13.898  19.422  0.00  0.00    +0.000 NA
ATOM     14  N   UNL     1       1.690  14.688  19.557  0.00  0.00    +0.000 N 
ENDROOT
BRANCH  12  15
ATOM     15  C   UNL     1      -0.024  10.156  20.260  0.00  0.00    +0.000 A 
ATOM     16  C   UNL     1      -0.775  10.746  21.289  0.00  0.00    +0.000 A 
ATOM     17  C   UNL     1      -0.541  10.403  22.617  0.00  0.00    +0.000 A 
ATOM     18  F   UNL     1      -1.254  11.001  23.580  0.00  0.00    +0.000 F 
ATOM     19  C   UNL     1       0.415   9.454  22.954  0.00  0.00    +0.000 A 
ATOM     20  C   UNL     1       1.158   8.844  21.946  0.00  0.00    +0.000 A 
ATOM     21  C   UNL     1       0.936   9.199  20.615  0.00  0.00    +0.000 A 
ATOM     22  F   UNL     1       1.661   8.601  19.659  0.00  0.00    +0.000 F 
ENDBRANCH  12  15
BRANCH   1  26
ATOM     23  N   UNL     1      -0.664  16.572  22.913  0.00  0.00    +0.000 N 
ATOM     24  C   UNL     1       0.412  15.982  22.306  0.00  0.00    +0.000 C 
ATOM     25  O   UNL     1       1.108  15.099  22.763  0.00  0.00    +0.000 OA
ATOM     26  N   UNL     1       0.742  16.501  21.013  0.00  0.00    +0.000 N 
ATOM     27  H   UNL     1      -1.192  17.283  22.427  0.00  0.00    +0.000 HD
ATOM     28  H   UNL     1       0.336  17.342  20.629  0.00  0.00    +0.000 HD
BRANCH  23  35
ATOM     29  C   UNL     1      -3.005  14.467  23.655  0.00  0.00    +0.000 C 
ATOM     30  C   UNL     1      -2.152  15.300  24.531  0.00  0.00    +0.000 A 
ATOM     31  N   UNL     1      -2.344  15.217  25.850  0.00  0.00    +0.000 NA
ATOM     32  O   UNL     1      -1.434  16.066  26.419  0.00  0.00    +0.000 OA
ATOM     33  C   UNL     1      -0.688  16.667  25.455  0.00  0.00    +0.000 A 
ATOM     34  C   UNL     1       0.328  17.590  26.011  0.00  0.00    +0.000 C 
ATOM     35  C   UNL     1      -1.106  16.228  24.203  0.00  0.00    +0.000 A 
ENDBRANCH  23  35
ENDBRANCH   1  26
TORSDOF 3
ENDMDL
MODEL 4
REMARK VINA RESULT:      -7.4      0.372      1.425
REMARK  Name = 
REMARK  5 active torsions:
REMARK  status: ('A' for Active; 'I' for Inactive)
REMARK    1  A    between atoms: C_1  and  C_2
REMARK    2  A    between atoms: C_5  and  C_6
REMARK    3  A    between atoms: C_7  and  N_8
REMARK    4  A    between atoms: N_11  and  C_12
REMARK    5  A    between atoms: C_23  and  C_24
REMARK                            x       y       z     vdW  Elec       q    Type
REMARK                         _______ _______ _______ _____ _____    ______ ____
ROOT
ATOM      1  C   UNL     1       0.369  10.075  22.326  0.00  0.00    +0.000 A 
ATOM      2  C   UNL     1      -0.792   9.963  23.075  0.00  0.00    +0.000 A 
ATOM      3  N   UNL     1      -1.502  11.131  23.104  0.00  0.00    +0.000 NA
ATOM      4  C   UNL     1      -0.795  11.971  22.387  0.00  0.00    +0.000 A 
ATOM      5  C   UNL     1      -1.022  13.325  22.098  0.00  0.00    +0.000 A 
ATOM      6  C   UNL     1      -0.141  13.981  21.338  0.00  0.00    +0.000 A 
ATOM      7  C   UNL     1       1.026  13.231  20.773  0.00  0.00    +0.000 A 
ATOM      8  N   UNL     1       1.896  13.894  19.937  0.00  0.00    +0.000 N 
ATOM      9  C   UNL     1       2.053  13.529  18.539  0.00  0.00    +0.000 C 
ATOM     10  C   UNL     1       3.361  14.201  18.160  0.00  0.00    +0.000 C 
ATOM     11  C   UNL     1       3.286  15.528  18.907  0.00  0.00    +0.000 C 
ATOM     12  C   UNL     1       2.521  15.199  20.207  0.00  0.00    +0.000 C 
ATOM     13  N   UNL     1       1.261  11.962  21.024  0.00  0.00    +0.000 NA
ATOM     14  N   UNL     1       0.346  11.385  21.863  0.00  0.00    +0.000 N 
ENDROOT
BRANCH  12  15
ATOM     15  C   UNL     1       3.446  15.148  21.402  0.00  0.00    +0.000 A 
ATOM     16  C   UNL     1       4.398  14.131  21.575  0.00  0.00    +0.000 A 
ATOM     17  C   UNL     1       5.237  14.134  22.685  0.00  0.00    +0.000 A 
ATOM     18  F   UNL     1       6.119  13.137  22.839  0.00  0.00    +0.000 F 
ATOM     19  C   UNL     1       5.174  15.151  23.629  0.00  0.00    +0.000 A 
ATOM     20  C   UNL     1       4.247  16.178  23.465  0.00  0.00    +0.000 A 
ATOM     21  C   UNL     1       3.394  16.168  22.361  0.00  0.00    +0.000 A 
ATOM     22  F   UNL     1       2.510  17.166  22.222  0.00  0.00    +0.000 F 
ENDBRANCH  12  15
BRANCH   1  26
ATOM     23  N   UNL     1       2.163   7.215  20.903  0.00  0.00    +0.000 N 
ATOM     24  C   UNL     1       1.211   8.195  20.985  0.00  0.00    +0.000 C 
ATOM     25  O   UNL     1       0.290   8.377  20.215  0.00  0.00    +0.000 OA
ATOM     26  N   UNL     1       1.360   9.098  22.085  0.00  0.00    +0.000 N 
ATOM     27  H   UNL     1       2.873   7.137  21.618  0.00  0.00    +0.000 HD
ATOM     28  H   UNL     1       2.182   9.134  22.671  0.00  0.00    +0.000 HD
BRANCH  23  35
ATOM     29  C   UNL     1       3.048   7.750  17.838  0.00  0.00    +0.000 C 
ATOM     30  C   UNL     1       2.593   6.508  18.503  0.00  0.00    +0.000 A 
ATOM     31  N   UNL     1       2.506   5.401  17.761  0.00  0.00    +0.000 NA
ATOM     32  O   UNL     1       2.080   4.412  18.606  0.00  0.00    +0.000 OA
ATOM     33  C   UNL     1       1.907   4.909  19.858  0.00  0.00    +0.000 A 
ATOM     34  C   UNL     1       1.459   3.880  20.825  0.00  0.00    +0.000 C 
ATOM     35  C   UNL     1       2.208   6.267  19.865  0.00  0.00    +0.000 A 
ENDBRANCH  23  35
ENDBRANCH   1  26
TORSDOF 3
ENDMDL
MODEL 5
REMARK VINA RESULT:      -7.1      6.531     10.016
REMARK  Name = 
REMARK  5 active torsions:
REMARK  status: ('A' for Active; 'I' for Inactive)
REMARK    1  A    between atoms: C_1  and  C_2
REMARK    2  A    between atoms: C_5  and  C_6
REMARK    3  A    between atoms: C_7  and  N_8
REMARK    4  A    between atoms: N_11  and  C_12
REMARK    5  A    between atoms: C_23  and  C_24
REMARK                            x       y       z     vdW  Elec       q    Type
REMARK                         _______ _______ _______ _____ _____    ______ ____
ROOT
ATOM      1  C   UNL     1      -5.780  17.027  20.008  0.00  0.00    +0.000 A 
ATOM      2  C   UNL     1      -5.965  18.151  19.218  0.00  0.00    +0.000 A 
ATOM      3  N   UNL     1      -6.432  17.835  17.973  0.00  0.00    +0.000 NA
ATOM      4  C   UNL     1      -6.535  16.527  17.975  0.00  0.00    +0.000 A 
ATOM      5  C   UNL     1      -6.935  15.651  16.955  0.00  0.00    +0.000 A 
ATOM      6  C   UNL     1      -6.953  14.338  17.200  0.00  0.00    +0.000 A 
ATOM      7  C   UNL     1      -6.606  13.854  18.575  0.00  0.00    +0.000 A 
ATOM      8  N   UNL     1      -6.690  12.507  18.843  0.00  0.00    +0.000 N 
ATOM      9  C   UNL     1      -7.641  11.967  19.801  0.00  0.00    +0.000 C 
ATOM     10  C   UNL     1      -7.093  10.577  20.073  0.00  0.00    +0.000 C 
ATOM     11  C   UNL     1      -6.606  10.133  18.698  0.00  0.00    +0.000 C 
ATOM     12  C   UNL     1      -6.109  11.430  18.024  0.00  0.00    +0.000 C 
ATOM     13  N   UNL     1      -6.233  14.654  19.550  0.00  0.00    +0.000 NA
ATOM     14  N   UNL     1      -6.177  15.973  19.194  0.00  0.00    +0.000 N 
ENDROOT
BRANCH  12  15
ATOM     15  C   UNL     1      -4.599  11.498  17.988  0.00  0.00    +0.000 A 
ATOM     16  C   UNL     1      -3.834  11.876  19.103  0.00  0.00    +0.000 A 
ATOM     17  C   UNL     1      -2.445  11.910  19.025  0.00  0.00    +0.000 A 
ATOM     18  F   UNL     1      -1.741  12.299  20.097  0.00  0.00    +0.000 F 
ATOM     19  C   UNL     1      -1.783  11.547  17.859  0.00  0.00    +0.000 A 
ATOM     20  C   UNL     1      -2.524  11.153  16.747  0.00  0.00    +0.000 A 
ATOM     21  C   UNL     1      -3.917  11.134  16.819  0.00  0.00    +0.000 A 
ATOM     22  F   UNL     1      -4.612  10.751  15.738  0.00  0.00    +0.000 F 
ENDBRANCH  12  15
BRANCH   1  26
ATOM     23  N   UNL     1      -3.686  16.233  22.908  0.00  0.00    +0.000 N 
ATOM     24  C   UNL     1      -4.016  16.362  21.587  0.00  0.00    +0.000 C 
ATOM     25  O   UNL     1      -3.330  16.054  20.634  0.00  0.00    +0.000 OA
ATOM     26  N   UNL     1      -5.296  16.952  21.333  0.00  0.00    +0.000 N 
ATOM     27  H   UNL     1      -4.349  16.499  23.624  0.00  0.00    +0.000 HD
ATOM     28  H   UNL     1      -5.857  17.396  22.045  0.00  0.00    +0.000 HD
BRANCH  23  35
ATOM     29  C   UNL     1      -2.886  13.114  23.213  0.00  0.00    +0.000 C 
ATOM     30  C   UNL     1      -2.102  14.337  23.493  0.00  0.00    +0.000 A 
ATOM     31  N   UNL     1      -0.859  14.188  23.959  0.00  0.00    +0.000 NA
ATOM     32  O   UNL     1      -0.361  15.451  24.120  0.00  0.00    +0.000 OA
ATOM     33  C   UNL     1      -1.291  16.372  23.756  0.00  0.00    +0.000 A 
ATOM     34  C   UNL     1      -0.804  17.764  23.894  0.00  0.00    +0.000 C 
ATOM     35  C   UNL     1      -2.452  15.722  23.350  0.00  0.00    +0.000 A 
ENDBRANCH  23  35
ENDBRANCH   1  26
TORSDOF 3
ENDMDL
MODEL 6
REMARK VINA RESULT:      -7.0      5.271      8.380
REMARK  Name = 
REMARK  5 active torsions:
REMARK  status: ('A' for Active; 'I' for Inactive)
REMARK    1  A    between atoms: C_1  and  C_2
REMARK    2  A    between atoms: C_5  and  C_6
REMARK    3  A    between atoms: C_7  and  N_8
REMARK    4  A    between atoms: N_11  and  C_12
REMARK    5  A    between atoms: C_23  and  C_24
REMARK                            x       y       z     vdW  Elec       q    Type
REMARK                         _______ _______ _______ _____ _____    ______ ____
ROOT
ATOM      1  C   UNL     1      -3.291  11.574  17.981  0.00  0.00    +0.000 A 
ATOM      2  C   UNL     1      -3.452  10.305  17.449  0.00  0.00    +0.000 A 
ATOM      3  N   UNL     1      -4.676   9.772  17.747  0.00  0.00    +0.000 NA
ATOM      4  C   UNL     1      -5.276  10.693  18.464  0.00  0.00    +0.000 A 
ATOM      5  C   UNL     1      -6.541  10.683  19.070  0.00  0.00    +0.000 A 
ATOM      6  C   UNL     1      -6.934  11.753  19.765  0.00  0.00    +0.000 A 
ATOM      7  C   UNL     1      -6.035  12.951  19.819  0.00  0.00    +0.000 A 
ATOM      8  N   UNL     1      -6.471  14.076  20.479  0.00  0.00    +0.000 N 
ATOM      9  C   UNL     1      -6.713  15.332  19.788  0.00  0.00    +0.000 C 
ATOM     10  C   UNL     1      -6.748  16.340  20.924  0.00  0.00    +0.000 C 
ATOM     11  C   UNL     1      -7.476  15.579  22.027  0.00  0.00    +0.000 C 
ATOM     12  C   UNL     1      -7.044  14.109  21.834  0.00  0.00    +0.000 C 
ATOM     13  N   UNL     1      -4.846  12.988  19.256  0.00  0.00    +0.000 NA
ATOM     14  N   UNL     1      -4.496  11.827  18.623  0.00  0.00    +0.000 N 
ENDROOT
BRANCH  12  15
ATOM     15  C   UNL     1      -6.043  13.679  22.884  0.00  0.00    +0.000 A 
ATOM     16  C   UNL     1      -4.823  14.345  23.078  0.00  0.00    +0.000 A 
ATOM     17  C   UNL     1      -3.939  13.920  24.067  0.00  0.00    +0.000 A 
ATOM     18  F   UNL     1      -2.770  14.558  24.214  0.00  0.00    +0.000 F 
ATOM     19  C   UNL     1      -4.252  12.852  24.898  0.00  0.00    +0.000 A 
ATOM     20  C   UNL     1      -5.467  12.190  24.730  0.00  0.00    +0.000 A 
ATOM     21  C   UNL     1      -6.346  12.604  23.730  0.00  0.00    +0.000 A 
ATOM     22  F   UNL     1      -7.510  11.954  23.586  0.00  0.00    +0.000 F 
ENDBRANCH  12  15
BRANCH   1  26
ATOM     23  N   UNL     1      -0.232  13.389  18.863  0.00  0.00    +0.000 N 
ATOM     24  C   UNL     1      -1.224  12.453  18.981  0.00  0.00    +0.000 C 
ATOM     25  O   UNL     1      -1.359  11.650  19.880  0.00  0.00    +0.000 OA
ATOM     26  N   UNL     1      -2.165  12.424  17.903  0.00  0.00    +0.000 N 
ATOM     27  H   UNL     1      -0.231  14.031  18.081  0.00  0.00    +0.000 HD
ATOM     28  H   UNL     1      -2.038  12.928  17.037  0.00  0.00    +0.000 HD
BRANCH  23  35
ATOM     29  C   UNL     1       2.941  13.206  18.263  0.00  0.00    +0.000 C 
ATOM     30  C   UNL     1       2.217  13.443  19.531  0.00  0.00    +0.000 A 
ATOM     31  N   UNL     1       2.941  13.605  20.641  0.00  0.00    +0.000 NA
ATOM     32  O   UNL     1       2.043  13.815  21.652  0.00  0.00    +0.000 OA
ATOM     33  C   UNL     1       0.775  13.784  21.166  0.00  0.00    +0.000 A 
ATOM     34  C   UNL     1      -0.245  14.021  22.213  0.00  0.00    +0.000 C 
ATOM     35  C   UNL     1       0.809  13.534  19.798  0.00  0.00    +0.000 A 
ENDBRANCH  23  35
ENDBRANCH   1  26
TORSDOF 3
ENDMDL
MODEL 7
REMARK VINA RESULT:      -7.0      5.267      8.069
REMARK  Name = 
REMARK  5 active torsions:
REMARK  status: ('A' for Active; 'I' for Inactive)
REMARK    1  A    between atoms: C_1  and  C_2
REMARK    2  A    between atoms: C_5  and  C_6
REMARK    3  A    between atoms: C_7  and  N_8
REMARK    4  A    between atoms: N_11  and  C_12
REMARK    5  A    between atoms: C_23  and  C_24
REMARK                            x       y       z     vdW  Elec       q    Type
REMARK                         _______ _______ _______ _____ _____    ______ ____
ROOT
ATOM      1  C   UNL     1      -4.560  11.287  18.095  0.00  0.00    +0.000 A 
ATOM      2  C   UNL     1      -5.068  10.019  17.862  0.00  0.00    +0.000 A 
ATOM      3  N   UNL     1      -6.210   9.782  18.575  0.00  0.00    +0.000 NA
ATOM      4  C   UNL     1      -6.417  10.886  19.254  0.00  0.00    +0.000 A 
ATOM      5  C   UNL     1      -7.425  11.203  20.176  0.00  0.00    +0.000 A 
ATOM      6  C   UNL     1      -7.421  12.409  20.750  0.00  0.00    +0.000 A 
ATOM      7  C   UNL     1      -6.374  13.400  20.342  0.00  0.00    +0.000 A 
ATOM      8  N   UNL     1      -6.412  14.664  20.886  0.00  0.00    +0.000 N 
ATOM      9  C   UNL     1      -6.656  15.846  20.077  0.00  0.00    +0.000 C 
ATOM     10  C   UNL     1      -6.190  16.975  20.981  0.00  0.00    +0.000 C 
ATOM     11  C   UNL     1      -6.659  16.517  22.357  0.00  0.00    +0.000 C 
ATOM     12  C   UNL     1      -6.536  14.979  22.318  0.00  0.00    +0.000 C 
ATOM     13  N   UNL     1      -5.421  13.131  19.477  0.00  0.00    +0.000 NA
ATOM     14  N   UNL     1      -5.461  11.853  18.989  0.00  0.00    +0.000 N 
ENDROOT
BRANCH  12  15
ATOM     15  C   UNL     1      -5.344  14.493  23.111  0.00  0.00    +0.000 A 
ATOM     16  C   UNL     1      -4.149  15.224  23.199  0.00  0.00    +0.000 A 
ATOM     17  C   UNL     1      -3.082  14.742  23.952  0.00  0.00    +0.000 A 
ATOM     18  F   UNL     1      -1.945  15.447  23.998  0.00  0.00    +0.000 F 
ATOM     19  C   UNL     1      -3.182  13.547  24.654  0.00  0.00    +0.000 A 
ATOM     20  C   UNL     1      -4.367  12.816  24.593  0.00  0.00    +0.000 A 
ATOM     21  C   UNL     1      -5.431  13.290  23.825  0.00  0.00    +0.000 A 
ATOM     22  F   UNL     1      -6.562  12.572  23.779  0.00  0.00    +0.000 F 
ENDBRANCH  12  15
BRANCH   1  26
ATOM     23  N   UNL     1      -1.189  12.697  17.812  0.00  0.00    +0.000 N 
ATOM     24  C   UNL     1      -2.226  12.009  18.380  0.00  0.00    +0.000 C 
ATOM     25  O   UNL     1      -2.237  11.489  19.477  0.00  0.00    +0.000 OA
ATOM     26  N   UNL     1      -3.394  11.881  17.562  0.00  0.00    +0.000 N 
ATOM     27  H   UNL     1      -1.299  13.115  16.897  0.00  0.00    +0.000 HD
ATOM     28  H   UNL     1      -3.419  12.124  16.582  0.00  0.00    +0.000 HD
BRANCH  23  35
ATOM     29  C   UNL     1      -0.008  15.476  18.971  0.00  0.00    +0.000 C 
ATOM     30  C   UNL     1       0.580  14.118  18.950  0.00  0.00    +0.000 A 
ATOM     31  N   UNL     1       1.799  13.959  19.472  0.00  0.00    +0.000 NA
ATOM     32  O   UNL     1       2.098  12.631  19.337  0.00  0.00    +0.000 OA
ATOM     33  C   UNL     1       1.069  11.978  18.736  0.00  0.00    +0.000 A 
ATOM     34  C   UNL     1       1.327  10.529  18.575  0.00  0.00    +0.000 C 
ATOM     35  C   UNL     1       0.054  12.882  18.444  0.00  0.00    +0.000 A 
ENDBRANCH  23  35
ENDBRANCH   1  26
TORSDOF 3
ENDMDL
MODEL 8
REMARK VINA RESULT:      -6.9      5.280      8.254
REMARK  Name = 
REMARK  5 active torsions:
REMARK  status: ('A' for Active; 'I' for Inactive)
REMARK    1  A    between atoms: C_1  and  C_2
REMARK    2  A    between atoms: C_5  and  C_6
REMARK    3  A    between atoms: C_7  and  N_8
REMARK    4  A    between atoms: N_11  and  C_12
REMARK    5  A    between atoms: C_23  and  C_24
REMARK                            x       y       z     vdW  Elec       q    Type
REMARK                         _______ _______ _______ _____ _____    ______ ____
ROOT
ATOM      1  C   UNL     1      -3.951  11.559  18.129  0.00  0.00    +0.000 A 
ATOM      2  C   UNL     1      -4.299  10.303  17.656  0.00  0.00    +0.000 A 
ATOM      3  N   UNL     1      -5.519   9.897  18.121  0.00  0.00    +0.000 NA
ATOM      4  C   UNL     1      -5.932  10.881  18.883  0.00  0.00    +0.000 A 
ATOM      5  C   UNL     1      -7.105  11.002  19.644  0.00  0.00    +0.000 A 
ATOM      6  C   UNL     1      -7.303  12.116  20.354  0.00  0.00    +0.000 A 
ATOM      7  C   UNL     1      -6.295  13.221  20.262  0.00  0.00    +0.000 A 
ATOM      8  N   UNL     1      -6.535  14.393  20.942  0.00  0.00    +0.000 N 
ATOM      9  C   UNL     1      -6.744  15.656  20.254  0.00  0.00    +0.000 C 
ATOM     10  C   UNL     1      -6.537  16.679  21.358  0.00  0.00    +0.000 C 
ATOM     11  C   UNL     1      -7.186  16.008  22.564  0.00  0.00    +0.000 C 
ATOM     12  C   UNL     1      -6.923  14.501  22.357  0.00  0.00    +0.000 C 
ATOM     13  N   UNL     1      -5.190  13.135  19.553  0.00  0.00    +0.000 NA
ATOM     14  N   UNL     1      -5.035  11.936  18.912  0.00  0.00    +0.000 N 
ENDROOT
BRANCH  12  15
ATOM     15  C   UNL     1      -5.842  13.991  23.283  0.00  0.00    +0.000 A 
ATOM     16  C   UNL     1      -4.648  14.695  23.507  0.00  0.00    +0.000 A 
ATOM     17  C   UNL     1      -3.687  14.192  24.379  0.00  0.00    +0.000 A 
ATOM     18  F   UNL     1      -2.547  14.872  24.555  0.00  0.00    +0.000 F 
ATOM     19  C   UNL     1      -3.894  13.002  25.066  0.00  0.00    +0.000 A 
ATOM     20  C   UNL     1      -5.080  12.298  24.869  0.00  0.00    +0.000 A 
ATOM     21  C   UNL     1      -6.038  12.793  23.983  0.00  0.00    +0.000 A 
ATOM     22  F   UNL     1      -7.172  12.100  23.808  0.00  0.00    +0.000 F 
ENDBRANCH  12  15
BRANCH   1  26
ATOM     23  N   UNL     1      -0.675  13.132  18.593  0.00  0.00    +0.000 N 
ATOM     24  C   UNL     1      -1.727  12.301  18.867  0.00  0.00    +0.000 C 
ATOM     25  O   UNL     1      -1.840  11.569  19.829  0.00  0.00    +0.000 OA
ATOM     26  N   UNL     1      -2.770  12.295  17.888  0.00  0.00    +0.000 N 
ATOM     27  H   UNL     1      -0.696  13.723  17.772  0.00  0.00    +0.000 HD
ATOM     28  H   UNL     1      -2.687  12.731  16.981  0.00  0.00    +0.000 HD
BRANCH  23  35
ATOM     29  C   UNL     1      -0.563  14.325  21.598  0.00  0.00    +0.000 C 
ATOM     30  C   UNL     1       0.512  13.774  20.744  0.00  0.00    +0.000 A 
ATOM     31  N   UNL     1       1.752  13.749  21.241  0.00  0.00    +0.000 NA
ATOM     32  O   UNL     1       2.538  13.191  20.270  0.00  0.00    +0.000 OA
ATOM     33  C   UNL     1       1.786  12.874  19.184  0.00  0.00    +0.000 A 
ATOM     34  C   UNL     1       2.581  12.250  18.101  0.00  0.00    +0.000 C 
ATOM     35  C   UNL     1       0.463  13.236  19.414  0.00  0.00    +0.000 A 
ENDBRANCH  23  35
ENDBRANCH   1  26
TORSDOF 3
ENDMDL
MODEL 9
REMARK VINA RESULT:      -6.9      4.708      8.669
REMARK  Name = 
REMARK  5 active torsions:
REMARK  status: ('A' for Active; 'I' for Inactive)
REMARK    1  A    between atoms: C_1  and  C_2
REMARK    2  A    between atoms: C_5  and  C_6
REMARK    3  A    between atoms: C_7  and  N_8
REMARK    4  A    between atoms: N_11  and  C_12
REMARK    5  A    between atoms: C_23  and  C_24
REMARK                            x       y       z     vdW  Elec       q    Type
REMARK                         _______ _______ _______ _____ _____    ______ ____
ROOT
ATOM      1  C   UNL     1      -0.692  14.905  22.164  0.00  0.00    +0.000 A 
ATOM      2  C   UNL     1       0.236  15.928  22.276  0.00  0.00    +0.000 A 
ATOM      3  N   UNL     1       1.105  15.955  21.220  0.00  0.00    +0.000 NA
ATOM      4  C   UNL     1       0.733  14.956  20.455  0.00  0.00    +0.000 A 
ATOM      5  C   UNL     1       1.282  14.488  19.252  0.00  0.00    +0.000 A 
ATOM      6  C   UNL     1       0.722  13.434  18.653  0.00  0.00    +0.000 A 
ATOM      7  C   UNL     1      -0.509  12.829  19.255  0.00  0.00    +0.000 A 
ATOM      8  N   UNL     1      -1.122  11.786  18.599  0.00  0.00    +0.000 N 
ATOM      9  C   UNL     1      -2.462  11.901  18.047  0.00  0.00    +0.000 C 
ATOM     10  C   UNL     1      -2.861  10.452  17.829  0.00  0.00    +0.000 C 
ATOM     11  C   UNL     1      -1.565   9.815  17.341  0.00  0.00    +0.000 C 
ATOM     12  C   UNL     1      -0.452  10.579  18.090  0.00  0.00    +0.000 C 
ATOM     13  N   UNL     1      -1.047  13.251  20.378  0.00  0.00    +0.000 NA
ATOM     14  N   UNL     1      -0.372  14.290  20.960  0.00  0.00    +0.000 N 
ENDROOT
BRANCH  12  15
ATOM     15  C   UNL     1       0.143   9.747  19.205  0.00  0.00    +0.000 A 
ATOM     16  C   UNL     1      -0.431   9.682  20.484  0.00  0.00    +0.000 A 
ATOM     17  C   UNL     1       0.145   8.892  21.474  0.00  0.00    +0.000 A 
ATOM     18  F   UNL     1      -0.409   8.868  22.694  0.00  0.00    +0.000 F 
ATOM     19  C   UNL     1       1.278   8.132  21.216  0.00  0.00    +0.000 A 
ATOM     20  C   UNL     1       1.852   8.171  19.947  0.00  0.00    +0.000 A 
ATOM     21  C   UNL     1       1.285   8.975  18.958  0.00  0.00    +0.000 A 
ATOM     22  F   UNL     1       1.853   8.998  17.744  0.00  0.00    +0.000 F 
ENDBRANCH  12  15
BRANCH   1  26
ATOM     23  N   UNL     1      -3.951  14.748  23.831  0.00  0.00    +0.000 N 
ATOM     24  C   UNL     1      -3.049  15.054  22.849  0.00  0.00    +0.000 C 
ATOM     25  O   UNL     1      -3.269  15.677  21.830  0.00  0.00    +0.000 OA
ATOM     26  N   UNL     1      -1.725  14.551  23.059  0.00  0.00    +0.000 N 
ATOM     27  H   UNL     1      -3.652  14.245  24.655  0.00  0.00    +0.000 HD
ATOM     28  H   UNL     1      -1.490  13.883  23.779  0.00  0.00    +0.000 HD
BRANCH  23  35
ATOM     29  C   UNL     1      -6.490  12.745  23.733  0.00  0.00    +0.000 C 
ATOM     30  C   UNL     1      -6.433  14.224  23.722  0.00  0.00    +0.000 A 
ATOM     31  N   UNL     1      -7.588  14.891  23.651  0.00  0.00    +0.000 NA
ATOM     32  O   UNL     1      -7.260  16.219  23.668  0.00  0.00    +0.000 OA
ATOM     33  C   UNL     1      -5.912  16.367  23.749  0.00  0.00    +0.000 A 
ATOM     34  C   UNL     1      -5.494  17.788  23.786  0.00  0.00    +0.000 C 
ATOM     35  C   UNL     1      -5.308  15.114  23.775  0.00  0.00    +0.000 A 
ENDBRANCH  23  35
ENDBRANCH   1  26
TORSDOF 3
ENDMDL
