MODEL 1
REMARK VINA RESULT:      -7.6      0.000      0.000
REMARK  Name = 
REMARK  6 active torsions:
REMARK  status: ('A' for Active; 'I' for Inactive)
REMARK    1  A    between atoms: C_1  and  C_2
REMARK    2  A    between atoms: C_2  and  N_3
REMARK    3  A    between atoms: N_5  and  C_6
REMARK    4  A    between atoms: C_14  and  C_15
REMARK    5  A    between atoms: C_15  and  N_16
REMARK    6  A    between atoms: N_16  and  C_17
REMARK                            x       y       z     vdW  Elec       q    Type
REMARK                         _______ _______ _______ _____ _____    ______ ____
ROOT
ATOM      1  N   UNL     1       2.930   5.866  19.221  0.00  0.00    +0.000 N 
ATOM      2  C   UNL     1       3.628   6.383  18.089  0.00  0.00    +0.000 A 
ATOM      3  N   UNL     1       4.600   5.560  17.520  0.00  0.00    +0.000 N 
ATOM      4  N   UNL     1       3.428   7.591  17.617  0.00  0.00    +0.000 NA
ATOM      5  C   UNL     1       2.456   8.360  18.288  0.00  0.00    +0.000 A 
ATOM      6  C   UNL     1       1.969   9.648  17.902  0.00  0.00    +0.000 A 
ATOM      7  C   UNL     1       0.960  10.080  18.754  0.00  0.00    +0.000 A 
ATOM      8  S   UNL     1       0.687   8.977  20.042  0.00  0.00    +0.000 S 
ATOM      9  C   UNL     1       1.855   7.937  19.428  0.00  0.00    +0.000 A 
ATOM     10  C   UNL     1       2.114   6.682  20.007  0.00  0.00    +0.000 A 
ATOM     11  O   UNL     1       1.644   6.338  21.100  0.00  0.00    +0.000 OA
ATOM     12  H   UNL     1       5.012   4.851  18.111  0.00  0.00    +0.000 HD
ENDROOT
BRANCH   3  13
ATOM     13  C   UNL     1       5.188   5.683  16.181  0.00  0.00    +0.000 C 
ATOM     14  C   UNL     1       6.726   5.764  16.251  0.00  0.00    +0.000 C 
ATOM     15  C   UNL     1       7.301   4.850  15.176  0.00  0.00    +0.000 C 
ATOM     16  C   UNL     1       6.172   3.969  14.680  0.00  0.00    +0.000 C 
ATOM     17  C   UNL     1       4.885   4.434  15.349  0.00  0.00    +0.000 C 
ENDBRANCH   3  13
BRANCH   1  19
ATOM     18  C   UNL     1       1.901   3.588  19.020  0.00  0.00    +0.000 C 
ATOM     19  C   UNL     1       2.942   4.475  19.686  0.00  0.00    +0.000 C 
ENDBRANCH   1  19
BRANCH   7  20
ATOM     20  C   UNL     1       0.077  11.295  18.745  0.00  0.00    +0.000 C 
BRANCH  20  21
ATOM     21  N   UNL     1      -1.312  10.975  19.106  0.00  0.00    +0.000 N 
ATOM     22  H   UNL     1      -1.648  11.610  19.830  0.00  0.00    +0.000 HD
BRANCH  21  23
ATOM     23  C   UNL     1      -2.232  10.855  18.056  0.00  0.00    +0.000 A 
ATOM     24  C   UNL     1      -1.967   9.986  16.993  0.00  0.00    +0.000 A 
ATOM     25  C   UNL     1      -2.845   9.899  15.913  0.00  0.00    +0.000 A 
ATOM     26  C   UNL     1      -3.955  10.724  15.901  0.00  0.00    +0.000 A 
ATOM     27  N   UNL     1      -4.235  11.612  16.873  0.00  0.00    +0.000 NA
ATOM     28  C   UNL     1      -3.361  11.663  17.909  0.00  0.00    +0.000 A 
ENDBRANCH  21  23
ENDBRANCH  20  21
ENDBRANCH   7  20
TORSDOF 5
ENDMDL
MODEL 2
REMARK VINA RESULT:      -7.4      1.447      1.957
REMARK  Name = 
REMARK  6 active torsions:
REMARK  status: ('A' for Active; 'I' for Inactive)
REMARK    1  A    between atoms: C_1  and  C_2
REMARK    2  A    between atoms: C_2  and  N_3
REMARK    3  A    between atoms: N_5  and  C_6
REMARK    4  A    between atoms: C_14  and  C_15
REMARK    5  A    between atoms: C_15  and  N_16
REMARK    6  A    between atoms: N_16  and  C_17
REMARK                            x       y       z     vdW  Elec       q    Type
REMARK                         _______ _______ _______ _____ _____    ______ ____
ROOT
ATOM      1  N   UNL     1       3.920   4.521  18.280  0.00  0.00    +0.000 N 
ATOM      2  C   UNL     1       4.368   5.278  17.157  0.00  0.00    +0.000 A 
ATOM      3  N   UNL     1       5.229   4.635  16.268  0.00  0.00    +0.000 N 
ATOM      4  N   UNL     1       4.049   6.538  16.971  0.00  0.00    +0.000 NA
ATOM      5  C   UNL     1       3.210   7.109  17.947  0.00  0.00    +0.000 A 
ATOM      6  C   UNL     1       2.625   8.415  17.914  0.00  0.00    +0.000 A 
ATOM      7  C   UNL     1       1.794   8.621  19.008  0.00  0.00    +0.000 A 
ATOM      8  S   UNL     1       1.807   7.286  20.089  0.00  0.00    +0.000 S 
ATOM      9  C   UNL     1       2.856   6.450  19.079  0.00  0.00    +0.000 A 
ATOM     10  C   UNL     1       3.255   5.128  19.347  0.00  0.00    +0.000 A 
ATOM     11  O   UNL     1       3.018   4.561  20.423  0.00  0.00    +0.000 OA
ATOM     12  H   UNL     1       5.767   3.856  16.624  0.00  0.00    +0.000 HD
ENDROOT
BRANCH   3  13
ATOM     13  C   UNL     1       5.539   5.036  14.890  0.00  0.00    +0.000 C 
ATOM     14  C   UNL     1       7.059   5.196  14.683  0.00  0.00    +0.000 C 
ATOM     15  C   UNL     1       7.432   4.531  13.363  0.00  0.00    +0.000 C 
ATOM     16  C   UNL     1       6.248   3.689  12.931  0.00  0.00    +0.000 C 
ATOM     17  C   UNL     1       5.108   3.945  13.907  0.00  0.00    +0.000 C 
ENDBRANCH   3  13
BRANCH   1  19
ATOM     18  C   UNL     1       2.946   2.258  17.815  0.00  0.00    +0.000 C 
ATOM     19  C   UNL     1       4.057   3.072  18.459  0.00  0.00    +0.000 C 
ENDBRANCH   1  19
BRANCH   7  20
ATOM     20  C   UNL     1       0.896   9.760  19.399  0.00  0.00    +0.000 C 
BRANCH  20  21
ATOM     21  N   UNL     1       0.432  10.525  18.232  0.00  0.00    +0.000 N 
ATOM     22  H   UNL     1       0.870  10.176  17.379  0.00  0.00    +0.000 HD
BRANCH  21  23
ATOM     23  C   UNL     1      -0.952  10.675  18.077  0.00  0.00    +0.000 A 
ATOM     24  C   UNL     1      -1.652  11.568  18.895  0.00  0.00    +0.000 A 
ATOM     25  C   UNL     1      -3.039  11.685  18.792  0.00  0.00    +0.000 A 
ATOM     26  C   UNL     1      -3.703  10.865  17.898  0.00  0.00    +0.000 A 
ATOM     27  N   UNL     1      -3.087   9.955  17.121  0.00  0.00    +0.000 NA
ATOM     28  C   UNL     1      -1.738   9.874  17.244  0.00  0.00    +0.000 A 
ENDBRANCH  21  23
ENDBRANCH  20  21
ENDBRANCH   7  20
TORSDOF 5
ENDMDL
MODEL 3
REMARK VINA RESULT:      -7.3      3.497      8.174
REMARK  Name = 
REMARK  6 active torsions:
REMARK  status: ('A' for Active; 'I' for Inactive)
REMARK    1  A    between atoms: C_1  and  C_2
REMARK    2  A    between atoms: C_2  and  N_3
REMARK    3  A    between atoms: N_5  and  C_6
REMARK    4  A    between atoms: C_14  and  C_15
REMARK    5  A    between atoms: C_15  and  N_16
REMARK    6  A    between atoms: N_16  and  C_17
REMARK                            x       y       z     vdW  Elec       q    Type
REMARK                         _______ _______ _______ _____ _____    ______ ____
ROOT
ATOM      1  N   UNL     1       1.854   4.731  19.696  0.00  0.00    +0.000 N 
ATOM      2  C   UNL     1       2.020   6.145  19.599  0.00  0.00    +0.000 A 
ATOM      3  N   UNL     1       1.309   6.926  20.509  0.00  0.00    +0.000 N 
ATOM      4  N   UNL     1       2.756   6.716  18.673  0.00  0.00    +0.000 NA
ATOM      5  C   UNL     1       3.399   5.843  17.774  0.00  0.00    +0.000 A 
ATOM      6  C   UNL     1       4.343   6.201  16.761  0.00  0.00    +0.000 A 
ATOM      7  C   UNL     1       4.830   5.077  16.107  0.00  0.00    +0.000 A 
ATOM      8  S   UNL     1       4.080   3.634  16.659  0.00  0.00    +0.000 S 
ATOM      9  C   UNL     1       3.175   4.505  17.774  0.00  0.00    +0.000 A 
ATOM     10  C   UNL     1       2.324   3.873  18.699  0.00  0.00    +0.000 A 
ATOM     11  O   UNL     1       2.040   2.670  18.636  0.00  0.00    +0.000 OA
ATOM     12  H   UNL     1       0.475   6.523  20.915  0.00  0.00    +0.000 HD
ENDROOT
BRANCH   3  13
ATOM     13  C   UNL     1       1.566   8.328  20.861  0.00  0.00    +0.000 C 
ATOM     14  C   UNL     1       1.039   9.283  19.771  0.00  0.00    +0.000 C 
ATOM     15  C   UNL     1       0.312  10.434  20.457  0.00  0.00    +0.000 C 
ATOM     16  C   UNL     1       0.094  10.033  21.903  0.00  0.00    +0.000 C 
ATOM     17  C   UNL     1       0.805   8.706  22.134  0.00  0.00    +0.000 C 
ENDBRANCH   3  13
BRANCH   1  19
ATOM     18  C   UNL     1       2.211   3.445  21.818  0.00  0.00    +0.000 C 
ATOM     19  C   UNL     1       1.225   4.007  20.805  0.00  0.00    +0.000 C 
ENDBRANCH   1  19
BRANCH   7  20
ATOM     20  C   UNL     1       5.878   4.896  15.046  0.00  0.00    +0.000 C 
BRANCH  20  21
ATOM     21  N   UNL     1       7.140   5.564  15.393  0.00  0.00    +0.000 N 
ATOM     22  H   UNL     1       7.229   6.445  14.886  0.00  0.00    +0.000 HD
BRANCH  21  23
ATOM     23  C   UNL     1       7.425   5.723  16.756  0.00  0.00    +0.000 A 
ATOM     24  C   UNL     1       7.695   6.995  17.267  0.00  0.00    +0.000 A 
ATOM     25  C   UNL     1       8.037   7.162  18.610  0.00  0.00    +0.000 A 
ATOM     26  C   UNL     1       8.145   6.035  19.405  0.00  0.00    +0.000 A 
ATOM     27  N   UNL     1       7.943   4.783  18.955  0.00  0.00    +0.000 NA
ATOM     28  C   UNL     1       7.606   4.661  17.646  0.00  0.00    +0.000 A 
ENDBRANCH  21  23
ENDBRANCH  20  21
ENDBRANCH   7  20
TORSDOF 5
ENDMDL
MODEL 4
REMARK VINA RESULT:      -7.3      3.516      8.336
REMARK  Name = 
REMARK  6 active torsions:
REMARK  status: ('A' for Active; 'I' for Inactive)
REMARK    1  A    between atoms: C_1  and  C_2
REMARK    2  A    between atoms: C_2  and  N_3
REMARK    3  A    between atoms: N_5  and  C_6
REMARK    4  A    between atoms: C_14  and  C_15
REMARK    5  A    between atoms: C_15  and  N_16
REMARK    6  A    between atoms: N_16  and  C_17
REMARK                            x       y       z     vdW  Elec       q    Type
REMARK                         _______ _______ _______ _____ _____    ______ ____
ROOT
ATOM      1  N   UNL     1       1.985   4.695  19.890  0.00  0.00    +0.000 N 
ATOM      2  C   UNL     1       2.196   6.106  19.878  0.00  0.00    +0.000 A 
ATOM      3  N   UNL     1       1.255   6.889  20.548  0.00  0.00    +0.000 N 
ATOM      4  N   UNL     1       3.186   6.676  19.232  0.00  0.00    +0.000 NA
ATOM      5  C   UNL     1       4.058   5.803  18.551  0.00  0.00    +0.000 A 
ATOM      6  C   UNL     1       5.270   6.157  17.879  0.00  0.00    +0.000 A 
ATOM      7  C   UNL     1       5.914   5.032  17.378  0.00  0.00    +0.000 A 
ATOM      8  S   UNL     1       5.009   3.597  17.646  0.00  0.00    +0.000 S 
ATOM      9  C   UNL     1       3.823   4.470  18.454  0.00  0.00    +0.000 A 
ATOM     10  C   UNL     1       2.721   3.843  19.064  0.00  0.00    +0.000 A 
ATOM     11  O   UNL     1       2.450   2.647  18.892  0.00  0.00    +0.000 OA
ATOM     12  H   UNL     1       0.331   6.497  20.673  0.00  0.00    +0.000 HD
ENDROOT
BRANCH   3  13
ATOM     13  C   UNL     1       1.416   8.278  20.992  0.00  0.00    +0.000 C 
ATOM     14  C   UNL     1       1.053   9.270  19.867  0.00  0.00    +0.000 C 
ATOM     15  C   UNL     1       0.194  10.377  20.468  0.00  0.00    +0.000 C 
ATOM     16  C   UNL     1      -0.249   9.911  21.841  0.00  0.00    +0.000 C 
ATOM     17  C   UNL     1       0.446   8.589  22.135  0.00  0.00    +0.000 C 
ENDBRANCH   3  13
BRANCH   1  19
ATOM     18  C   UNL     1       1.697   3.069  21.777  0.00  0.00    +0.000 C 
ATOM     19  C   UNL     1       1.038   3.968  20.741  0.00  0.00    +0.000 C 
ENDBRANCH   1  19
BRANCH   7  20
ATOM     20  C   UNL     1       7.231   4.845  16.680  0.00  0.00    +0.000 C 
BRANCH  20  21
ATOM     21  N   UNL     1       7.300   5.594  15.417  0.00  0.00    +0.000 N 
ATOM     22  H   UNL     1       8.174   6.117  15.359  0.00  0.00    +0.000 HD
BRANCH  21  23
ATOM     23  C   UNL     1       7.048   4.880  14.238  0.00  0.00    +0.000 A 
ATOM     24  C   UNL     1       7.749   5.195  13.070  0.00  0.00    +0.000 A 
ATOM     25  C   UNL     1       7.468   4.533  11.874  0.00  0.00    +0.000 A 
ATOM     26  C   UNL     1       6.451   3.595  11.866  0.00  0.00    +0.000 A 
ATOM     27  N   UNL     1       5.713   3.286  12.947  0.00  0.00    +0.000 NA
ATOM     28  C   UNL     1       6.020   3.946  14.093  0.00  0.00    +0.000 A 
ENDBRANCH  21  23
ENDBRANCH  20  21
ENDBRANCH   7  20
TORSDOF 5
ENDMDL
MODEL 5
REMARK VINA RESULT:      -7.3      1.318      1.986
REMARK  Name = 
REMARK  6 active torsions:
REMARK  status: ('A' for Active; 'I' for Inactive)
REMARK    1  A    between atoms: C_1  and  C_2
REMARK    2  A    between atoms: C_2  and  N_3
REMARK    3  A    between atoms: N_5  and  C_6
REMARK    4  A    between atoms: C_14  and  C_15
REMARK    5  A    between atoms: C_15  and  N_16
REMARK    6  A    between atoms: N_16  and  C_17
REMARK                            x       y       z     vdW  Elec       q    Type
REMARK                         _______ _______ _______ _____ _____    ______ ____
ROOT
ATOM      1  N   UNL     1       3.485   4.200  19.506  0.00  0.00    +0.000 N 
ATOM      2  C   UNL     1       4.275   4.583  18.381  0.00  0.00    +0.000 A 
ATOM      3  N   UNL     1       5.182   3.640  17.899  0.00  0.00    +0.000 N 
ATOM      4  N   UNL     1       4.215   5.777  17.840  0.00  0.00    +0.000 NA
ATOM      5  C   UNL     1       3.299   6.673  18.427  0.00  0.00    +0.000 A 
ATOM      6  C   UNL     1       2.959   7.979  17.954  0.00  0.00    +0.000 A 
ATOM      7  C   UNL     1       1.965   8.554  18.738  0.00  0.00    +0.000 A 
ATOM      8  S   UNL     1       1.533   7.555  20.066  0.00  0.00    +0.000 S 
ATOM      9  C   UNL     1       2.614   6.374  19.559  0.00  0.00    +0.000 A 
ATOM     10  C   UNL     1       2.723   5.133  20.212  0.00  0.00    +0.000 A 
ATOM     11  O   UNL     1       2.179   4.897  21.299  0.00  0.00    +0.000 OA
ATOM     12  H   UNL     1       5.498   2.927  18.543  0.00  0.00    +0.000 HD
ENDROOT
BRANCH   3  13
ATOM     13  C   UNL     1       5.832   3.631  16.583  0.00  0.00    +0.000 C 
ATOM     14  C   UNL     1       4.926   4.266  15.509  0.00  0.00    +0.000 C 
ATOM     15  C   UNL     1       5.778   5.199  14.657  0.00  0.00    +0.000 C 
ATOM     16  C   UNL     1       7.091   5.403  15.386  0.00  0.00    +0.000 C 
ATOM     17  C   UNL     1       7.097   4.493  16.607  0.00  0.00    +0.000 C 
ENDBRANCH   3  13
BRANCH   1  19
ATOM     18  C   UNL     1       2.283   2.005  19.334  0.00  0.00    +0.000 C 
ATOM     19  C   UNL     1       3.340   2.842  20.040  0.00  0.00    +0.000 C 
ENDBRANCH   1  19
BRANCH   7  20
ATOM     20  C   UNL     1       1.209   9.847  18.627  0.00  0.00    +0.000 C 
BRANCH  20  21
ATOM     21  N   UNL     1       0.136   9.778  17.624  0.00  0.00    +0.000 N 
ATOM     22  H   UNL     1       0.023   8.822  17.287  0.00  0.00    +0.000 HD
BRANCH  21  23
ATOM     23  C   UNL     1      -1.094  10.354  17.965  0.00  0.00    +0.000 A 
ATOM     24  C   UNL     1      -2.243  10.023  17.241  0.00  0.00    +0.000 A 
ATOM     25  C   UNL     1      -3.465  10.631  17.531  0.00  0.00    +0.000 A 
ATOM     26  C   UNL     1      -3.498  11.599  18.519  0.00  0.00    +0.000 A 
ATOM     27  N   UNL     1      -2.416  11.991  19.215  0.00  0.00    +0.000 NA
ATOM     28  C   UNL     1      -1.247  11.373  18.909  0.00  0.00    +0.000 A 
ENDBRANCH  21  23
ENDBRANCH  20  21
ENDBRANCH   7  20
TORSDOF 5
ENDMDL
MODEL 6
REMARK VINA RESULT:      -7.3      0.754      1.115
REMARK  Name = 
REMARK  6 active torsions:
REMARK  status: ('A' for Active; 'I' for Inactive)
REMARK    1  A    between atoms: C_1  and  C_2
REMARK    2  A    between atoms: C_2  and  N_3
REMARK    3  A    between atoms: N_5  and  C_6
REMARK    4  A    between atoms: C_14  and  C_15
REMARK    5  A    between atoms: C_15  and  N_16
REMARK    6  A    between atoms: N_16  and  C_17
REMARK                            x       y       z     vdW  Elec       q    Type
REMARK                         _______ _______ _______ _____ _____    ______ ____
ROOT
ATOM      1  N   UNL     1       2.634   6.222  19.552  0.00  0.00    +0.000 N 
ATOM      2  C   UNL     1       3.330   6.585  18.361  0.00  0.00    +0.000 A 
ATOM      3  N   UNL     1       4.247   5.659  17.860  0.00  0.00    +0.000 N 
ATOM      4  N   UNL     1       3.181   7.749  17.772  0.00  0.00    +0.000 NA
ATOM      5  C   UNL     1       2.265   8.631  18.379  0.00  0.00    +0.000 A 
ATOM      6  C   UNL     1       1.835   9.898  17.873  0.00  0.00    +0.000 A 
ATOM      7  C   UNL     1       0.869  10.466  18.695  0.00  0.00    +0.000 A 
ATOM      8  S   UNL     1       0.571   9.513  20.093  0.00  0.00    +0.000 S 
ATOM      9  C   UNL     1       1.670   8.357  19.567  0.00  0.00    +0.000 A 
ATOM     10  C   UNL     1       1.878   7.154  20.265  0.00  0.00    +0.000 A 
ATOM     11  O   UNL     1       1.417   6.946  21.396  0.00  0.00    +0.000 OA
ATOM     12  H   UNL     1       4.635   4.992  18.513  0.00  0.00    +0.000 HD
ENDROOT
BRANCH   3  13
ATOM     13  C   UNL     1       4.809   5.616  16.505  0.00  0.00    +0.000 C 
ATOM     14  C   UNL     1       6.303   5.998  16.508  0.00  0.00    +0.000 C 
ATOM     15  C   UNL     1       7.049   5.010  15.619  0.00  0.00    +0.000 C 
ATOM     16  C   UNL     1       6.112   3.850  15.347  0.00  0.00    +0.000 C 
ATOM     17  C   UNL     1       4.756   4.190  15.951  0.00  0.00    +0.000 C 
ENDBRANCH   3  13
BRANCH   1  19
ATOM     18  C   UNL     1       1.473   4.000  19.616  0.00  0.00    +0.000 C 
ATOM     19  C   UNL     1       2.586   4.885  20.154  0.00  0.00    +0.000 C 
ENDBRANCH   1  19
BRANCH   7  20
ATOM     20  C   UNL     1       0.049  11.718  18.579  0.00  0.00    +0.000 C 
BRANCH  20  21
ATOM     21  N   UNL     1      -1.290  11.561  19.166  0.00  0.00    +0.000 N 
ATOM     22  H   UNL     1      -1.430  12.234  19.920  0.00  0.00    +0.000 HD
BRANCH  21  23
ATOM     23  C   UNL     1      -2.376  11.544  18.281  0.00  0.00    +0.000 A 
ATOM     24  C   UNL     1      -3.664  11.812  18.755  0.00  0.00    +0.000 A 
ATOM     25  C   UNL     1      -4.763  11.742  17.898  0.00  0.00    +0.000 A 
ATOM     26  C   UNL     1      -4.550  11.357  16.587  0.00  0.00    +0.000 A 
ATOM     27  N   UNL     1      -3.341  11.042  16.089  0.00  0.00    +0.000 NA
ATOM     28  C   UNL     1      -2.295  11.128  16.950  0.00  0.00    +0.000 A 
ENDBRANCH  21  23
ENDBRANCH  20  21
ENDBRANCH   7  20
TORSDOF 5
ENDMDL
MODEL 7
REMARK VINA RESULT:      -7.2      1.120      1.272
REMARK  Name = 
REMARK  6 active torsions:
REMARK  status: ('A' for Active; 'I' for Inactive)
REMARK    1  A    between atoms: C_1  and  C_2
REMARK    2  A    between atoms: C_2  and  N_3
REMARK    3  A    between atoms: N_5  and  C_6
REMARK    4  A    between atoms: C_14  and  C_15
REMARK    5  A    between atoms: C_15  and  N_16
REMARK    6  A    between atoms: N_16  and  C_17
REMARK                            x       y       z     vdW  Elec       q    Type
REMARK                         _______ _______ _______ _____ _____    ______ ____
ROOT
ATOM      1  N   UNL     1       3.223   4.782  19.073  0.00  0.00    +0.000 N 
ATOM      2  C   UNL     1       3.791   5.509  17.985  0.00  0.00    +0.000 A 
ATOM      3  N   UNL     1       4.676   4.816  17.159  0.00  0.00    +0.000 N 
ATOM      4  N   UNL     1       3.558   6.785  17.779  0.00  0.00    +0.000 NA
ATOM      5  C   UNL     1       2.685   7.405  18.695  0.00  0.00    +0.000 A 
ATOM      6  C   UNL     1       2.178   8.741  18.622  0.00  0.00    +0.000 A 
ATOM      7  C   UNL     1       1.284   8.996  19.655  0.00  0.00    +0.000 A 
ATOM      8  S   UNL     1       1.146   7.666  20.732  0.00  0.00    +0.000 S 
ATOM      9  C   UNL     1       2.215   6.769  19.797  0.00  0.00    +0.000 A 
ATOM     10  C   UNL     1       2.519   5.428  20.091  0.00  0.00    +0.000 A 
ATOM     11  O   UNL     1       2.176   4.878  21.147  0.00  0.00    +0.000 OA
ATOM     12  H   UNL     1       5.142   4.010  17.551  0.00  0.00    +0.000 HD
ENDROOT
BRANCH   3  13
ATOM     13  C   UNL     1       5.104   5.197  15.807  0.00  0.00    +0.000 C 
ATOM     14  C   UNL     1       6.592   5.603  15.786  0.00  0.00    +0.000 C 
ATOM     15  C   UNL     1       7.248   4.948  14.577  0.00  0.00    +0.000 C 
ATOM     16  C   UNL     1       6.288   3.895  14.057  0.00  0.00    +0.000 C 
ATOM     17  C   UNL     1       4.997   4.000  14.858  0.00  0.00    +0.000 C 
ENDBRANCH   3  13
BRANCH   1  19
ATOM     18  C   UNL     1       4.567   2.816  19.860  0.00  0.00    +0.000 C 
ATOM     19  C   UNL     1       3.266   3.328  19.259  0.00  0.00    +0.000 C 
ENDBRANCH   1  19
BRANCH   7  20
ATOM     20  C   UNL     1       0.427  10.185  19.982  0.00  0.00    +0.000 C 
BRANCH  20  21
ATOM     21  N   UNL     1       0.046  10.942  18.780  0.00  0.00    +0.000 N 
ATOM     22  H   UNL     1       0.692  10.747  18.016  0.00  0.00    +0.000 HD
BRANCH  21  23
ATOM     23  C   UNL     1      -1.289  10.848  18.365  0.00  0.00    +0.000 A 
ATOM     24  C   UNL     1      -1.635   9.981  17.324  0.00  0.00    +0.000 A 
ATOM     25  C   UNL     1      -2.949   9.919  16.860  0.00  0.00    +0.000 A 
ATOM     26  C   UNL     1      -3.885  10.768  17.423  0.00  0.00    +0.000 A 
ATOM     27  N   UNL     1      -3.599  11.655  18.393  0.00  0.00    +0.000 NA
ATOM     28  C   UNL     1      -2.312  11.682  18.822  0.00  0.00    +0.000 A 
ENDBRANCH  21  23
ENDBRANCH  20  21
ENDBRANCH   7  20
TORSDOF 5
ENDMDL
MODEL 8
REMARK VINA RESULT:      -7.2      1.003      1.297
REMARK  Name = 
REMARK  6 active torsions:
REMARK  status: ('A' for Active; 'I' for Inactive)
REMARK    1  A    between atoms: C_1  and  C_2
REMARK    2  A    between atoms: C_2  and  N_3
REMARK    3  A    between atoms: N_5  and  C_6
REMARK    4  A    between atoms: C_14  and  C_15
REMARK    5  A    between atoms: C_15  and  N_16
REMARK    6  A    between atoms: N_16  and  C_17
REMARK                            x       y       z     vdW  Elec       q    Type
REMARK                         _______ _______ _______ _____ _____    ______ ____
ROOT
ATOM      1  N   UNL     1       2.761   6.140  19.482  0.00  0.00    +0.000 N 
ATOM      2  C   UNL     1       3.451   6.548  18.301  0.00  0.00    +0.000 A 
ATOM      3  N   UNL     1       4.402   5.665  17.791  0.00  0.00    +0.000 N 
ATOM      4  N   UNL     1       3.263   7.716  17.731  0.00  0.00    +0.000 NA
ATOM      5  C   UNL     1       2.313   8.554  18.348  0.00  0.00    +0.000 A 
ATOM      6  C   UNL     1       1.841   9.814  17.861  0.00  0.00    +0.000 A 
ATOM      7  C   UNL     1       0.851  10.333  18.687  0.00  0.00    +0.000 A 
ATOM      8  S   UNL     1       0.580   9.347  20.067  0.00  0.00    +0.000 S 
ATOM      9  C   UNL     1       1.722   8.240  19.528  0.00  0.00    +0.000 A 
ATOM     10  C   UNL     1       1.969   7.033  20.207  0.00  0.00    +0.000 A 
ATOM     11  O   UNL     1       1.510   6.790  21.331  0.00  0.00    +0.000 OA
ATOM     12  H   UNL     1       4.811   5.001  18.434  0.00  0.00    +0.000 HD
ENDROOT
BRANCH   3  13
ATOM     13  C   UNL     1       4.972   5.665  16.438  0.00  0.00    +0.000 C 
ATOM     14  C   UNL     1       6.494   5.913  16.474  0.00  0.00    +0.000 C 
ATOM     15  C   UNL     1       7.160   4.926  15.523  0.00  0.00    +0.000 C 
ATOM     16  C   UNL     1       6.128   3.874  15.167  0.00  0.00    +0.000 C 
ATOM     17  C   UNL     1       4.800   4.291  15.787  0.00  0.00    +0.000 C 
ENDBRANCH   3  13
BRANCH   1  19
ATOM     18  C   UNL     1       1.719   3.860  19.460  0.00  0.00    +0.000 C 
ATOM     19  C   UNL     1       2.758   4.793  20.061  0.00  0.00    +0.000 C 
ENDBRANCH   1  19
BRANCH   7  20
ATOM     20  C   UNL     1      -0.013  11.558  18.587  0.00  0.00    +0.000 C 
BRANCH  20  21
ATOM     21  N   UNL     1      -1.100  11.392  17.612  0.00  0.00    +0.000 N 
ATOM     22  H   UNL     1      -1.005  10.503  17.120  0.00  0.00    +0.000 HD
BRANCH  21  23
ATOM     23  C   UNL     1      -2.407  11.589  18.074  0.00  0.00    +0.000 A 
ATOM     24  C   UNL     1      -3.490  11.369  17.217  0.00  0.00    +0.000 A 
ATOM     25  C   UNL     1      -4.795  11.617  17.644  0.00  0.00    +0.000 A 
ATOM     26  C   UNL     1      -4.983  12.128  18.916  0.00  0.00    +0.000 A 
ATOM     27  N   UNL     1      -3.977  12.404  19.765  0.00  0.00    +0.000 NA
ATOM     28  C   UNL     1      -2.723  12.143  19.317  0.00  0.00    +0.000 A 
ENDBRANCH  21  23
ENDBRANCH  20  21
ENDBRANCH   7  20
TORSDOF 5
ENDMDL
MODEL 9
REMARK VINA RESULT:      -7.2      2.453      3.119
REMARK  Name = 
REMARK  6 active torsions:
REMARK  status: ('A' for Active; 'I' for Inactive)
REMARK    1  A    between atoms: C_1  and  C_2
REMARK    2  A    between atoms: C_2  and  N_3
REMARK    3  A    between atoms: N_5  and  C_6
REMARK    4  A    between atoms: C_14  and  C_15
REMARK    5  A    between atoms: C_15  and  N_16
REMARK    6  A    between atoms: N_16  and  C_17
REMARK                            x       y       z     vdW  Elec       q    Type
REMARK                         _______ _______ _______ _____ _____    ______ ____
ROOT
ATOM      1  N   UNL     1       3.947   4.537  18.367  0.00  0.00    +0.000 N 
ATOM      2  C   UNL     1       4.389   5.293  17.241  0.00  0.00    +0.000 A 
ATOM      3  N   UNL     1       5.258   4.655  16.356  0.00  0.00    +0.000 N 
ATOM      4  N   UNL     1       4.058   6.549  17.048  0.00  0.00    +0.000 NA
ATOM      5  C   UNL     1       3.211   7.117  18.021  0.00  0.00    +0.000 A 
ATOM      6  C   UNL     1       2.613   8.416  17.982  0.00  0.00    +0.000 A 
ATOM      7  C   UNL     1       1.778   8.619  19.074  0.00  0.00    +0.000 A 
ATOM      8  S   UNL     1       1.804   7.289  20.160  0.00  0.00    +0.000 S 
ATOM      9  C   UNL     1       2.863   6.459  19.155  0.00  0.00    +0.000 A 
ATOM     10  C   UNL     1       3.274   5.142  19.431  0.00  0.00    +0.000 A 
ATOM     11  O   UNL     1       3.042   4.578  20.509  0.00  0.00    +0.000 OA
ATOM     12  H   UNL     1       5.803   3.883  16.716  0.00  0.00    +0.000 HD
ENDROOT
BRANCH   3  13
ATOM     13  C   UNL     1       5.565   5.053  14.977  0.00  0.00    +0.000 C 
ATOM     14  C   UNL     1       7.087   5.154  14.751  0.00  0.00    +0.000 C 
ATOM     15  C   UNL     1       7.417   4.484  13.422  0.00  0.00    +0.000 C 
ATOM     16  C   UNL     1       6.195   3.692  12.999  0.00  0.00    +0.000 C 
ATOM     17  C   UNL     1       5.079   3.986  13.993  0.00  0.00    +0.000 C 
ENDBRANCH   3  13
BRANCH   1  19
ATOM     18  C   UNL     1       3.024   2.259  17.869  0.00  0.00    +0.000 C 
ATOM     19  C   UNL     1       4.099   3.091  18.553  0.00  0.00    +0.000 C 
ENDBRANCH   1  19
BRANCH   7  20
ATOM     20  C   UNL     1       0.869   9.751  19.458  0.00  0.00    +0.000 C 
BRANCH  20  21
ATOM     21  N   UNL     1       0.648   9.817  20.909  0.00  0.00    +0.000 N 
ATOM     22  H   UNL     1       1.533   9.951  21.400  0.00  0.00    +0.000 HD
BRANCH  21  23
ATOM     23  C   UNL     1      -0.334  10.706  21.365  0.00  0.00    +0.000 A 
ATOM     24  C   UNL     1      -0.728  10.681  22.707  0.00  0.00    +0.000 A 
ATOM     25  C   UNL     1      -1.745  11.519  23.163  0.00  0.00    +0.000 A 
ATOM     26  C   UNL     1      -2.381  12.338  22.247  0.00  0.00    +0.000 A 
ATOM     27  N   UNL     1      -2.077  12.369  20.937  0.00  0.00    +0.000 NA
ATOM     28  C   UNL     1      -1.078  11.545  20.532  0.00  0.00    +0.000 A 
ENDBRANCH  21  23
ENDBRANCH  20  21
ENDBRANCH   7  20
TORSDOF 5
ENDMDL
