MODEL 1
REMARK VINA RESULT:      -8.1      0.000      0.000
REMARK  Name = 
REMARK  7 active torsions:
REMARK  status: ('A' for Active; 'I' for Inactive)
REMARK    1  A    between atoms: C_2  and  C_3
REMARK    2  A    between atoms: C_3  and  O_4
REMARK    3  A    between atoms: O_4  and  C_5
REMARK    4  A    between atoms: C_11  and  C_12
REMARK    5  A    between atoms: C_12  and  N_13
REMARK    6  A    between atoms: N_13  and  C_14
REMARK    7  A    between atoms: N_19  and  C_20
REMARK                            x       y       z     vdW  Elec       q    Type
REMARK                         _______ _______ _______ _____ _____    ______ ____
ROOT
ATOM      1  C   UNL     1       5.537   6.726  17.185  0.00  0.00    +0.000 A 
ATOM      2  C   UNL     1       4.325   7.232  17.702  0.00  0.00    +0.000 A 
ATOM      3  C   UNL     1       3.239   6.385  17.927  0.00  0.00    +0.000 A 
ATOM      4  C   UNL     1       3.343   5.024  17.652  0.00  0.00    +0.000 A 
ATOM      5 BR   UNL     1       1.865   3.864  18.000  0.00  0.00    +0.000 Br
ATOM      6  C   UNL     1       4.533   4.505  17.137  0.00  0.00    +0.000 A 
ATOM      7  C   UNL     1       5.633   5.343  16.889  0.00  0.00    +0.000 A 
ENDROOT
BRANCH   1   8
ATOM      8  O   UNL     1       6.627   7.521  17.007  0.00  0.00    +0.000 OA
BRANCH   8   9
ATOM      9  C   UNL     1       7.728   7.591  17.844  0.00  0.00    +0.000 C 
BRANCH   9  11
ATOM     10  O   UNL     1       7.701   9.899  17.485  0.00  0.00    +0.000 OA
ATOM     11  C   UNL     1       8.194   8.995  18.136  0.00  0.00    +0.000 C 
ATOM     12  N   UNL     1       9.118   9.238  19.116  0.00  0.00    +0.000 N 
ATOM     13  H   UNL     1       9.526   8.415  19.585  0.00  0.00    +0.000 HD
BRANCH  12  14
ATOM     14  C   UNL     1       9.576  10.534  19.548  0.00  0.00    +0.000 A 
ATOM     15  C   UNL     1       9.283  11.089  20.820  0.00  0.00    +0.000 A 
ATOM     16  C   UNL     1       9.760  12.352  21.178  0.00  0.00    +0.000 A 
ATOM     17  C   UNL     1      10.538  13.086  20.286  0.00  0.00    +0.000 A 
ATOM     18  C   UNL     1      10.852  12.556  19.036  0.00  0.00    +0.000 A 
ATOM     19  C   UNL     1      10.383  11.288  18.671  0.00  0.00    +0.000 A 
ENDBRANCH  12  14
ENDBRANCH   9  11
ENDBRANCH   8   9
ENDBRANCH   1   8
BRANCH   7  20
ATOM     20  C   UNL     1       6.922   4.732  16.371  0.00  0.00    +0.000 C 
BRANCH  20  21
ATOM     21  N   UNL     1       7.337   5.267  15.063  0.00  0.00    +0.000 NA
ATOM     22  H   UNL     1       8.324   5.612  15.111  0.00  0.00    +0.000 HD
BRANCH  21  23
ATOM     23  C   UNL     1       7.204   4.321  13.945  0.00  0.00    +0.000 C 
ATOM     24  C   UNL     1       5.752   3.968  13.617  0.00  0.00    +0.000 C 
ATOM     25  C   UNL     1       5.902   3.291  12.263  0.00  0.00    +0.000 C 
ATOM     26  C   UNL     1       7.033   4.054  11.553  0.00  0.00    +0.000 C 
ATOM     27  C   UNL     1       7.621   4.971  12.629  0.00  0.00    +0.000 C 
ENDBRANCH  21  23
ENDBRANCH  20  21
ENDBRANCH   7  20
TORSDOF 7
ENDMDL
MODEL 2
REMARK VINA RESULT:      -8.0      4.906      7.438
REMARK  Name = 
REMARK  7 active torsions:
REMARK  status: ('A' for Active; 'I' for Inactive)
REMARK    1  A    between atoms: C_2  and  C_3
REMARK    2  A    between atoms: C_3  and  O_4
REMARK    3  A    between atoms: O_4  and  C_5
REMARK    4  A    between atoms: C_11  and  C_12
REMARK    5  A    between atoms: C_12  and  N_13
REMARK    6  A    between atoms: N_13  and  C_14
REMARK    7  A    between atoms: N_19  and  C_20
REMARK                            x       y       z     vdW  Elec       q    Type
REMARK                         _______ _______ _______ _____ _____    ______ ____
ROOT
ATOM      1  C   UNL     1       2.556   7.075  18.462  0.00  0.00    +0.000 A 
ATOM      2  C   UNL     1       2.278   8.307  17.831  0.00  0.00    +0.000 A 
ATOM      3  C   UNL     1       1.623   9.328  18.520  0.00  0.00    +0.000 A 
ATOM      4  C   UNL     1       1.242   9.145  19.848  0.00  0.00    +0.000 A 
ATOM      5 BR   UNL     1       0.381  10.561  20.797  0.00  0.00    +0.000 Br
ATOM      6  C   UNL     1       1.505   7.932  20.488  0.00  0.00    +0.000 A 
ATOM      7  C   UNL     1       2.150   6.886  19.807  0.00  0.00    +0.000 A 
ENDROOT
BRANCH   1   8
ATOM      8  O   UNL     1       3.240   6.084  17.829  0.00  0.00    +0.000 OA
BRANCH   8   9
ATOM      9  C   UNL     1       4.615   6.015  17.674  0.00  0.00    +0.000 C 
BRANCH   9  11
ATOM     10  O   UNL     1       5.055   6.891  15.554  0.00  0.00    +0.000 OA
ATOM     11  C   UNL     1       5.069   5.885  16.242  0.00  0.00    +0.000 C 
ATOM     12  N   UNL     1       5.503   4.685  15.750  0.00  0.00    +0.000 N 
ATOM     13  H   UNL     1       5.435   3.871  16.380  0.00  0.00    +0.000 HD
BRANCH  12  14
ATOM     14  C   UNL     1       6.042   4.451  14.434  0.00  0.00    +0.000 A 
ATOM     15  C   UNL     1       5.457   3.571  13.489  0.00  0.00    +0.000 A 
ATOM     16  C   UNL     1       6.029   3.391  12.228  0.00  0.00    +0.000 A 
ATOM     17  C   UNL     1       7.189   4.078  11.878  0.00  0.00    +0.000 A 
ATOM     18  C   UNL     1       7.775   4.960  12.786  0.00  0.00    +0.000 A 
ATOM     19  C   UNL     1       7.204   5.152  14.050  0.00  0.00    +0.000 A 
ENDBRANCH  12  14
ENDBRANCH   9  11
ENDBRANCH   8   9
ENDBRANCH   1   8
BRANCH   7  20
ATOM     20  C   UNL     1       2.456   5.599  20.553  0.00  0.00    +0.000 C 
BRANCH  20  21
ATOM     21  N   UNL     1       1.379   4.599  20.456  0.00  0.00    +0.000 NA
ATOM     22  H   UNL     1       0.538   5.018  19.996  0.00  0.00    +0.000 HD
BRANCH  21  23
ATOM     23  C   UNL     1       1.755   3.363  19.754  0.00  0.00    +0.000 C 
ATOM     24  C   UNL     1       1.499   3.418  18.246  0.00  0.00    +0.000 C 
ATOM     25  C   UNL     1       2.277   2.204  17.760  0.00  0.00    +0.000 C 
ATOM     26  C   UNL     1       3.522   2.136  18.661  0.00  0.00    +0.000 C 
ATOM     27  C   UNL     1       3.269   3.174  19.758  0.00  0.00    +0.000 C 
ENDBRANCH  21  23
ENDBRANCH  20  21
ENDBRANCH   7  20
TORSDOF 7
ENDMDL
MODEL 3
REMARK VINA RESULT:      -8.0      1.070      1.556
REMARK  Name = 
REMARK  7 active torsions:
REMARK  status: ('A' for Active; 'I' for Inactive)
REMARK    1  A    between atoms: C_2  and  C_3
REMARK    2  A    between atoms: C_3  and  O_4
REMARK    3  A    between atoms: O_4  and  C_5
REMARK    4  A    between atoms: C_11  and  C_12
REMARK    5  A    between atoms: C_12  and  N_13
REMARK    6  A    between atoms: N_13  and  C_14
REMARK    7  A    between atoms: N_19  and  C_20
REMARK                            x       y       z     vdW  Elec       q    Type
REMARK                         _______ _______ _______ _____ _____    ______ ____
ROOT
ATOM      1  C   UNL     1       5.980   5.729  17.805  0.00  0.00    +0.000 A 
ATOM      2  C   UNL     1       5.829   5.170  19.092  0.00  0.00    +0.000 A 
ATOM      3  C   UNL     1       4.919   4.136  19.317  0.00  0.00    +0.000 A 
ATOM      4  C   UNL     1       4.154   3.635  18.266  0.00  0.00    +0.000 A 
ATOM      5 BR   UNL     1       2.939   2.193  18.573  0.00  0.00    +0.000 Br
ATOM      6  C   UNL     1       4.286   4.178  16.986  0.00  0.00    +0.000 A 
ATOM      7  C   UNL     1       5.186   5.230  16.743  0.00  0.00    +0.000 A 
ENDROOT
BRANCH   1   8
ATOM      8  O   UNL     1       6.897   6.701  17.549  0.00  0.00    +0.000 OA
BRANCH   8   9
ATOM      9  C   UNL     1       7.942   7.073  18.379  0.00  0.00    +0.000 C 
BRANCH   9  11
ATOM     10  O   UNL     1       7.620   9.247  17.586  0.00  0.00    +0.000 OA
ATOM     11  C   UNL     1       8.249   8.549  18.362  0.00  0.00    +0.000 C 
ATOM     12  N   UNL     1       9.184   9.080  19.209  0.00  0.00    +0.000 N 
ATOM     13  H   UNL     1       9.710   8.417  19.797  0.00  0.00    +0.000 HD
BRANCH  12  14
ATOM     14  C   UNL     1       9.504  10.478  19.350  0.00  0.00    +0.000 A 
ATOM     15  C   UNL     1       9.988  11.286  18.290  0.00  0.00    +0.000 A 
ATOM     16  C   UNL     1      10.279  12.636  18.494  0.00  0.00    +0.000 A 
ATOM     17  C   UNL     1      10.094  13.213  19.748  0.00  0.00    +0.000 A 
ATOM     18  C   UNL     1       9.606  12.443  20.802  0.00  0.00    +0.000 A 
ATOM     19  C   UNL     1       9.306  11.089  20.606  0.00  0.00    +0.000 A 
ENDBRANCH  12  14
ENDBRANCH   9  11
ENDBRANCH   8   9
ENDBRANCH   1   8
BRANCH   7  20
ATOM     20  C   UNL     1       5.331   5.762  15.328  0.00  0.00    +0.000 C 
BRANCH  20  21
ATOM     21  N   UNL     1       6.675   5.553  14.762  0.00  0.00    +0.000 NA
ATOM     22  H   UNL     1       7.377   5.446  15.530  0.00  0.00    +0.000 HD
BRANCH  21  23
ATOM     23  C   UNL     1       6.780   4.412  13.841  0.00  0.00    +0.000 C 
ATOM     24  C   UNL     1       5.426   3.925  13.320  0.00  0.00    +0.000 C 
ATOM     25  C   UNL     1       5.850   3.020  12.172  0.00  0.00    +0.000 C 
ATOM     26  C   UNL     1       7.083   3.701  11.555  0.00  0.00    +0.000 C 
ATOM     27  C   UNL     1       7.433   4.831  12.527  0.00  0.00    +0.000 C 
ENDBRANCH  21  23
ENDBRANCH  20  21
ENDBRANCH   7  20
TORSDOF 7
ENDMDL
MODEL 4
REMARK VINA RESULT:      -7.9      1.046      1.202
REMARK  Name = 
REMARK  7 active torsions:
REMARK  status: ('A' for Active; 'I' for Inactive)
REMARK    1  A    between atoms: C_2  and  C_3
REMARK    2  A    between atoms: C_3  and  O_4
REMARK    3  A    between atoms: O_4  and  C_5
REMARK    4  A    between atoms: C_11  and  C_12
REMARK    5  A    between atoms: C_12  and  N_13
REMARK    6  A    between atoms: N_13  and  C_14
REMARK    7  A    between atoms: N_19  and  C_20
REMARK                            x       y       z     vdW  Elec       q    Type
REMARK                         _______ _______ _______ _____ _____    ______ ____
ROOT
ATOM      1  C   UNL     1       5.688   5.924  17.896  0.00  0.00    +0.000 A 
ATOM      2  C   UNL     1       5.522   5.377  19.187  0.00  0.00    +0.000 A 
ATOM      3  C   UNL     1       4.841   4.172  19.367  0.00  0.00    +0.000 A 
ATOM      4  C   UNL     1       4.324   3.489  18.269  0.00  0.00    +0.000 A 
ATOM      5 BR   UNL     1       3.427   1.820  18.518  0.00  0.00    +0.000 Br
ATOM      6  C   UNL     1       4.475   4.016  16.984  0.00  0.00    +0.000 A 
ATOM      7  C   UNL     1       5.144   5.235  16.784  0.00  0.00    +0.000 A 
ENDROOT
BRANCH   1   8
ATOM      8  O   UNL     1       6.394   7.069  17.689  0.00  0.00    +0.000 OA
BRANCH   8   9
ATOM      9  C   UNL     1       7.744   7.249  17.938  0.00  0.00    +0.000 C 
BRANCH   9  11
ATOM     10  O   UNL     1       7.598   9.533  17.468  0.00  0.00    +0.000 OA
ATOM     11  C   UNL     1       8.147   8.686  18.151  0.00  0.00    +0.000 C 
ATOM     12  N   UNL     1       9.078   9.020  19.097  0.00  0.00    +0.000 N 
ATOM     13  H   UNL     1       9.536   8.242  19.596  0.00  0.00    +0.000 HD
BRANCH  12  14
ATOM     14  C   UNL     1       9.483  10.356  19.455  0.00  0.00    +0.000 A 
ATOM     15  C   UNL     1       9.278  10.922  20.739  0.00  0.00    +0.000 A 
ATOM     16  C   UNL     1       9.696  12.225  21.023  0.00  0.00    +0.000 A 
ATOM     17  C   UNL     1      10.326  12.989  20.043  0.00  0.00    +0.000 A 
ATOM     18  C   UNL     1      10.551  12.448  18.778  0.00  0.00    +0.000 A 
ATOM     19  C   UNL     1      10.141  11.141  18.487  0.00  0.00    +0.000 A 
ENDBRANCH  12  14
ENDBRANCH   9  11
ENDBRANCH   8   9
ENDBRANCH   1   8
BRANCH   7  20
ATOM     20  C   UNL     1       5.325   5.751  15.367  0.00  0.00    +0.000 C 
BRANCH  20  21
ATOM     21  N   UNL     1       6.704   5.610  14.867  0.00  0.00    +0.000 NA
ATOM     22  H   UNL     1       7.369   5.504  15.667  0.00  0.00    +0.000 HD
BRANCH  21  23
ATOM     23  C   UNL     1       6.899   4.503  13.919  0.00  0.00    +0.000 C 
ATOM     24  C   UNL     1       5.588   3.898  13.413  0.00  0.00    +0.000 C 
ATOM     25  C   UNL     1       6.073   3.061  12.238  0.00  0.00    +0.000 C 
ATOM     26  C   UNL     1       7.221   3.871  11.613  0.00  0.00    +0.000 C 
ATOM     27  C   UNL     1       7.481   5.010  12.603  0.00  0.00    +0.000 C 
ENDBRANCH  21  23
ENDBRANCH  20  21
ENDBRANCH   7  20
TORSDOF 7
ENDMDL
MODEL 5
REMARK VINA RESULT:      -7.8      2.235      4.473
REMARK  Name = 
REMARK  7 active torsions:
REMARK  status: ('A' for Active; 'I' for Inactive)
REMARK    1  A    between atoms: C_2  and  C_3
REMARK    2  A    between atoms: C_3  and  O_4
REMARK    3  A    between atoms: O_4  and  C_5
REMARK    4  A    between atoms: C_11  and  C_12
REMARK    5  A    between atoms: C_12  and  N_13
REMARK    6  A    between atoms: N_13  and  C_14
REMARK    7  A    between atoms: N_19  and  C_20
REMARK                            x       y       z     vdW  Elec       q    Type
REMARK                         _______ _______ _______ _____ _____    ______ ____
ROOT
ATOM      1  C   UNL     1       6.379   5.659  16.757  0.00  0.00    +0.000 A 
ATOM      2  C   UNL     1       7.402   5.379  15.827  0.00  0.00    +0.000 A 
ATOM      3  C   UNL     1       7.120   4.701  14.641  0.00  0.00    +0.000 A 
ATOM      4  C   UNL     1       5.817   4.300  14.356  0.00  0.00    +0.000 A 
ATOM      5 BR   UNL     1       5.430   3.407  12.711  0.00  0.00    +0.000 Br
ATOM      6  C   UNL     1       4.791   4.565  15.266  0.00  0.00    +0.000 A 
ATOM      7  C   UNL     1       5.057   5.233  16.473  0.00  0.00    +0.000 A 
ENDROOT
BRANCH   1   8
ATOM      8  O   UNL     1       6.618   6.365  17.896  0.00  0.00    +0.000 OA
BRANCH   8   9
ATOM      9  C   UNL     1       7.863   6.750  18.367  0.00  0.00    +0.000 C 
BRANCH   9  11
ATOM     10  O   UNL     1       7.504   8.862  17.436  0.00  0.00    +0.000 OA
ATOM     11  C   UNL     1       8.129   8.230  18.270  0.00  0.00    +0.000 C 
ATOM     12  N   UNL     1       9.024   8.838  19.108  0.00  0.00    +0.000 N 
ATOM     13  H   UNL     1       9.551   8.227  19.750  0.00  0.00    +0.000 HD
BRANCH  12  14
ATOM     14  C   UNL     1       9.301  10.251  19.174  0.00  0.00    +0.000 A 
ATOM     15  C   UNL     1       9.278  11.002  20.377  0.00  0.00    +0.000 A 
ATOM     16  C   UNL     1       9.558  12.371  20.372  0.00  0.00    +0.000 A 
ATOM     17  C   UNL     1       9.868  13.019  19.179  0.00  0.00    +0.000 A 
ATOM     18  C   UNL     1       9.911  12.299  17.986  0.00  0.00    +0.000 A 
ATOM     19  C   UNL     1       9.638  10.926  17.982  0.00  0.00    +0.000 A 
ENDBRANCH  12  14
ENDBRANCH   9  11
ENDBRANCH   8   9
ENDBRANCH   1   8
BRANCH   7  20
ATOM     20  C   UNL     1       3.906   5.540  17.414  0.00  0.00    +0.000 C 
BRANCH  20  21
ATOM     21  N   UNL     1       4.106   5.009  18.773  0.00  0.00    +0.000 NA
ATOM     22  H   UNL     1       4.095   5.789  19.470  0.00  0.00    +0.000 HD
BRANCH  21  23
ATOM     23  C   UNL     1       3.135   3.981  19.175  0.00  0.00    +0.000 C 
ATOM     24  C   UNL     1       2.295   4.380  20.391  0.00  0.00    +0.000 C 
ATOM     25  C   UNL     1       1.193   3.332  20.356  0.00  0.00    +0.000 C 
ATOM     26  C   UNL     1       0.916   3.087  18.863  0.00  0.00    +0.000 C 
ATOM     27  C   UNL     1       2.033   3.834  18.130  0.00  0.00    +0.000 C 
ENDBRANCH  21  23
ENDBRANCH  20  21
ENDBRANCH   7  20
TORSDOF 7
ENDMDL
MODEL 6
REMARK VINA RESULT:      -7.8      2.279      4.408
REMARK  Name = 
REMARK  7 active torsions:
REMARK  status: ('A' for Active; 'I' for Inactive)
REMARK    1  A    between atoms: C_2  and  C_3
REMARK    2  A    between atoms: C_3  and  O_4
REMARK    3  A    between atoms: O_4  and  C_5
REMARK    4  A    between atoms: C_11  and  C_12
REMARK    5  A    between atoms: C_12  and  N_13
REMARK    6  A    between atoms: N_13  and  C_14
REMARK    7  A    between atoms: N_19  and  C_20
REMARK                            x       y       z     vdW  Elec       q    Type
REMARK                         _______ _______ _______ _____ _____    ______ ____
ROOT
ATOM      1  C   UNL     1       6.844   5.485  16.019  0.00  0.00    +0.000 A 
ATOM      2  C   UNL     1       7.580   5.547  14.816  0.00  0.00    +0.000 A 
ATOM      3  C   UNL     1       7.178   4.815  13.698  0.00  0.00    +0.000 A 
ATOM      4  C   UNL     1       6.035   4.020  13.754  0.00  0.00    +0.000 A 
ATOM      5 BR   UNL     1       5.469   3.052  12.208  0.00  0.00    +0.000 Br
ATOM      6  C   UNL     1       5.296   3.944  14.937  0.00  0.00    +0.000 A 
ATOM      7  C   UNL     1       5.692   4.661  16.078  0.00  0.00    +0.000 A 
ENDROOT
BRANCH   1   8
ATOM      8  O   UNL     1       7.184   6.230  17.106  0.00  0.00    +0.000 OA
BRANCH   8   9
ATOM      9  C   UNL     1       6.947   7.584  17.271  0.00  0.00    +0.000 C 
BRANCH   9  11
ATOM     10  O   UNL     1       8.681   7.632  18.836  0.00  0.00    +0.000 OA
ATOM     11  C   UNL     1       7.997   8.301  18.082  0.00  0.00    +0.000 C 
ATOM     12  N   UNL     1       8.184   9.650  17.951  0.00  0.00    +0.000 N 
ATOM     13  H   UNL     1       7.529  10.154  17.332  0.00  0.00    +0.000 HD
BRANCH  12  14
ATOM     14  C   UNL     1       9.205  10.434  18.600  0.00  0.00    +0.000 A 
ATOM     15  C   UNL     1       9.244  10.673  19.997  0.00  0.00    +0.000 A 
ATOM     16  C   UNL     1      10.264  11.441  20.563  0.00  0.00    +0.000 A 
ATOM     17  C   UNL     1      11.264  11.982  19.760  0.00  0.00    +0.000 A 
ATOM     18  C   UNL     1      11.255  11.749  18.385  0.00  0.00    +0.000 A 
ATOM     19  C   UNL     1      10.240  10.975  17.809  0.00  0.00    +0.000 A 
ENDBRANCH  12  14
ENDBRANCH   9  11
ENDBRANCH   8   9
ENDBRANCH   1   8
BRANCH   7  20
ATOM     20  C   UNL     1       4.836   4.585  17.330  0.00  0.00    +0.000 C 
BRANCH  20  21
ATOM     21  N   UNL     1       4.553   3.205  17.760  0.00  0.00    +0.000 NA
ATOM     22  H   UNL     1       5.380   2.807  18.262  0.00  0.00    +0.000 HD
BRANCH  21  23
ATOM     23  C   UNL     1       3.355   3.061  18.600  0.00  0.00    +0.000 C 
ATOM     24  C   UNL     1       2.558   4.359  18.751  0.00  0.00    +0.000 C 
ATOM     25  C   UNL     1       1.253   3.848  19.342  0.00  0.00    +0.000 C 
ATOM     26  C   UNL     1       1.013   2.485  18.671  0.00  0.00    +0.000 C 
ATOM     27  C   UNL     1       2.309   2.189  17.912  0.00  0.00    +0.000 C 
ENDBRANCH  21  23
ENDBRANCH  20  21
ENDBRANCH   7  20
TORSDOF 7
ENDMDL
MODEL 7
REMARK VINA RESULT:      -7.8      2.284      4.592
REMARK  Name = 
REMARK  7 active torsions:
REMARK  status: ('A' for Active; 'I' for Inactive)
REMARK    1  A    between atoms: C_2  and  C_3
REMARK    2  A    between atoms: C_3  and  O_4
REMARK    3  A    between atoms: O_4  and  C_5
REMARK    4  A    between atoms: C_11  and  C_12
REMARK    5  A    between atoms: C_12  and  N_13
REMARK    6  A    between atoms: N_13  and  C_14
REMARK    7  A    between atoms: N_19  and  C_20
REMARK                            x       y       z     vdW  Elec       q    Type
REMARK                         _______ _______ _______ _____ _____    ______ ____
ROOT
ATOM      1  C   UNL     1       6.464   5.423  16.543  0.00  0.00    +0.000 A 
ATOM      2  C   UNL     1       7.269   5.704  15.418  0.00  0.00    +0.000 A 
ATOM      3  C   UNL     1       7.060   5.040  14.209  0.00  0.00    +0.000 A 
ATOM      4  C   UNL     1       6.042   4.096  14.095  0.00  0.00    +0.000 A 
ATOM      5 BR   UNL     1       5.735   3.219  12.425  0.00  0.00    +0.000 Br
ATOM      6  C   UNL     1       5.237   3.802  15.198  0.00  0.00    +0.000 A 
ATOM      7  C   UNL     1       5.442   4.448  16.428  0.00  0.00    +0.000 A 
ENDROOT
BRANCH   1   8
ATOM      8  O   UNL     1       6.614   6.094  17.717  0.00  0.00    +0.000 OA
BRANCH   8   9
ATOM      9  C   UNL     1       7.814   6.507  18.270  0.00  0.00    +0.000 C 
BRANCH   9  11
ATOM     10  O   UNL     1       7.462   8.607  17.308  0.00  0.00    +0.000 OA
ATOM     11  C   UNL     1       8.062   7.991  18.172  0.00  0.00    +0.000 C 
ATOM     12  N   UNL     1       8.911   8.620  19.041  0.00  0.00    +0.000 N 
ATOM     13  H   UNL     1       9.421   8.021  19.709  0.00  0.00    +0.000 HD
BRANCH  12  14
ATOM     14  C   UNL     1       9.164  10.037  19.107  0.00  0.00    +0.000 A 
ATOM     15  C   UNL     1       9.337  10.859  17.964  0.00  0.00    +0.000 A 
ATOM     16  C   UNL     1       9.578  12.228  18.097  0.00  0.00    +0.000 A 
ATOM     17  C   UNL     1       9.650  12.809  19.361  0.00  0.00    +0.000 A 
ATOM     18  C   UNL     1       9.470  12.024  20.498  0.00  0.00    +0.000 A 
ATOM     19  C   UNL     1       9.221  10.651  20.375  0.00  0.00    +0.000 A 
ENDBRANCH  12  14
ENDBRANCH   9  11
ENDBRANCH   8   9
ENDBRANCH   1   8
BRANCH   7  20
ATOM     20  C   UNL     1       4.516   4.131  17.590  0.00  0.00    +0.000 C 
BRANCH  20  21
ATOM     21  N   UNL     1       3.456   5.136  17.781  0.00  0.00    +0.000 NA
ATOM     22  H   UNL     1       3.316   5.685  16.901  0.00  0.00    +0.000 HD
BRANCH  21  23
ATOM     23  C   UNL     1       2.166   4.586  18.223  0.00  0.00    +0.000 C 
ATOM     24  C   UNL     1       2.031   3.081  17.979  0.00  0.00    +0.000 C 
ATOM     25  C   UNL     1       0.808   2.745  18.819  0.00  0.00    +0.000 C 
ATOM     26  C   UNL     1       0.908   3.651  20.058  0.00  0.00    +0.000 C 
ATOM     27  C   UNL     1       2.054   4.617  19.745  0.00  0.00    +0.000 C 
ENDBRANCH  21  23
ENDBRANCH  20  21
ENDBRANCH   7  20
TORSDOF 7
ENDMDL
MODEL 8
REMARK VINA RESULT:      -7.8      5.178      7.496
REMARK  Name = 
REMARK  7 active torsions:
REMARK  status: ('A' for Active; 'I' for Inactive)
REMARK    1  A    between atoms: C_2  and  C_3
REMARK    2  A    between atoms: C_3  and  O_4
REMARK    3  A    between atoms: O_4  and  C_5
REMARK    4  A    between atoms: C_11  and  C_12
REMARK    5  A    between atoms: C_12  and  N_13
REMARK    6  A    between atoms: N_13  and  C_14
REMARK    7  A    between atoms: N_19  and  C_20
REMARK                            x       y       z     vdW  Elec       q    Type
REMARK                         _______ _______ _______ _____ _____    ______ ____
ROOT
ATOM      1  C   UNL     1       3.451   5.859  17.846  0.00  0.00    +0.000 A 
ATOM      2  C   UNL     1       4.517   6.750  17.595  0.00  0.00    +0.000 A 
ATOM      3  C   UNL     1       5.537   6.407  16.707  0.00  0.00    +0.000 A 
ATOM      4  C   UNL     1       5.509   5.180  16.048  0.00  0.00    +0.000 A 
ATOM      5 BR   UNL     1       6.888   4.733  14.804  0.00  0.00    +0.000 Br
ATOM      6  C   UNL     1       4.465   4.284  16.286  0.00  0.00    +0.000 A 
ATOM      7  C   UNL     1       3.436   4.604  17.188  0.00  0.00    +0.000 A 
ENDROOT
BRANCH   1   8
ATOM      8  O   UNL     1       2.417   6.192  18.666  0.00  0.00    +0.000 OA
BRANCH   8   9
ATOM      9  C   UNL     1       2.505   6.963  19.813  0.00  0.00    +0.000 C 
BRANCH   9  11
ATOM     10  O   UNL     1       1.018   8.444  20.841  0.00  0.00    +0.000 OA
ATOM     11  C   UNL     1       1.612   8.178  19.810  0.00  0.00    +0.000 C 
ATOM     12  N   UNL     1       1.497   8.961  18.694  0.00  0.00    +0.000 N 
ATOM     13  H   UNL     1       1.988   8.639  17.846  0.00  0.00    +0.000 HD
BRANCH  12  14
ATOM     14  C   UNL     1       0.749  10.189  18.591  0.00  0.00    +0.000 A 
ATOM     15  C   UNL     1      -0.641  10.243  18.312  0.00  0.00    +0.000 A 
ATOM     16  C   UNL     1      -1.307  11.468  18.227  0.00  0.00    +0.000 A 
ATOM     17  C   UNL     1      -0.612  12.660  18.419  0.00  0.00    +0.000 A 
ATOM     18  C   UNL     1       0.752  12.631  18.708  0.00  0.00    +0.000 A 
ATOM     19  C   UNL     1       1.426  11.408  18.802  0.00  0.00    +0.000 A 
ENDBRANCH  12  14
ENDBRANCH   9  11
ENDBRANCH   8   9
ENDBRANCH   1   8
BRANCH   7  20
ATOM     20  C   UNL     1       2.296   3.620  17.385  0.00  0.00    +0.000 C 
BRANCH  20  21
ATOM     21  N   UNL     1       2.729   2.333  17.955  0.00  0.00    +0.000 NA
ATOM     22  H   UNL     1       3.761   2.211  17.830  0.00  0.00    +0.000 HD
BRANCH  21  23
ATOM     23  C   UNL     1       2.383   2.146  19.372  0.00  0.00    +0.000 C 
ATOM     24  C   UNL     1       3.340   2.858  20.331  0.00  0.00    +0.000 C 
ATOM     25  C   UNL     1       2.567   2.789  21.639  0.00  0.00    +0.000 C 
ATOM     26  C   UNL     1       1.089   2.948  21.243  0.00  0.00    +0.000 C 
ATOM     27  C   UNL     1       1.082   2.865  19.714  0.00  0.00    +0.000 C 
ENDBRANCH  21  23
ENDBRANCH  20  21
ENDBRANCH   7  20
TORSDOF 7
ENDMDL
MODEL 9
REMARK VINA RESULT:      -7.8      3.746      7.546
REMARK  Name = 
REMARK  7 active torsions:
REMARK  status: ('A' for Active; 'I' for Inactive)
REMARK    1  A    between atoms: C_2  and  C_3
REMARK    2  A    between atoms: C_3  and  O_4
REMARK    3  A    between atoms: O_4  and  C_5
REMARK    4  A    between atoms: C_11  and  C_12
REMARK    5  A    between atoms: C_12  and  N_13
REMARK    6  A    between atoms: N_13  and  C_14
REMARK    7  A    between atoms: N_19  and  C_20
REMARK                            x       y       z     vdW  Elec       q    Type
REMARK                         _______ _______ _______ _____ _____    ______ ____
ROOT
ATOM      1  C   UNL     1       5.143   5.449  18.683  0.00  0.00    +0.000 A 
ATOM      2  C   UNL     1       5.281   4.139  19.190  0.00  0.00    +0.000 A 
ATOM      3  C   UNL     1       4.210   3.246  19.156  0.00  0.00    +0.000 A 
ATOM      4  C   UNL     1       2.989   3.637  18.610  0.00  0.00    +0.000 A 
ATOM      5 BR   UNL     1       1.538   2.396  18.531  0.00  0.00    +0.000 Br
ATOM      6  C   UNL     1       2.832   4.930  18.107  0.00  0.00    +0.000 A 
ATOM      7  C   UNL     1       3.894   5.849  18.146  0.00  0.00    +0.000 A 
ENDROOT
BRANCH   1   8
ATOM      8  O   UNL     1       6.188   6.321  18.656  0.00  0.00    +0.000 OA
BRANCH   8   9
ATOM      9  C   UNL     1       7.454   6.059  18.161  0.00  0.00    +0.000 C 
BRANCH   9  11
ATOM     10  O   UNL     1       7.968   4.146  16.922  0.00  0.00    +0.000 OA
ATOM     11  C   UNL     1       7.464   5.255  16.885  0.00  0.00    +0.000 C 
ATOM     12  N   UNL     1       6.902   5.750  15.740  0.00  0.00    +0.000 N 
ATOM     13  H   UNL     1       6.544   6.716  15.776  0.00  0.00    +0.000 HD
BRANCH  12  14
ATOM     14  C   UNL     1       6.770   5.049  14.487  0.00  0.00    +0.000 A 
ATOM     15  C   UNL     1       7.675   5.195  13.405  0.00  0.00    +0.000 A 
ATOM     16  C   UNL     1       7.491   4.485  12.216  0.00  0.00    +0.000 A 
ATOM     17  C   UNL     1       6.411   3.617  12.078  0.00  0.00    +0.000 A 
ATOM     18  C   UNL     1       5.516   3.446  13.133  0.00  0.00    +0.000 A 
ATOM     19  C   UNL     1       5.696   4.149  14.331  0.00  0.00    +0.000 A 
ENDBRANCH  12  14
ENDBRANCH   9  11
ENDBRANCH   8   9
ENDBRANCH   1   8
BRANCH   7  20
ATOM     20  C   UNL     1       3.695   7.231  17.548  0.00  0.00    +0.000 C 
BRANCH  20  21
ATOM     21  N   UNL     1       2.297   7.692  17.599  0.00  0.00    +0.000 NA
ATOM     22  H   UNL     1       1.657   6.885  17.786  0.00  0.00    +0.000 HD
BRANCH  21  23
ATOM     23  C   UNL     1       2.041   8.756  18.581  0.00  0.00    +0.000 C 
ATOM     24  C   UNL     1       0.819   9.613  18.244  0.00  0.00    +0.000 C 
ATOM     25  C   UNL     1       0.600  10.360  19.551  0.00  0.00    +0.000 C 
ATOM     26  C   UNL     1       0.964   9.353  20.656  0.00  0.00    +0.000 C 
ATOM     27  C   UNL     1       1.591   8.168  19.915  0.00  0.00    +0.000 C 
ENDBRANCH  21  23
ENDBRANCH  20  21
ENDBRANCH   7  20
TORSDOF 7
ENDMDL
