MODEL 1
REMARK VINA RESULT:      -8.3      0.000      0.000
REMARK  Name = 
REMARK  6 active torsions:
REMARK  status: ('A' for Active; 'I' for Inactive)
REMARK    1  A    between atoms: C_1  and  C_2
REMARK    2  A    between atoms: C_5  and  C_6
REMARK    3  A    between atoms: C_6  and  O_7
REMARK    4  A    between atoms: O_7  and  C_8
REMARK    5  A    between atoms: C_12  and  C_13
REMARK    6  A    between atoms: C_14  and  C_15
REMARK                            x       y       z     vdW  Elec       q    Type
REMARK                         _______ _______ _______ _____ _____    ______ ____
ROOT
ATOM      1  C   UNL     1       5.055   5.865  16.527  0.00  0.00    +0.000 A 
ATOM      2  C   UNL     1       4.584   6.908  17.321  0.00  0.00    +0.000 A 
ATOM      3  C   UNL     1       3.649   6.666  18.342  0.00  0.00    +0.000 A 
ATOM      4  C   UNL     1       3.160   5.375  18.584  0.00  0.00    +0.000 A 
ATOM      5  C   UNL     1       2.220   5.010  19.663  0.00  0.00    +0.000 A 
ATOM      6  C   UNL     1       1.617   6.076  20.541  0.00  0.00    +0.000 C 
ATOM      7  C   UNL     1       1.923   3.705  19.851  0.00  0.00    +0.000 A 
ATOM      8  C   UNL     1       1.036   3.164  20.941  0.00  0.00    +0.000 C 
ATOM      9  C   UNL     1       2.462   2.632  18.974  0.00  0.00    +0.000 A 
ATOM     10  O   UNL     1       2.212   1.448  19.168  0.00  0.00    +0.000 OA
ATOM     11  O   UNL     1       3.238   3.027  17.904  0.00  0.00    +0.000 OA
ATOM     12  C   UNL     1       3.627   4.364  17.745  0.00  0.00    +0.000 A 
ATOM     13  C   UNL     1       4.541   4.591  16.715  0.00  0.00    +0.000 A 
ENDROOT
BRANCH   1  14
ATOM     14  O   UNL     1       6.017   6.192  15.611  0.00  0.00    +0.000 OA
BRANCH  14  15
ATOM     15  C   UNL     1       7.030   5.193  15.430  0.00  0.00    +0.000 C 
BRANCH  15  20
ATOM     16  C   UNL     1       5.710   2.474  11.667  0.00  0.00    +0.000 C 
ATOM     17  C   UNL     1       6.423   3.551  12.369  0.00  0.00    +0.000 A 
ATOM     18  N   UNL     1       7.266   4.445  11.903  0.00  0.00    +0.000 NA
ATOM     19  N   UNL     1       7.633   5.226  12.977  0.00  0.00    +0.000 NA
ATOM     20  C   UNL     1       6.983   4.754  14.020  0.00  0.00    +0.000 A 
ATOM     21  O   UNL     1       6.200   3.672  13.713  0.00  0.00    +0.000 OA
ENDBRANCH  15  20
ENDBRANCH  14  15
ENDBRANCH   1  14
TORSDOF 3
ENDMDL
MODEL 2
REMARK VINA RESULT:      -7.9      1.174      1.174
REMARK  Name = 
REMARK  6 active torsions:
REMARK  status: ('A' for Active; 'I' for Inactive)
REMARK    1  A    between atoms: C_1  and  C_2
REMARK    2  A    between atoms: C_5  and  C_6
REMARK    3  A    between atoms: C_6  and  O_7
REMARK    4  A    between atoms: O_7  and  C_8
REMARK    5  A    between atoms: C_12  and  C_13
REMARK    6  A    between atoms: C_14  and  C_15
REMARK                            x       y       z     vdW  Elec       q    Type
REMARK                         _______ _______ _______ _____ _____    ______ ____
ROOT
ATOM      1  C   UNL     1       5.314   5.665  16.875  0.00  0.00    +0.000 A 
ATOM      2  C   UNL     1       4.204   6.470  17.117  0.00  0.00    +0.000 A 
ATOM      3  C   UNL     1       3.281   6.135  18.122  0.00  0.00    +0.000 A 
ATOM      4  C   UNL     1       3.447   4.982  18.902  0.00  0.00    +0.000 A 
ATOM      5  C   UNL     1       2.564   4.573  20.013  0.00  0.00    +0.000 A 
ATOM      6  C   UNL     1       1.311   5.352  20.318  0.00  0.00    +0.000 C 
ATOM      7  C   UNL     1       2.911   3.496  20.755  0.00  0.00    +0.000 A 
ATOM      8  C   UNL     1       2.157   2.989  21.955  0.00  0.00    +0.000 C 
ATOM      9  C   UNL     1       4.115   2.677  20.452  0.00  0.00    +0.000 A 
ATOM     10  O   UNL     1       4.439   1.720  21.145  0.00  0.00    +0.000 OA
ATOM     11  O   UNL     1       4.844   3.021  19.332  0.00  0.00    +0.000 OA
ATOM     12  C   UNL     1       4.550   4.183  18.605  0.00  0.00    +0.000 A 
ATOM     13  C   UNL     1       5.466   4.491  17.598  0.00  0.00    +0.000 A 
ENDROOT
BRANCH   1  14
ATOM     14  O   UNL     1       6.191   6.116  15.927  0.00  0.00    +0.000 OA
BRANCH  14  15
ATOM     15  C   UNL     1       7.252   5.204  15.614  0.00  0.00    +0.000 C 
BRANCH  15  20
ATOM     16  C   UNL     1       5.622   2.691  11.828  0.00  0.00    +0.000 C 
ATOM     17  C   UNL     1       6.417   3.710  12.531  0.00  0.00    +0.000 A 
ATOM     18  N   UNL     1       7.274   4.585  12.054  0.00  0.00    +0.000 NA
ATOM     19  N   UNL     1       7.730   5.307  13.135  0.00  0.00    +0.000 NA
ATOM     20  C   UNL     1       7.113   4.822  14.193  0.00  0.00    +0.000 A 
ATOM     21  O   UNL     1       6.269   3.787  13.888  0.00  0.00    +0.000 OA
ENDBRANCH  15  20
ENDBRANCH  14  15
ENDBRANCH   1  14
TORSDOF 3
ENDMDL
MODEL 3
REMARK VINA RESULT:      -7.9      4.344      5.828
REMARK  Name = 
REMARK  6 active torsions:
REMARK  status: ('A' for Active; 'I' for Inactive)
REMARK    1  A    between atoms: C_1  and  C_2
REMARK    2  A    between atoms: C_5  and  C_6
REMARK    3  A    between atoms: C_6  and  O_7
REMARK    4  A    between atoms: O_7  and  C_8
REMARK    5  A    between atoms: C_12  and  C_13
REMARK    6  A    between atoms: C_14  and  C_15
REMARK                            x       y       z     vdW  Elec       q    Type
REMARK                         _______ _______ _______ _____ _____    ______ ____
ROOT
ATOM      1  C   UNL     1       2.585   6.989  18.892  0.00  0.00    +0.000 A 
ATOM      2  C   UNL     1       2.273   7.951  17.934  0.00  0.00    +0.000 A 
ATOM      3  C   UNL     1       1.559   9.109  18.287  0.00  0.00    +0.000 A 
ATOM      4  C   UNL     1       1.135   9.324  19.606  0.00  0.00    +0.000 A 
ATOM      5  C   UNL     1       0.428  10.528  20.086  0.00  0.00    +0.000 A 
ATOM      6  C   UNL     1       0.003  11.600  19.116  0.00  0.00    +0.000 C 
ATOM      7  C   UNL     1       0.182  10.652  21.410  0.00  0.00    +0.000 A 
ATOM      8  C   UNL     1      -0.469  11.841  22.065  0.00  0.00    +0.000 C 
ATOM      9  C   UNL     1       0.546   9.593  22.388  0.00  0.00    +0.000 A 
ATOM     10  O   UNL     1       0.346   9.724  23.590  0.00  0.00    +0.000 OA
ATOM     11  O   UNL     1       1.093   8.432  21.883  0.00  0.00    +0.000 OA
ATOM     12  C   UNL     1       1.435   8.322  20.528  0.00  0.00    +0.000 A 
ATOM     13  C   UNL     1       2.127   7.158  20.190  0.00  0.00    +0.000 A 
ENDROOT
BRANCH   1  14
ATOM     14  O   UNL     1       3.346   5.937  18.463  0.00  0.00    +0.000 OA
BRANCH  14  15
ATOM     15  C   UNL     1       4.290   5.453  19.428  0.00  0.00    +0.000 C 
BRANCH  15  20
ATOM     16  C   UNL     1       7.150   4.680  15.617  0.00  0.00    +0.000 C 
ATOM     17  C   UNL     1       6.790   4.756  17.041  0.00  0.00    +0.000 A 
ATOM     18  N   UNL     1       7.520   4.513  18.107  0.00  0.00    +0.000 NA
ATOM     19  N   UNL     1       6.704   4.744  19.193  0.00  0.00    +0.000 NA
ATOM     20  C   UNL     1       5.537   5.116  18.709  0.00  0.00    +0.000 A 
ATOM     21  O   UNL     1       5.510   5.132  17.339  0.00  0.00    +0.000 OA
ENDBRANCH  15  20
ENDBRANCH  14  15
ENDBRANCH   1  14
TORSDOF 3
ENDMDL
MODEL 4
REMARK VINA RESULT:      -7.8      4.852      6.487
REMARK  Name = 
REMARK  6 active torsions:
REMARK  status: ('A' for Active; 'I' for Inactive)
REMARK    1  A    between atoms: C_1  and  C_2
REMARK    2  A    between atoms: C_5  and  C_6
REMARK    3  A    between atoms: C_6  and  O_7
REMARK    4  A    between atoms: O_7  and  C_8
REMARK    5  A    between atoms: C_12  and  C_13
REMARK    6  A    between atoms: C_14  and  C_15
REMARK                            x       y       z     vdW  Elec       q    Type
REMARK                         _______ _______ _______ _____ _____    ______ ____
ROOT
ATOM      1  C   UNL     1       2.220   8.011  18.557  0.00  0.00    +0.000 A 
ATOM      2  C   UNL     1       1.528   8.967  17.816  0.00  0.00    +0.000 A 
ATOM      3  C   UNL     1       0.652   9.866  18.447  0.00  0.00    +0.000 A 
ATOM      4  C   UNL     1       0.442   9.823  19.832  0.00  0.00    +0.000 A 
ATOM      5  C   UNL     1      -0.415  10.754  20.592  0.00  0.00    +0.000 A 
ATOM      6  C   UNL     1      -1.241  11.789  19.873  0.00  0.00    +0.000 C 
ATOM      7  C   UNL     1      -0.433  10.666  21.941  0.00  0.00    +0.000 A 
ATOM      8  C   UNL     1      -1.201  11.577  22.861  0.00  0.00    +0.000 C 
ATOM      9  C   UNL     1       0.333   9.627  22.680  0.00  0.00    +0.000 A 
ATOM     10  O   UNL     1       0.336   9.571  23.904  0.00  0.00    +0.000 OA
ATOM     11  O   UNL     1       1.023   8.700  21.926  0.00  0.00    +0.000 OA
ATOM     12  C   UNL     1       1.124   8.829  20.534  0.00  0.00    +0.000 A 
ATOM     13  C   UNL     1       1.984   7.917  19.921  0.00  0.00    +0.000 A 
ENDROOT
BRANCH   1  14
ATOM     14  O   UNL     1       3.104   7.233  17.863  0.00  0.00    +0.000 OA
BRANCH  14  15
ATOM     15  C   UNL     1       2.954   5.824  18.078  0.00  0.00    +0.000 C 
BRANCH  15  20
ATOM     16  C   UNL     1       7.719   5.818  18.854  0.00  0.00    +0.000 C 
ATOM     17  C   UNL     1       6.350   5.280  18.859  0.00  0.00    +0.000 A 
ATOM     18  N   UNL     1       5.904   4.117  19.280  0.00  0.00    +0.000 NA
ATOM     19  N   UNL     1       4.543   4.126  19.067  0.00  0.00    +0.000 NA
ATOM     20  C   UNL     1       4.257   5.297  18.535  0.00  0.00    +0.000 A 
ATOM     21  O   UNL     1       5.364   6.084  18.357  0.00  0.00    +0.000 OA
ENDBRANCH  15  20
ENDBRANCH  14  15
ENDBRANCH   1  14
TORSDOF 3
ENDMDL
MODEL 5
REMARK VINA RESULT:      -7.7      4.692      6.567
REMARK  Name = 
REMARK  6 active torsions:
REMARK  status: ('A' for Active; 'I' for Inactive)
REMARK    1  A    between atoms: C_1  and  C_2
REMARK    2  A    between atoms: C_5  and  C_6
REMARK    3  A    between atoms: C_6  and  O_7
REMARK    4  A    between atoms: O_7  and  C_8
REMARK    5  A    between atoms: C_12  and  C_13
REMARK    6  A    between atoms: C_14  and  C_15
REMARK                            x       y       z     vdW  Elec       q    Type
REMARK                         _______ _______ _______ _____ _____    ______ ____
ROOT
ATOM      1  C   UNL     1       2.294   7.899  18.585  0.00  0.00    +0.000 A 
ATOM      2  C   UNL     1       1.621   8.848  17.819  0.00  0.00    +0.000 A 
ATOM      3  C   UNL     1       0.745   9.766  18.422  0.00  0.00    +0.000 A 
ATOM      4  C   UNL     1       0.516   9.748  19.804  0.00  0.00    +0.000 A 
ATOM      5  C   UNL     1      -0.344  10.699  20.537  0.00  0.00    +0.000 A 
ATOM      6  C   UNL     1      -1.151  11.729  19.789  0.00  0.00    +0.000 C 
ATOM      7  C   UNL     1      -0.380  10.634  21.887  0.00  0.00    +0.000 A 
ATOM      8  C   UNL     1      -1.152  11.568  22.780  0.00  0.00    +0.000 C 
ATOM      9  C   UNL     1       0.366   9.601  22.653  0.00  0.00    +0.000 A 
ATOM     10  O   UNL     1       0.352   9.566  23.878  0.00  0.00    +0.000 OA
ATOM     11  O   UNL     1       1.058   8.656  21.925  0.00  0.00    +0.000 OA
ATOM     12  C   UNL     1       1.179   8.760  20.532  0.00  0.00    +0.000 A 
ATOM     13  C   UNL     1       2.039   7.830  19.947  0.00  0.00    +0.000 A 
ENDROOT
BRANCH   1  14
ATOM     14  O   UNL     1       3.181   7.102  17.916  0.00  0.00    +0.000 OA
BRANCH  14  15
ATOM     15  C   UNL     1       3.698   6.009  18.686  0.00  0.00    +0.000 C 
BRANCH  15  20
ATOM     16  C   UNL     1       0.620   2.296  18.882  0.00  0.00    +0.000 C 
ATOM     17  C   UNL     1       1.689   3.134  18.319  0.00  0.00    +0.000 A 
ATOM     18  N   UNL     1       2.376   2.988  17.208  0.00  0.00    +0.000 NA
ATOM     19  N   UNL     1       3.247   4.055  17.150  0.00  0.00    +0.000 NA
ATOM     20  C   UNL     1       3.023   4.776  18.229  0.00  0.00    +0.000 A 
ATOM     21  O   UNL     1       2.052   4.242  19.034  0.00  0.00    +0.000 OA
ENDBRANCH  15  20
ENDBRANCH  14  15
ENDBRANCH   1  14
TORSDOF 3
ENDMDL
MODEL 6
REMARK VINA RESULT:      -7.7      4.980      7.101
REMARK  Name = 
REMARK  6 active torsions:
REMARK  status: ('A' for Active; 'I' for Inactive)
REMARK    1  A    between atoms: C_1  and  C_2
REMARK    2  A    between atoms: C_5  and  C_6
REMARK    3  A    between atoms: C_6  and  O_7
REMARK    4  A    between atoms: O_7  and  C_8
REMARK    5  A    between atoms: C_12  and  C_13
REMARK    6  A    between atoms: C_14  and  C_15
REMARK                            x       y       z     vdW  Elec       q    Type
REMARK                         _______ _______ _______ _____ _____    ______ ____
ROOT
ATOM      1  C   UNL     1       2.527   7.216  19.069  0.00  0.00    +0.000 A 
ATOM      2  C   UNL     1       2.196   8.106  18.050  0.00  0.00    +0.000 A 
ATOM      3  C   UNL     1       1.406   9.237  18.315  0.00  0.00    +0.000 A 
ATOM      4  C   UNL     1       0.923   9.497  19.605  0.00  0.00    +0.000 A 
ATOM      5  C   UNL     1       0.132  10.681  19.994  0.00  0.00    +0.000 A 
ATOM      6  C   UNL     1      -0.318  11.674  18.953  0.00  0.00    +0.000 C 
ATOM      7  C   UNL     1      -0.168  10.861  21.301  0.00  0.00    +0.000 A 
ATOM      8  C   UNL     1      -0.909  12.043  21.867  0.00  0.00    +0.000 C 
ATOM      9  C   UNL     1       0.219   9.878  22.347  0.00  0.00    +0.000 A 
ATOM     10  O   UNL     1      -0.031  10.062  23.533  0.00  0.00    +0.000 OA
ATOM     11  O   UNL     1       0.849   8.726  21.925  0.00  0.00    +0.000 OA
ATOM     12  C   UNL     1       1.245   8.565  20.590  0.00  0.00    +0.000 A 
ATOM     13  C   UNL     1       2.014   7.427  20.341  0.00  0.00    +0.000 A 
ENDROOT
BRANCH   1  14
ATOM     14  O   UNL     1       3.362   6.189  18.725  0.00  0.00    +0.000 OA
BRANCH  14  15
ATOM     15  C   UNL     1       2.817   5.276  17.763  0.00  0.00    +0.000 C 
BRANCH  15  20
ATOM     16  C   UNL     1       1.529   2.561  21.541  0.00  0.00    +0.000 C 
ATOM     17  C   UNL     1       1.504   3.035  20.149  0.00  0.00    +0.000 A 
ATOM     18  N   UNL     1       0.774   2.629  19.134  0.00  0.00    +0.000 NA
ATOM     19  N   UNL     1       1.137   3.412  18.060  0.00  0.00    +0.000 NA
ATOM     20  C   UNL     1       2.060   4.242  18.501  0.00  0.00    +0.000 A 
ATOM     21  O   UNL     1       2.359   4.051  19.824  0.00  0.00    +0.000 OA
ENDBRANCH  15  20
ENDBRANCH  14  15
ENDBRANCH   1  14
TORSDOF 3
ENDMDL
MODEL 7
REMARK VINA RESULT:      -7.7      2.364      3.524
REMARK  Name = 
REMARK  6 active torsions:
REMARK  status: ('A' for Active; 'I' for Inactive)
REMARK    1  A    between atoms: C_1  and  C_2
REMARK    2  A    between atoms: C_5  and  C_6
REMARK    3  A    between atoms: C_6  and  O_7
REMARK    4  A    between atoms: O_7  and  C_8
REMARK    5  A    between atoms: C_12  and  C_13
REMARK    6  A    between atoms: C_14  and  C_15
REMARK                            x       y       z     vdW  Elec       q    Type
REMARK                         _______ _______ _______ _____ _____    ______ ____
ROOT
ATOM      1  C   UNL     1       4.743   5.377  16.357  0.00  0.00    +0.000 A 
ATOM      2  C   UNL     1       4.343   6.485  17.099  0.00  0.00    +0.000 A 
ATOM      3  C   UNL     1       3.480   6.337  18.199  0.00  0.00    +0.000 A 
ATOM      4  C   UNL     1       2.993   5.077  18.573  0.00  0.00    +0.000 A 
ATOM      5  C   UNL     1       2.127   4.813  19.739  0.00  0.00    +0.000 A 
ATOM      6  C   UNL     1       1.601   5.952  20.573  0.00  0.00    +0.000 C 
ATOM      7  C   UNL     1       1.828   3.530  20.048  0.00  0.00    +0.000 A 
ATOM      8  C   UNL     1       1.015   3.090  21.236  0.00  0.00    +0.000 C 
ATOM      9  C   UNL     1       2.291   2.385  19.220  0.00  0.00    +0.000 A 
ATOM     10  O   UNL     1       2.040   1.224  19.522  0.00  0.00    +0.000 OA
ATOM     11  O   UNL     1       2.994   2.683  18.071  0.00  0.00    +0.000 OA
ATOM     12  C   UNL     1       3.387   3.998  17.783  0.00  0.00    +0.000 A 
ATOM     13  C   UNL     1       4.229   4.129  16.678  0.00  0.00    +0.000 A 
ENDROOT
BRANCH   1  14
ATOM     14  O   UNL     1       5.642   5.615  15.354  0.00  0.00    +0.000 OA
BRANCH  14  15
ATOM     15  C   UNL     1       6.991   5.242  15.662  0.00  0.00    +0.000 C 
BRANCH  15  20
ATOM     16  C   UNL     1       8.315   9.153  18.163  0.00  0.00    +0.000 C 
ATOM     17  C   UNL     1       8.017   7.730  17.941  0.00  0.00    +0.000 A 
ATOM     18  N   UNL     1       8.071   6.718  18.779  0.00  0.00    +0.000 NA
ATOM     19  N   UNL     1       7.683   5.605  18.065  0.00  0.00    +0.000 NA
ATOM     20  C   UNL     1       7.416   6.021  16.844  0.00  0.00    +0.000 A 
ATOM     21  O   UNL     1       7.622   7.366  16.683  0.00  0.00    +0.000 OA
ENDBRANCH  15  20
ENDBRANCH  14  15
ENDBRANCH   1  14
TORSDOF 3
ENDMDL
MODEL 8
REMARK VINA RESULT:      -7.6      4.771      6.930
REMARK  Name = 
REMARK  6 active torsions:
REMARK  status: ('A' for Active; 'I' for Inactive)
REMARK    1  A    between atoms: C_1  and  C_2
REMARK    2  A    between atoms: C_5  and  C_6
REMARK    3  A    between atoms: C_6  and  O_7
REMARK    4  A    between atoms: O_7  and  C_8
REMARK    5  A    between atoms: C_12  and  C_13
REMARK    6  A    between atoms: C_14  and  C_15
REMARK                            x       y       z     vdW  Elec       q    Type
REMARK                         _______ _______ _______ _____ _____    ______ ____
ROOT
ATOM      1  C   UNL     1       2.520   7.387  18.816  0.00  0.00    +0.000 A 
ATOM      2  C   UNL     1       2.038   8.329  17.910  0.00  0.00    +0.000 A 
ATOM      3  C   UNL     1       1.216   9.383  18.342  0.00  0.00    +0.000 A 
ATOM      4  C   UNL     1       0.850   9.511  19.689  0.00  0.00    +0.000 A 
ATOM      5  C   UNL     1       0.036  10.608  20.249  0.00  0.00    +0.000 A 
ATOM      6  C   UNL     1      -0.571  11.647  19.341  0.00  0.00    +0.000 C 
ATOM      7  C   UNL     1      -0.142  10.667  21.588  0.00  0.00    +0.000 A 
ATOM      8  C   UNL     1      -0.888  11.752  22.318  0.00  0.00    +0.000 C 
ATOM      9  C   UNL     1       0.403   9.633  22.508  0.00  0.00    +0.000 A 
ATOM     10  O   UNL     1       0.263   9.708  23.723  0.00  0.00    +0.000 OA
ATOM     11  O   UNL     1       1.052   8.561  21.934  0.00  0.00    +0.000 OA
ATOM     12  C   UNL     1       1.322   8.528  20.558  0.00  0.00    +0.000 A 
ATOM     13  C   UNL     1       2.125   7.465  20.143  0.00  0.00    +0.000 A 
ENDROOT
BRANCH   1  14
ATOM     14  O   UNL     1       3.372   6.445  18.309  0.00  0.00    +0.000 OA
BRANCH  14  15
ATOM     15  C   UNL     1       2.731   5.255  17.834  0.00  0.00    +0.000 C 
BRANCH  15  20
ATOM     16  C   UNL     1       1.612   2.564  21.682  0.00  0.00    +0.000 C 
ATOM     17  C   UNL     1       2.435   3.035  20.558  0.00  0.00    +0.000 A 
ATOM     18  N   UNL     1       3.622   2.635  20.158  0.00  0.00    +0.000 NA
ATOM     19  N   UNL     1       3.934   3.398  19.054  0.00  0.00    +0.000 NA
ATOM     20  C   UNL     1       2.911   4.205  18.858  0.00  0.00    +0.000 A 
ATOM     21  O   UNL     1       1.920   4.043  19.790  0.00  0.00    +0.000 OA
ENDBRANCH  15  20
ENDBRANCH  14  15
ENDBRANCH   1  14
TORSDOF 3
ENDMDL
MODEL 9
REMARK VINA RESULT:      -7.6      1.434      2.049
REMARK  Name = 
REMARK  6 active torsions:
REMARK  status: ('A' for Active; 'I' for Inactive)
REMARK    1  A    between atoms: C_1  and  C_2
REMARK    2  A    between atoms: C_5  and  C_6
REMARK    3  A    between atoms: C_6  and  O_7
REMARK    4  A    between atoms: O_7  and  C_8
REMARK    5  A    between atoms: C_12  and  C_13
REMARK    6  A    between atoms: C_14  and  C_15
REMARK                            x       y       z     vdW  Elec       q    Type
REMARK                         _______ _______ _______ _____ _____    ______ ____
ROOT
ATOM      1  C   UNL     1       5.798   4.346  15.733  0.00  0.00    +0.000 A 
ATOM      2  C   UNL     1       5.567   5.720  15.730  0.00  0.00    +0.000 A 
ATOM      3  C   UNL     1       4.638   6.292  16.617  0.00  0.00    +0.000 A 
ATOM      4  C   UNL     1       3.915   5.500  17.519  0.00  0.00    +0.000 A 
ATOM      5  C   UNL     1       2.959   6.011  18.522  0.00  0.00    +0.000 A 
ATOM      6  C   UNL     1       2.606   7.476  18.562  0.00  0.00    +0.000 C 
ATOM      7  C   UNL     1       2.420   5.142  19.406  0.00  0.00    +0.000 A 
ATOM      8  C   UNL     1       1.483   5.511  20.525  0.00  0.00    +0.000 C 
ATOM      9  C   UNL     1       2.709   3.684  19.365  0.00  0.00    +0.000 A 
ATOM     10  O   UNL     1       2.240   2.906  20.187  0.00  0.00    +0.000 OA
ATOM     11  O   UNL     1       3.510   3.231  18.337  0.00  0.00    +0.000 OA
ATOM     12  C   UNL     1       4.147   4.127  17.466  0.00  0.00    +0.000 A 
ATOM     13  C   UNL     1       5.052   3.540  16.581  0.00  0.00    +0.000 A 
ENDROOT
BRANCH   1  14
ATOM     14  O   UNL     1       6.773   3.897  14.887  0.00  0.00    +0.000 OA
BRANCH  14  15
ATOM     15  C   UNL     1       6.792   4.540  13.605  0.00  0.00    +0.000 C 
BRANCH  15  20
ATOM     16  C   UNL     1       3.254   3.069  10.669  0.00  0.00    +0.000 C 
ATOM     17  C   UNL     1       4.544   2.993  11.372  0.00  0.00    +0.000 A 
ATOM     18  N   UNL     1       5.465   2.055  11.342  0.00  0.00    +0.000 NA
ATOM     19  N   UNL     1       6.477   2.483  12.173  0.00  0.00    +0.000 NA
ATOM     20  C   UNL     1       6.101   3.653  12.646  0.00  0.00    +0.000 A 
ATOM     21  O   UNL     1       4.868   4.039  12.190  0.00  0.00    +0.000 OA
ENDBRANCH  15  20
ENDBRANCH  14  15
ENDBRANCH   1  14
TORSDOF 3
ENDMDL
