MODEL 1
REMARK VINA RESULT:      -8.5      0.000      0.000
REMARK  Name = 
REMARK  7 active torsions:
REMARK  status: ('A' for Active; 'I' for Inactive)
REMARK    1  A    between atoms: C_1  and  N_2
REMARK    2  A    between atoms: C_5  and  C_6
REMARK    3  A    between atoms: C_13  and  C_14
REMARK    4  A    between atoms: C_14  and  C_15
REMARK    5  A    between atoms: N_23  and  C_24
REMARK    6  A    between atoms: C_24  and  C_25
REMARK    7  A    between atoms: C_25  and  C_26
REMARK                            x       y       z     vdW  Elec       q    Type
REMARK                         _______ _______ _______ _____ _____    ______ ____
ROOT
ATOM      1  C   UNL     1      -0.549  12.442  20.999  0.00  0.00    +0.000 A 
ATOM      2  C   UNL     1      -0.280  13.441  20.058  0.00  0.00    +0.000 A 
ATOM      3  C   UNL     1       0.535  13.196  18.941  0.00  0.00    +0.000 A 
ATOM      4  C   UNL     1       1.063  11.909  18.789  0.00  0.00    +0.000 A 
ATOM      5  N   UNL     1       1.888  11.384  17.819  0.00  0.00    +0.000 N 
ATOM      6  C   UNL     1       2.145  10.060  18.064  0.00  0.00    +0.000 A 
ATOM      7  N   UNL     1       2.915   9.276  17.300  0.00  0.00    +0.000 NA
ATOM      8  C   UNL     1       2.959   8.004  17.760  0.00  0.00    +0.000 A 
ATOM      9  N   UNL     1       2.300   7.520  18.849  0.00  0.00    +0.000 NA
ATOM     10  C   UNL     1       1.521   8.350  19.588  0.00  0.00    +0.000 A 
ATOM     11  N   UNL     1       0.773   7.844  20.656  0.00  0.00    +0.000 N 
ATOM     12  C   UNL     1       1.447   9.698  19.203  0.00  0.00    +0.000 A 
ATOM     13  C   UNL     1       0.795  10.876  19.688  0.00  0.00    +0.000 A 
ATOM     14  C   UNL     1      -0.011  11.161  20.810  0.00  0.00    +0.000 A 
ATOM     15  H   UNL     1       2.261  11.888  17.026  0.00  0.00    +0.000 HD
ATOM     16  H   UNL     1       0.455   8.577  21.273  0.00  0.00    +0.000 HD
ENDROOT
BRANCH   1  21
ATOM     17  C   UNL     1      -4.199  12.513  24.158  0.00  0.00    +0.000 C 
ATOM     18  N   UNL     1      -2.938  12.768  23.516  0.00  0.00    +0.000 N 
ATOM     19  N   UNL     1      -1.955  13.450  24.118  0.00  0.00    +0.000 NA
ATOM     20  N   UNL     1      -0.947  13.414  23.258  0.00  0.00    +0.000 NA
ATOM     21  C   UNL     1      -1.382  12.703  22.165  0.00  0.00    +0.000 A 
ATOM     22  N   UNL     1      -2.652  12.275  22.301  0.00  0.00    +0.000 NA
ENDBRANCH   1  21
BRANCH   8  23
ATOM     23  C   UNL     1       3.758   6.994  16.953  0.00  0.00    +0.000 C 
BRANCH  23  24
ATOM     24  C   UNL     1       5.079   6.594  17.578  0.00  0.00    +0.000 A 
ATOM     25  C   UNL     1       6.282   7.127  17.091  0.00  0.00    +0.000 A 
ATOM     26  C   UNL     1       7.509   6.674  17.580  0.00  0.00    +0.000 A 
ATOM     27  C   UNL     1       7.549   5.706  18.581  0.00  0.00    +0.000 A 
ATOM     28  C   UNL     1       6.360   5.212  19.114  0.00  0.00    +0.000 A 
ATOM     29  C   UNL     1       5.130   5.651  18.614  0.00  0.00    +0.000 A 
ENDBRANCH  23  24
ENDBRANCH   8  23
BRANCH  11  30
ATOM     30  C   UNL     1       1.341   6.695  21.347  0.00  0.00    +0.000 C 
BRANCH  30  31
ATOM     31  C   UNL     1       0.693   5.401  20.824  0.00  0.00    +0.000 C 
BRANCH  31  32
ATOM     32  C   UNL     1       1.686   4.292  20.684  0.00  0.00    +0.000 A 
ATOM     33  C   UNL     1       2.265   3.588  21.724  0.00  0.00    +0.000 A 
ATOM     34  N   UNL     1       3.049   2.601  21.192  0.00  0.00    +0.000 N 
ATOM     35  C   UNL     1       2.996   2.638  19.819  0.00  0.00    +0.000 A 
ATOM     36  C   UNL     1       3.588   1.795  18.871  0.00  0.00    +0.000 A 
ATOM     37  C   UNL     1       3.358   2.072  17.521  0.00  0.00    +0.000 A 
ATOM     38  C   UNL     1       2.593   3.171  17.137  0.00  0.00    +0.000 A 
ATOM     39  C   UNL     1       2.013   4.009  18.098  0.00  0.00    +0.000 A 
ATOM     40  C   UNL     1       2.191   3.723  19.468  0.00  0.00    +0.000 A 
ATOM     41  H   UNL     1       3.573   1.922  21.727  0.00  0.00    +0.000 HD
ENDBRANCH  31  32
ENDBRANCH  30  31
ENDBRANCH  11  30
TORSDOF 6
ENDMDL
MODEL 2
REMARK VINA RESULT:      -8.3      3.865      7.163
REMARK  Name = 
REMARK  7 active torsions:
REMARK  status: ('A' for Active; 'I' for Inactive)
REMARK    1  A    between atoms: C_1  and  N_2
REMARK    2  A    between atoms: C_5  and  C_6
REMARK    3  A    between atoms: C_13  and  C_14
REMARK    4  A    between atoms: C_14  and  C_15
REMARK    5  A    between atoms: N_23  and  C_24
REMARK    6  A    between atoms: C_24  and  C_25
REMARK    7  A    between atoms: C_25  and  C_26
REMARK                            x       y       z     vdW  Elec       q    Type
REMARK                         _______ _______ _______ _____ _____    ______ ____
ROOT
ATOM      1  C   UNL     1       2.494  14.172  21.058  0.00  0.00    +0.000 A 
ATOM      2  C   UNL     1       1.641  15.189  21.496  0.00  0.00    +0.000 A 
ATOM      3  C   UNL     1       0.267  15.169  21.208  0.00  0.00    +0.000 A 
ATOM      4  C   UNL     1      -0.229  14.086  20.475  0.00  0.00    +0.000 A 
ATOM      5  N   UNL     1      -1.506  13.803  20.040  0.00  0.00    +0.000 N 
ATOM      6  C   UNL     1      -1.535  12.613  19.360  0.00  0.00    +0.000 A 
ATOM      7  N   UNL     1      -2.630  12.070  18.815  0.00  0.00    +0.000 NA
ATOM      8  C   UNL     1      -2.370  10.873  18.240  0.00  0.00    +0.000 A 
ATOM      9  N   UNL     1      -1.166  10.239  18.211  0.00  0.00    +0.000 NA
ATOM     10  C   UNL     1      -0.085  10.824  18.787  0.00  0.00    +0.000 A 
ATOM     11  N   UNL     1       1.136  10.143  18.837  0.00  0.00    +0.000 N 
ATOM     12  C   UNL     1      -0.255  12.086  19.376  0.00  0.00    +0.000 A 
ATOM     13  C   UNL     1       0.581  13.035  20.044  0.00  0.00    +0.000 A 
ATOM     14  C   UNL     1       1.961  13.096  20.333  0.00  0.00    +0.000 A 
ATOM     15  H   UNL     1      -2.322  14.379  20.193  0.00  0.00    +0.000 HD
ATOM     16  H   UNL     1       1.905  10.765  19.042  0.00  0.00    +0.000 HD
ENDROOT
BRANCH   1  21
ATOM     17  C   UNL     1       7.238  15.042  20.851  0.00  0.00    +0.000 C 
ATOM     18  N   UNL     1       5.954  14.542  21.260  0.00  0.00    +0.000 N 
ATOM     19  N   UNL     1       5.784  13.860  22.400  0.00  0.00    +0.000 NA
ATOM     20  N   UNL     1       4.479  13.637  22.466  0.00  0.00    +0.000 NA
ATOM     21  C   UNL     1       3.922  14.204  21.344  0.00  0.00    +0.000 A 
ATOM     22  N   UNL     1       4.840  14.792  20.554  0.00  0.00    +0.000 NA
ENDBRANCH   1  21
BRANCH   8  23
ATOM     23  C   UNL     1      -3.541  10.121  17.627  0.00  0.00    +0.000 C 
BRANCH  23  24
ATOM     24  C   UNL     1      -4.866  10.851  17.705  0.00  0.00    +0.000 A 
ATOM     25  C   UNL     1      -5.114  11.958  16.878  0.00  0.00    +0.000 A 
ATOM     26  C   UNL     1      -6.282  12.708  17.027  0.00  0.00    +0.000 A 
ATOM     27  C   UNL     1      -7.230  12.345  17.981  0.00  0.00    +0.000 A 
ATOM     28  C   UNL     1      -7.023  11.213  18.767  0.00  0.00    +0.000 A 
ATOM     29  C   UNL     1      -5.846  10.471  18.633  0.00  0.00    +0.000 A 
ENDBRANCH  23  24
ENDBRANCH   8  23
BRANCH  11  30
ATOM     30  C   UNL     1       1.399   9.218  17.745  0.00  0.00    +0.000 C 
BRANCH  30  31
ATOM     31  C   UNL     1       2.606   8.329  18.093  0.00  0.00    +0.000 C 
BRANCH  31  32
ATOM     32  C   UNL     1       2.269   7.305  19.129  0.00  0.00    +0.000 A 
ATOM     33  C   UNL     1       2.035   7.555  20.468  0.00  0.00    +0.000 A 
ATOM     34  N   UNL     1       1.673   6.381  21.070  0.00  0.00    +0.000 N 
ATOM     35  C   UNL     1       1.662   5.358  20.150  0.00  0.00    +0.000 A 
ATOM     36  C   UNL     1       1.306   4.013  20.302  0.00  0.00    +0.000 A 
ATOM     37  C   UNL     1       1.389   3.187  19.178  0.00  0.00    +0.000 A 
ATOM     38  C   UNL     1       1.845   3.683  17.959  0.00  0.00    +0.000 A 
ATOM     39  C   UNL     1       2.205   5.030  17.825  0.00  0.00    +0.000 A 
ATOM     40  C   UNL     1       2.085   5.896  18.933  0.00  0.00    +0.000 A 
ATOM     41  H   UNL     1       1.423   6.278  22.043  0.00  0.00    +0.000 HD
ENDBRANCH  31  32
ENDBRANCH  30  31
ENDBRANCH  11  30
TORSDOF 6
ENDMDL
MODEL 3
REMARK VINA RESULT:      -8.1      3.791      7.538
REMARK  Name = 
REMARK  7 active torsions:
REMARK  status: ('A' for Active; 'I' for Inactive)
REMARK    1  A    between atoms: C_1  and  N_2
REMARK    2  A    between atoms: C_5  and  C_6
REMARK    3  A    between atoms: C_13  and  C_14
REMARK    4  A    between atoms: C_14  and  C_15
REMARK    5  A    between atoms: N_23  and  C_24
REMARK    6  A    between atoms: C_24  and  C_25
REMARK    7  A    between atoms: C_25  and  C_26
REMARK                            x       y       z     vdW  Elec       q    Type
REMARK                         _______ _______ _______ _____ _____    ______ ____
ROOT
ATOM      1  C   UNL     1       3.363  14.765  18.928  0.00  0.00    +0.000 A 
ATOM      2  C   UNL     1       2.635  15.931  19.183  0.00  0.00    +0.000 A 
ATOM      3  C   UNL     1       1.231  15.934  19.183  0.00  0.00    +0.000 A 
ATOM      4  C   UNL     1       0.577  14.723  18.931  0.00  0.00    +0.000 A 
ATOM      5  N   UNL     1      -0.767  14.425  18.858  0.00  0.00    +0.000 N 
ATOM      6  C   UNL     1      -0.954  13.092  18.599  0.00  0.00    +0.000 A 
ATOM      7  N   UNL     1      -2.147  12.499  18.469  0.00  0.00    +0.000 NA
ATOM      8  C   UNL     1      -2.031  11.167  18.256  0.00  0.00    +0.000 A 
ATOM      9  N   UNL     1      -0.869  10.461  18.196  0.00  0.00    +0.000 NA
ATOM     10  C   UNL     1       0.317  11.104  18.344  0.00  0.00    +0.000 A 
ATOM     11  N   UNL     1       1.511  10.376  18.370  0.00  0.00    +0.000 N 
ATOM     12  C   UNL     1       0.293  12.494  18.534  0.00  0.00    +0.000 A 
ATOM     13  C   UNL     1       1.264  13.531  18.701  0.00  0.00    +0.000 A 
ATOM     14  C   UNL     1       2.674  13.567  18.688  0.00  0.00    +0.000 A 
ATOM     15  H   UNL     1      -1.524  15.083  18.978  0.00  0.00    +0.000 HD
ATOM     16  H   UNL     1       2.316  10.967  18.221  0.00  0.00    +0.000 HD
ENDROOT
BRANCH   1  21
ATOM     17  C   UNL     1       8.005  14.941  20.240  0.00  0.00    +0.000 C 
ATOM     18  N   UNL     1       6.808  14.867  19.449  0.00  0.00    +0.000 N 
ATOM     19  N   UNL     1       6.837  14.626  18.131  0.00  0.00    +0.000 NA
ATOM     20  N   UNL     1       5.562  14.559  17.775  0.00  0.00    +0.000 NA
ATOM     21  C   UNL     1       4.819  14.768  18.912  0.00  0.00    +0.000 A 
ATOM     22  N   UNL     1       5.588  14.967  20.000  0.00  0.00    +0.000 NA
ENDBRANCH   1  21
BRANCH   8  23
ATOM     23  C   UNL     1      -3.315  10.362  18.142  0.00  0.00    +0.000 C 
BRANCH  23  24
ATOM     24  C   UNL     1      -4.581  11.192  18.148  0.00  0.00    +0.000 A 
ATOM     25  C   UNL     1      -5.355  11.293  19.314  0.00  0.00    +0.000 A 
ATOM     26  C   UNL     1      -6.585  11.957  19.295  0.00  0.00    +0.000 A 
ATOM     27  C   UNL     1      -7.040  12.552  18.121  0.00  0.00    +0.000 A 
ATOM     28  C   UNL     1      -6.253  12.510  16.972  0.00  0.00    +0.000 A 
ATOM     29  C   UNL     1      -5.031  11.831  16.983  0.00  0.00    +0.000 A 
ENDBRANCH  23  24
ENDBRANCH   8  23
BRANCH  11  30
ATOM     30  C   UNL     1       1.528   9.147  17.589  0.00  0.00    +0.000 C 
BRANCH  30  31
ATOM     31  C   UNL     1       2.718   8.271  18.021  0.00  0.00    +0.000 C 
BRANCH  31  32
ATOM     32  C   UNL     1       2.332   7.277  19.069  0.00  0.00    +0.000 A 
ATOM     33  C   UNL     1       2.031   7.565  20.387  0.00  0.00    +0.000 A 
ATOM     34  N   UNL     1       1.643   6.408  21.004  0.00  0.00    +0.000 N 
ATOM     35  C   UNL     1       1.680   5.359  20.115  0.00  0.00    +0.000 A 
ATOM     36  C   UNL     1       1.319   4.017  20.289  0.00  0.00    +0.000 A 
ATOM     37  C   UNL     1       1.459   3.159  19.195  0.00  0.00    +0.000 A 
ATOM     38  C   UNL     1       1.974   3.621  17.986  0.00  0.00    +0.000 A 
ATOM     39  C   UNL     1       2.337   4.965  17.831  0.00  0.00    +0.000 A 
ATOM     40  C   UNL     1       2.161   5.862  18.905  0.00  0.00    +0.000 A 
ATOM     41  H   UNL     1       1.345   6.332  21.966  0.00  0.00    +0.000 HD
ENDBRANCH  31  32
ENDBRANCH  30  31
ENDBRANCH  11  30
TORSDOF 6
ENDMDL
MODEL 4
REMARK VINA RESULT:      -8.1      3.921      7.021
REMARK  Name = 
REMARK  7 active torsions:
REMARK  status: ('A' for Active; 'I' for Inactive)
REMARK    1  A    between atoms: C_1  and  N_2
REMARK    2  A    between atoms: C_5  and  C_6
REMARK    3  A    between atoms: C_13  and  C_14
REMARK    4  A    between atoms: C_14  and  C_15
REMARK    5  A    between atoms: N_23  and  C_24
REMARK    6  A    between atoms: C_24  and  C_25
REMARK    7  A    between atoms: C_25  and  C_26
REMARK                            x       y       z     vdW  Elec       q    Type
REMARK                         _______ _______ _______ _____ _____    ______ ____
ROOT
ATOM      1  C   UNL     1       2.643  14.349  21.039  0.00  0.00    +0.000 A 
ATOM      2  C   UNL     1       1.798  15.449  21.225  0.00  0.00    +0.000 A 
ATOM      3  C   UNL     1       0.479  15.450  20.745  0.00  0.00    +0.000 A 
ATOM      4  C   UNL     1       0.026  14.305  20.082  0.00  0.00    +0.000 A 
ATOM      5  N   UNL     1      -1.193  14.024  19.503  0.00  0.00    +0.000 N 
ATOM      6  C   UNL     1      -1.198  12.760  18.972  0.00  0.00    +0.000 A 
ATOM      7  N   UNL     1      -2.237  12.199  18.343  0.00  0.00    +0.000 NA
ATOM      8  C   UNL     1      -1.972  10.929  17.958  0.00  0.00    +0.000 A 
ATOM      9  N   UNL     1      -0.816  10.246  18.179  0.00  0.00    +0.000 NA
ATOM     10  C   UNL     1       0.209  10.853  18.832  0.00  0.00    +0.000 A 
ATOM     11  N   UNL     1       1.368  10.134  19.139  0.00  0.00    +0.000 N 
ATOM     12  C   UNL     1       0.034  12.185  19.236  0.00  0.00    +0.000 A 
ATOM     13  C   UNL     1       0.825  13.175  19.901  0.00  0.00    +0.000 A 
ATOM     14  C   UNL     1       2.152  13.214  20.377  0.00  0.00    +0.000 A 
ATOM     15  H   UNL     1      -1.987  14.648  19.467  0.00  0.00    +0.000 HD
ATOM     16  H   UNL     1       2.137  10.743  19.378  0.00  0.00    +0.000 HD
ENDROOT
BRANCH   1  21
ATOM     17  C   UNL     1       7.431  14.860  21.367  0.00  0.00    +0.000 C 
ATOM     18  N   UNL     1       6.064  14.543  21.675  0.00  0.00    +0.000 N 
ATOM     19  N   UNL     1       5.681  14.145  22.896  0.00  0.00    +0.000 NA
ATOM     20  N   UNL     1       4.364  14.022  22.810  0.00  0.00    +0.000 NA
ATOM     21  C   UNL     1       4.016  14.357  21.523  0.00  0.00    +0.000 A 
ATOM     22  N   UNL     1       5.082  14.696  20.773  0.00  0.00    +0.000 NA
ENDBRANCH   1  21
BRANCH   8  23
ATOM     23  C   UNL     1      -3.089  10.156  17.276  0.00  0.00    +0.000 C 
BRANCH  23  24
ATOM     24  C   UNL     1      -4.474  10.732  17.489  0.00  0.00    +0.000 A 
ATOM     25  C   UNL     1      -4.894  11.852  16.755  0.00  0.00    +0.000 A 
ATOM     26  C   UNL     1      -6.120  12.462  17.031  0.00  0.00    +0.000 A 
ATOM     27  C   UNL     1      -6.953  11.944  18.020  0.00  0.00    +0.000 A 
ATOM     28  C   UNL     1      -6.573  10.797  18.714  0.00  0.00    +0.000 A 
ATOM     29  C   UNL     1      -5.338  10.195  18.453  0.00  0.00    +0.000 A 
ENDBRANCH  23  24
ENDBRANCH   8  23
BRANCH  11  30
ATOM     30  C   UNL     1       1.724   9.068  18.214  0.00  0.00    +0.000 C 
BRANCH  30  31
ATOM     31  C   UNL     1       2.046   7.783  18.997  0.00  0.00    +0.000 C 
BRANCH  31  32
ATOM     32  C   UNL     1       2.864   6.824  18.193  0.00  0.00    +0.000 A 
ATOM     33  C   UNL     1       4.004   7.137  17.476  0.00  0.00    +0.000 A 
ATOM     34  N   UNL     1       4.513   5.981  16.950  0.00  0.00    +0.000 N 
ATOM     35  C   UNL     1       3.730   4.909  17.309  0.00  0.00    +0.000 A 
ATOM     36  C   UNL     1       3.896   3.544  17.045  0.00  0.00    +0.000 A 
ATOM     37  C   UNL     1       2.932   2.664  17.543  0.00  0.00    +0.000 A 
ATOM     38  C   UNL     1       1.827   3.138  18.247  0.00  0.00    +0.000 A 
ATOM     39  C   UNL     1       1.672   4.508  18.495  0.00  0.00    +0.000 A 
ATOM     40  C   UNL     1       2.657   5.413  18.044  0.00  0.00    +0.000 A 
ATOM     41  H   UNL     1       5.357   5.915  16.398  0.00  0.00    +0.000 HD
ENDBRANCH  31  32
ENDBRANCH  30  31
ENDBRANCH  11  30
TORSDOF 6
ENDMDL
MODEL 5
REMARK VINA RESULT:      -8.1      3.291      7.651
REMARK  Name = 
REMARK  7 active torsions:
REMARK  status: ('A' for Active; 'I' for Inactive)
REMARK    1  A    between atoms: C_1  and  N_2
REMARK    2  A    between atoms: C_5  and  C_6
REMARK    3  A    between atoms: C_13  and  C_14
REMARK    4  A    between atoms: C_14  and  C_15
REMARK    5  A    between atoms: N_23  and  C_24
REMARK    6  A    between atoms: C_24  and  C_25
REMARK    7  A    between atoms: C_25  and  C_26
REMARK                            x       y       z     vdW  Elec       q    Type
REMARK                         _______ _______ _______ _____ _____    ______ ____
ROOT
ATOM      1  C   UNL     1      -4.935  12.233  18.461  0.00  0.00    +0.000 A 
ATOM      2  C   UNL     1      -5.196  11.815  17.152  0.00  0.00    +0.000 A 
ATOM      3  C   UNL     1      -4.250  11.087  16.412  0.00  0.00    +0.000 A 
ATOM      4  C   UNL     1      -3.035  10.778  17.033  0.00  0.00    +0.000 A 
ATOM      5  N   UNL     1      -1.932  10.098  16.564  0.00  0.00    +0.000 N 
ATOM      6  C   UNL     1      -0.963  10.019  17.531  0.00  0.00    +0.000 A 
ATOM      7  N   UNL     1       0.224   9.421  17.376  0.00  0.00    +0.000 NA
ATOM      8  C   UNL     1       0.964   9.461  18.508  0.00  0.00    +0.000 A 
ATOM      9  N   UNL     1       0.587  10.009  19.696  0.00  0.00    +0.000 NA
ATOM     10  C   UNL     1      -0.632  10.596  19.809  0.00  0.00    +0.000 A 
ATOM     11  N   UNL     1      -1.063  11.085  21.047  0.00  0.00    +0.000 N 
ATOM     12  C   UNL     1      -1.452  10.632  18.671  0.00  0.00    +0.000 A 
ATOM     13  C   UNL     1      -2.746  11.150  18.347  0.00  0.00    +0.000 A 
ATOM     14  C   UNL     1      -3.710  11.898  19.055  0.00  0.00    +0.000 A 
ATOM     15  H   UNL     1      -1.832   9.703  15.639  0.00  0.00    +0.000 HD
ATOM     16  H   UNL     1      -1.844  11.716  20.950  0.00  0.00    +0.000 HD
ENDROOT
BRANCH   1  21
ATOM     17  C   UNL     1      -7.916  13.799  21.919  0.00  0.00    +0.000 C 
ATOM     18  N   UNL     1      -7.210  13.673  20.674  0.00  0.00    +0.000 N 
ATOM     19  N   UNL     1      -7.299  14.596  19.707  0.00  0.00    +0.000 NA
ATOM     20  N   UNL     1      -6.466  14.175  18.765  0.00  0.00    +0.000 NA
ATOM     21  C   UNL     1      -5.912  13.002  19.219  0.00  0.00    +0.000 A 
ATOM     22  N   UNL     1      -6.367  12.655  20.439  0.00  0.00    +0.000 NA
ENDBRANCH   1  21
BRANCH   8  23
ATOM     23  C   UNL     1       2.318   8.770  18.486  0.00  0.00    +0.000 C 
BRANCH  23  24
ATOM     24  C   UNL     1       2.284   7.308  18.880  0.00  0.00    +0.000 A 
ATOM     25  C   UNL     1       2.463   6.310  17.911  0.00  0.00    +0.000 A 
ATOM     26  C   UNL     1       2.313   4.961  18.244  0.00  0.00    +0.000 A 
ATOM     27  C   UNL     1       2.013   4.594  19.554  0.00  0.00    +0.000 A 
ATOM     28  C   UNL     1       1.893   5.573  20.538  0.00  0.00    +0.000 A 
ATOM     29  C   UNL     1       2.024   6.924  20.203  0.00  0.00    +0.000 A 
ENDBRANCH  23  24
ENDBRANCH   8  23
BRANCH  11  30
ATOM     30  C   UNL     1      -0.021  11.567  21.942  0.00  0.00    +0.000 C 
BRANCH  30  31
ATOM     31  C   UNL     1       0.279  13.047  21.645  0.00  0.00    +0.000 C 
BRANCH  31  32
ATOM     32  C   UNL     1      -0.970  13.838  21.419  0.00  0.00    +0.000 A 
ATOM     33  C   UNL     1      -1.287  14.540  20.271  0.00  0.00    +0.000 A 
ATOM     34  N   UNL     1      -2.545  15.057  20.415  0.00  0.00    +0.000 N 
ATOM     35  C   UNL     1      -3.067  14.707  21.639  0.00  0.00    +0.000 A 
ATOM     36  C   UNL     1      -4.328  14.965  22.188  0.00  0.00    +0.000 A 
ATOM     37  C   UNL     1      -4.591  14.478  23.471  0.00  0.00    +0.000 A 
ATOM     38  C   UNL     1      -3.615  13.791  24.188  0.00  0.00    +0.000 A 
ATOM     39  C   UNL     1      -2.354  13.548  23.627  0.00  0.00    +0.000 A 
ATOM     40  C   UNL     1      -2.080  13.987  22.314  0.00  0.00    +0.000 A 
ATOM     41  H   UNL     1      -3.037  15.597  19.717  0.00  0.00    +0.000 HD
ENDBRANCH  31  32
ENDBRANCH  30  31
ENDBRANCH  11  30
TORSDOF 6
ENDMDL
MODEL 6
REMARK VINA RESULT:      -7.9      6.644      8.043
REMARK  Name = 
REMARK  7 active torsions:
REMARK  status: ('A' for Active; 'I' for Inactive)
REMARK    1  A    between atoms: C_1  and  N_2
REMARK    2  A    between atoms: C_5  and  C_6
REMARK    3  A    between atoms: C_13  and  C_14
REMARK    4  A    between atoms: C_14  and  C_15
REMARK    5  A    between atoms: N_23  and  C_24
REMARK    6  A    between atoms: C_24  and  C_25
REMARK    7  A    between atoms: C_25  and  C_26
REMARK                            x       y       z     vdW  Elec       q    Type
REMARK                         _______ _______ _______ _____ _____    ______ ____
ROOT
ATOM      1  C   UNL     1       0.675  14.012  20.923  0.00  0.00    +0.000 A 
ATOM      2  C   UNL     1       0.185  13.614  19.675  0.00  0.00    +0.000 A 
ATOM      3  C   UNL     1       0.995  13.634  18.529  0.00  0.00    +0.000 A 
ATOM      4  C   UNL     1       2.322  14.054  18.676  0.00  0.00    +0.000 A 
ATOM      5  N   UNL     1       3.332  14.185  17.747  0.00  0.00    +0.000 N 
ATOM      6  C   UNL     1       4.486  14.620  18.345  0.00  0.00    +0.000 A 
ATOM      7  N   UNL     1       5.640  14.845  17.706  0.00  0.00    +0.000 NA
ATOM      8  C   UNL     1       6.623  15.231  18.553  0.00  0.00    +0.000 A 
ATOM      9  N   UNL     1       6.513  15.368  19.902  0.00  0.00    +0.000 NA
ATOM     10  C   UNL     1       5.325  15.119  20.509  0.00  0.00    +0.000 A 
ATOM     11  N   UNL     1       5.224  15.173  21.903  0.00  0.00    +0.000 N 
ATOM     12  C   UNL     1       4.239  14.747  19.701  0.00  0.00    +0.000 A 
ATOM     13  C   UNL     1       2.859  14.430  19.907  0.00  0.00    +0.000 A 
ATOM     14  C   UNL     1       2.012  14.418  21.036  0.00  0.00    +0.000 A 
ATOM     15  H   UNL     1       3.254  13.990  16.759  0.00  0.00    +0.000 HD
ATOM     16  H   UNL     1       4.264  15.230  22.209  0.00  0.00    +0.000 HD
ENDROOT
BRANCH   1  21
ATOM     17  C   UNL     1      -1.478  15.192  25.080  0.00  0.00    +0.000 C 
ATOM     18  N   UNL     1      -1.086  14.479  23.895  0.00  0.00    +0.000 N 
ATOM     19  N   UNL     1      -1.695  13.351  23.506  0.00  0.00    +0.000 NA
ATOM     20  N   UNL     1      -1.116  13.037  22.355  0.00  0.00    +0.000 NA
ATOM     21  C   UNL     1      -0.173  14.006  22.107  0.00  0.00    +0.000 A 
ATOM     22  N   UNL     1      -0.130  14.944  23.074  0.00  0.00    +0.000 NA
ENDBRANCH   1  21
BRANCH   8  23
ATOM     23  C   UNL     1       8.003  15.468  17.962  0.00  0.00    +0.000 C 
BRANCH  23  24
ATOM     24  C   UNL     1       8.883  14.237  17.904  0.00  0.00    +0.000 A 
ATOM     25  C   UNL     1      10.269  14.365  17.727  0.00  0.00    +0.000 A 
ATOM     26  C   UNL     1      11.071  13.235  17.552  0.00  0.00    +0.000 A 
ATOM     27  C   UNL     1      10.502  11.963  17.582  0.00  0.00    +0.000 A 
ATOM     28  C   UNL     1       9.136  11.820  17.817  0.00  0.00    +0.000 A 
ATOM     29  C   UNL     1       8.329  12.951  17.974  0.00  0.00    +0.000 A 
ENDBRANCH  23  24
ENDBRANCH   8  23
BRANCH  11  30
ATOM     30  C   UNL     1       6.115  16.109  22.573  0.00  0.00    +0.000 C 
BRANCH  30  31
ATOM     31  C   UNL     1       6.780  15.423  23.780  0.00  0.00    +0.000 C 
BRANCH  31  32
ATOM     32  C   UNL     1       7.192  14.019  23.472  0.00  0.00    +0.000 A 
ATOM     33  C   UNL     1       6.525  12.875  23.868  0.00  0.00    +0.000 A 
ATOM     34  N   UNL     1       7.159  11.794  23.319  0.00  0.00    +0.000 N 
ATOM     35  C   UNL     1       8.233  12.205  22.565  0.00  0.00    +0.000 A 
ATOM     36  C   UNL     1       9.126  11.458  21.787  0.00  0.00    +0.000 A 
ATOM     37  C   UNL     1      10.137  12.149  21.113  0.00  0.00    +0.000 A 
ATOM     38  C   UNL     1      10.268  13.530  21.244  0.00  0.00    +0.000 A 
ATOM     39  C   UNL     1       9.370  14.261  22.033  0.00  0.00    +0.000 A 
ATOM     40  C   UNL     1       8.312  13.593  22.685  0.00  0.00    +0.000 A 
ATOM     41  H   UNL     1       6.870  10.832  23.428  0.00  0.00    +0.000 HD
ENDBRANCH  31  32
ENDBRANCH  30  31
ENDBRANCH  11  30
TORSDOF 6
ENDMDL
MODEL 7
REMARK VINA RESULT:      -7.9      5.125     10.186
REMARK  Name = 
REMARK  7 active torsions:
REMARK  status: ('A' for Active; 'I' for Inactive)
REMARK    1  A    between atoms: C_1  and  N_2
REMARK    2  A    between atoms: C_5  and  C_6
REMARK    3  A    between atoms: C_13  and  C_14
REMARK    4  A    between atoms: C_14  and  C_15
REMARK    5  A    between atoms: N_23  and  C_24
REMARK    6  A    between atoms: C_24  and  C_25
REMARK    7  A    between atoms: C_25  and  C_26
REMARK                            x       y       z     vdW  Elec       q    Type
REMARK                         _______ _______ _______ _____ _____    ______ ____
ROOT
ATOM      1  C   UNL     1      -4.678  11.178  18.328  0.00  0.00    +0.000 A 
ATOM      2  C   UNL     1      -5.948  10.690  18.653  0.00  0.00    +0.000 A 
ATOM      3  C   UNL     1      -6.653  11.164  19.770  0.00  0.00    +0.000 A 
ATOM      4  C   UNL     1      -6.048  12.157  20.548  0.00  0.00    +0.000 A 
ATOM      5  N   UNL     1      -6.485  12.797  21.688  0.00  0.00    +0.000 N 
ATOM      6  C   UNL     1      -5.564  13.721  22.109  0.00  0.00    +0.000 A 
ATOM      7  N   UNL     1      -5.701  14.500  23.189  0.00  0.00    +0.000 NA
ATOM      8  C   UNL     1      -4.655  15.345  23.341  0.00  0.00    +0.000 A 
ATOM      9  N   UNL     1      -3.579  15.449  22.515  0.00  0.00    +0.000 NA
ATOM     10  C   UNL     1      -3.488  14.645  21.425  0.00  0.00    +0.000 A 
ATOM     11  N   UNL     1      -2.430  14.803  20.523  0.00  0.00    +0.000 N 
ATOM     12  C   UNL     1      -4.513  13.711  21.209  0.00  0.00    +0.000 A 
ATOM     13  C   UNL     1      -4.797  12.694  20.244  0.00  0.00    +0.000 A 
ATOM     14  C   UNL     1      -4.106  12.181  19.126  0.00  0.00    +0.000 A 
ATOM     15  H   UNL     1      -7.361  12.626  22.162  0.00  0.00    +0.000 HD
ATOM     16  H   UNL     1      -2.327  14.000  19.920  0.00  0.00    +0.000 HD
ENDROOT
BRANCH   1  21
ATOM     17  C   UNL     1      -3.295  10.087  13.834  0.00  0.00    +0.000 C 
ATOM     18  N   UNL     1      -3.346  10.174  15.268  0.00  0.00    +0.000 N 
ATOM     19  N   UNL     1      -2.353   9.726  16.046  0.00  0.00    +0.000 NA
ATOM     20  N   UNL     1      -2.725  10.042  17.279  0.00  0.00    +0.000 NA
ATOM     21  C   UNL     1      -3.942  10.673  17.178  0.00  0.00    +0.000 A 
ATOM     22  N   UNL     1      -4.366  10.774  15.904  0.00  0.00    +0.000 NA
ENDBRANCH   1  21
BRANCH   8  23
ATOM     23  C   UNL     1      -4.709  16.324  24.502  0.00  0.00    +0.000 C 
BRANCH  23  24
ATOM     24  C   UNL     1      -3.382  16.549  25.197  0.00  0.00    +0.000 A 
ATOM     25  C   UNL     1      -2.898  17.852  25.394  0.00  0.00    +0.000 A 
ATOM     26  C   UNL     1      -1.623  18.063  25.924  0.00  0.00    +0.000 A 
ATOM     27  C   UNL     1      -0.829  16.979  26.291  0.00  0.00    +0.000 A 
ATOM     28  C   UNL     1      -1.322  15.683  26.156  0.00  0.00    +0.000 A 
ATOM     29  C   UNL     1      -2.591  15.467  25.609  0.00  0.00    +0.000 A 
ENDBRANCH  23  24
ENDBRANCH   8  23
BRANCH  11  30
ATOM     30  C   UNL     1      -1.176  15.285  21.085  0.00  0.00    +0.000 C 
BRANCH  30  31
ATOM     31  C   UNL     1      -0.581  14.218  22.022  0.00  0.00    +0.000 C 
BRANCH  31  32
ATOM     32  C   UNL     1      -0.115  13.010  21.273  0.00  0.00    +0.000 A 
ATOM     33  C   UNL     1       0.542  13.016  20.057  0.00  0.00    +0.000 A 
ATOM     34  N   UNL     1       0.879  11.727  19.744  0.00  0.00    +0.000 N 
ATOM     35  C   UNL     1       0.458  10.871  20.734  0.00  0.00    +0.000 A 
ATOM     36  C   UNL     1       0.630   9.487  20.861  0.00  0.00    +0.000 A 
ATOM     37  C   UNL     1       0.090   8.866  21.991  0.00  0.00    +0.000 A 
ATOM     38  C   UNL     1      -0.624   9.598  22.935  0.00  0.00    +0.000 A 
ATOM     39  C   UNL     1      -0.795  10.981  22.789  0.00  0.00    +0.000 A 
ATOM     40  C   UNL     1      -0.218  11.640  21.682  0.00  0.00    +0.000 A 
ATOM     41  H   UNL     1       1.388  11.443  18.918  0.00  0.00    +0.000 HD
ENDBRANCH  31  32
ENDBRANCH  30  31
ENDBRANCH  11  30
TORSDOF 6
ENDMDL
MODEL 8
REMARK VINA RESULT:      -7.9      3.761      7.666
REMARK  Name = 
REMARK  7 active torsions:
REMARK  status: ('A' for Active; 'I' for Inactive)
REMARK    1  A    between atoms: C_1  and  N_2
REMARK    2  A    between atoms: C_5  and  C_6
REMARK    3  A    between atoms: C_13  and  C_14
REMARK    4  A    between atoms: C_14  and  C_15
REMARK    5  A    between atoms: N_23  and  C_24
REMARK    6  A    between atoms: C_24  and  C_25
REMARK    7  A    between atoms: C_25  and  C_26
REMARK                            x       y       z     vdW  Elec       q    Type
REMARK                         _______ _______ _______ _____ _____    ______ ____
ROOT
ATOM      1  C   UNL     1       3.868  14.839  18.321  0.00  0.00    +0.000 A 
ATOM      2  C   UNL     1       3.185  16.041  18.529  0.00  0.00    +0.000 A 
ATOM      3  C   UNL     1       1.786  16.080  18.644  0.00  0.00    +0.000 A 
ATOM      4  C   UNL     1       1.091  14.869  18.557  0.00  0.00    +0.000 A 
ATOM      5  N   UNL     1      -0.259  14.600  18.622  0.00  0.00    +0.000 N 
ATOM      6  C   UNL     1      -0.491  13.254  18.502  0.00  0.00    +0.000 A 
ATOM      7  N   UNL     1      -1.701  12.683  18.525  0.00  0.00    +0.000 NA
ATOM      8  C   UNL     1      -1.628  11.335  18.424  0.00  0.00    +0.000 A 
ATOM      9  N   UNL     1      -0.489  10.597  18.333  0.00  0.00    +0.000 NA
ATOM     10  C   UNL     1       0.718  11.220  18.325  0.00  0.00    +0.000 A 
ATOM     11  N   UNL     1       1.896  10.466  18.318  0.00  0.00    +0.000 N 
ATOM     12  C   UNL     1       0.734  12.621  18.389  0.00  0.00    +0.000 A 
ATOM     13  C   UNL     1       1.735  13.644  18.381  0.00  0.00    +0.000 A 
ATOM     14  C   UNL     1       3.140  13.642  18.249  0.00  0.00    +0.000 A 
ATOM     15  H   UNL     1      -0.992  15.285  18.744  0.00  0.00    +0.000 HD
ATOM     16  H   UNL     1       2.696  11.021  18.051  0.00  0.00    +0.000 HD
ENDROOT
BRANCH   1  21
ATOM     17  C   UNL     1       8.403  13.422  17.469  0.00  0.00    +0.000 C 
ATOM     18  N   UNL     1       7.264  14.210  17.852  0.00  0.00    +0.000 N 
ATOM     19  N   UNL     1       7.370  15.503  18.185  0.00  0.00    +0.000 NA
ATOM     20  N   UNL     1       6.122  15.897  18.401  0.00  0.00    +0.000 NA
ATOM     21  C   UNL     1       5.317  14.803  18.186  0.00  0.00    +0.000 A 
ATOM     22  N   UNL     1       6.018  13.709  17.832  0.00  0.00    +0.000 NA
ENDBRANCH   1  21
BRANCH   8  23
ATOM     23  C   UNL     1      -2.931  10.556  18.490  0.00  0.00    +0.000 C 
BRANCH  23  24
ATOM     24  C   UNL     1      -4.179  11.406  18.373  0.00  0.00    +0.000 A 
ATOM     25  C   UNL     1      -4.798  11.586  17.127  0.00  0.00    +0.000 A 
ATOM     26  C   UNL     1      -5.876  12.463  16.989  0.00  0.00    +0.000 A 
ATOM     27  C   UNL     1      -6.367  13.148  18.098  0.00  0.00    +0.000 A 
ATOM     28  C   UNL     1      -5.798  12.933  19.352  0.00  0.00    +0.000 A 
ATOM     29  C   UNL     1      -4.708  12.069  19.490  0.00  0.00    +0.000 A 
ENDBRANCH  23  24
ENDBRANCH   8  23
BRANCH  11  30
ATOM     30  C   UNL     1       1.825   9.173  17.654  0.00  0.00    +0.000 C 
BRANCH  30  31
ATOM     31  C   UNL     1       2.201   8.057  18.644  0.00  0.00    +0.000 C 
BRANCH  31  32
ATOM     32  C   UNL     1       3.018   6.983  17.997  0.00  0.00    +0.000 A 
ATOM     33  C   UNL     1       4.244   7.158  17.384  0.00  0.00    +0.000 A 
ATOM     34  N   UNL     1       4.710   5.932  16.995  0.00  0.00    +0.000 N 
ATOM     35  C   UNL     1       3.813   4.950  17.342  0.00  0.00    +0.000 A 
ATOM     36  C   UNL     1       3.896   3.560  17.191  0.00  0.00    +0.000 A 
ATOM     37  C   UNL     1       2.820   2.792  17.644  0.00  0.00    +0.000 A 
ATOM     38  C   UNL     1       1.692   3.396  18.194  0.00  0.00    +0.000 A 
ATOM     39  C   UNL     1       1.622   4.789  18.330  0.00  0.00    +0.000 A 
ATOM     40  C   UNL     1       2.715   5.584  17.925  0.00  0.00    +0.000 A 
ATOM     41  H   UNL     1       5.597   5.764  16.540  0.00  0.00    +0.000 HD
ENDBRANCH  31  32
ENDBRANCH  30  31
ENDBRANCH  11  30
TORSDOF 6
ENDMDL
MODEL 9
REMARK VINA RESULT:      -7.8      3.368      7.304
REMARK  Name = 
REMARK  7 active torsions:
REMARK  status: ('A' for Active; 'I' for Inactive)
REMARK    1  A    between atoms: C_1  and  N_2
REMARK    2  A    between atoms: C_5  and  C_6
REMARK    3  A    between atoms: C_13  and  C_14
REMARK    4  A    between atoms: C_14  and  C_15
REMARK    5  A    between atoms: N_23  and  C_24
REMARK    6  A    between atoms: C_24  and  C_25
REMARK    7  A    between atoms: C_25  and  C_26
REMARK                            x       y       z     vdW  Elec       q    Type
REMARK                         _______ _______ _______ _____ _____    ______ ____
ROOT
ATOM      1  C   UNL     1      -4.908  12.103  18.237  0.00  0.00    +0.000 A 
ATOM      2  C   UNL     1      -5.003  11.728  16.894  0.00  0.00    +0.000 A 
ATOM      3  C   UNL     1      -3.963  11.040  16.249  0.00  0.00    +0.000 A 
ATOM      4  C   UNL     1      -2.825  10.726  17.000  0.00  0.00    +0.000 A 
ATOM      5  N   UNL     1      -1.662  10.079  16.643  0.00  0.00    +0.000 N 
ATOM      6  C   UNL     1      -0.814   9.979  17.716  0.00  0.00    +0.000 A 
ATOM      7  N   UNL     1       0.394   9.403  17.684  0.00  0.00    +0.000 NA
ATOM      8  C   UNL     1       0.993   9.414  18.898  0.00  0.00    +0.000 A 
ATOM      9  N   UNL     1       0.468   9.914  20.050  0.00  0.00    +0.000 NA
ATOM     10  C   UNL     1      -0.766  10.480  20.036  0.00  0.00    +0.000 A 
ATOM     11  N   UNL     1      -1.350  10.919  21.228  0.00  0.00    +0.000 N 
ATOM     12  C   UNL     1      -1.446  10.544  18.810  0.00  0.00    +0.000 A 
ATOM     13  C   UNL     1      -2.701  11.055  18.350  0.00  0.00    +0.000 A 
ATOM     14  C   UNL     1      -3.756  11.765  18.963  0.00  0.00    +0.000 A 
ATOM     15  H   UNL     1      -1.446   9.717  15.725  0.00  0.00    +0.000 HD
ATOM     16  H   UNL     1      -2.126  11.542  21.060  0.00  0.00    +0.000 HD
ENDROOT
BRANCH   1  21
ATOM     17  C   UNL     1      -7.571  15.567  20.289  0.00  0.00    +0.000 C 
ATOM     18  N   UNL     1      -7.125  14.291  19.802  0.00  0.00    +0.000 N 
ATOM     19  N   UNL     1      -7.917  13.211  19.800  0.00  0.00    +0.000 NA
ATOM     20  N   UNL     1      -7.191  12.265  19.220  0.00  0.00    +0.000 NA
ATOM     21  C   UNL     1      -5.981  12.832  18.899  0.00  0.00    +0.000 A 
ATOM     22  N   UNL     1      -5.908  14.128  19.258  0.00  0.00    +0.000 NA
ENDBRANCH   1  21
BRANCH   8  23
ATOM     23  C   UNL     1       2.352   8.742  19.015  0.00  0.00    +0.000 C 
BRANCH  23  24
ATOM     24  C   UNL     1       2.299   7.235  19.151  0.00  0.00    +0.000 A 
ATOM     25  C   UNL     1       1.933   6.648  20.372  0.00  0.00    +0.000 A 
ATOM     26  C   UNL     1       1.998   5.263  20.542  0.00  0.00    +0.000 A 
ATOM     27  C   UNL     1       2.400   4.447  19.487  0.00  0.00    +0.000 A 
ATOM     28  C   UNL     1       2.708   5.014  18.252  0.00  0.00    +0.000 A 
ATOM     29  C   UNL     1       2.662   6.401  18.084  0.00  0.00    +0.000 A 
ENDBRANCH  23  24
ENDBRANCH   8  23
BRANCH  11  30
ATOM     30  C   UNL     1      -0.431  11.383  22.258  0.00  0.00    +0.000 C 
BRANCH  30  31
ATOM     31  C   UNL     1      -0.804  12.815  22.682  0.00  0.00    +0.000 C 
BRANCH  31  32
ATOM     32  C   UNL     1      -1.029  13.709  21.505  0.00  0.00    +0.000 A 
ATOM     33  C   UNL     1      -2.234  14.280  21.141  0.00  0.00    +0.000 A 
ATOM     34  N   UNL     1      -2.017  15.098  20.066  0.00  0.00    +0.000 N 
ATOM     35  C   UNL     1      -0.687  15.080  19.716  0.00  0.00    +0.000 A 
ATOM     36  C   UNL     1      -0.007  15.797  18.724  0.00  0.00    +0.000 A 
ATOM     37  C   UNL     1       1.367  15.579  18.590  0.00  0.00    +0.000 A 
ATOM     38  C   UNL     1       2.025  14.653  19.396  0.00  0.00    +0.000 A 
ATOM     39  C   UNL     1       1.328  13.938  20.379  0.00  0.00    +0.000 A 
ATOM     40  C   UNL     1      -0.050  14.176  20.566  0.00  0.00    +0.000 A 
ATOM     41  H   UNL     1      -2.722  15.659  19.609  0.00  0.00    +0.000 HD
ENDBRANCH  31  32
ENDBRANCH  30  31
ENDBRANCH  11  30
TORSDOF 6
ENDMDL
