MODEL 1
REMARK VINA RESULT:      -7.7      0.000      0.000
REMARK  Name = 
REMARK  5 active torsions:
REMARK  status: ('A' for Active; 'I' for Inactive)
REMARK    1  A    between atoms: C_2  and  C_4
REMARK    2  A    between atoms: C_9  and  O_10
REMARK    3  A    between atoms: O_10  and  C_11
REMARK    4  A    between atoms: C_11  and  C_12
REMARK    5  A    between atoms: C_14  and  C_15
REMARK                            x       y       z     vdW  Elec       q    Type
REMARK                         _______ _______ _______ _____ _____    ______ ____
ROOT
ATOM      1  O   UNL     1       7.498   4.813  16.112  0.00  0.00    +0.000 OA
ENDROOT
BRANCH   1   7
ATOM      2  C   UNL     1       6.465   3.944  12.714  0.00  0.00    +0.000 A 
ATOM      3  C   UNL     1       7.271   4.794  11.957  0.00  0.00    +0.000 A 
ATOM      4  F   UNL     1       7.220   4.811  10.618  0.00  0.00    +0.000 F 
ATOM      5  C   UNL     1       8.166   5.671  12.570  0.00  0.00    +0.000 A 
ATOM      6  C   UNL     1       8.274   5.710  13.960  0.00  0.00    +0.000 A 
ATOM      7  C   UNL     1       7.484   4.866  14.741  0.00  0.00    +0.000 A 
ATOM      8  C   UNL     1       6.585   3.990  14.107  0.00  0.00    +0.000 A 
ATOM      9  F   UNL     1       5.829   3.192  14.881  0.00  0.00    +0.000 F 
BRANCH   2  11
ATOM     10  N   UNL     1       5.951   1.785  11.680  0.00  0.00    +0.000 N 
ATOM     11  C   UNL     1       5.514   3.034  12.026  0.00  0.00    +0.000 C 
ATOM     12  O   UNL     1       4.363   3.358  11.762  0.00  0.00    +0.000 OA
ATOM     13  H   UNL     1       5.295   1.171  11.212  0.00  0.00    +0.000 HD
ATOM     14  H   UNL     1       6.887   1.447  11.864  0.00  0.00    +0.000 HD
ENDBRANCH   2  11
ENDBRANCH   1   7
BRANCH   1  15
ATOM     15  C   UNL     1       7.096   5.994  16.802  0.00  0.00    +0.000 C 
BRANCH  15  16
ATOM     16  C   UNL     1       5.730   5.769  17.320  0.00  0.00    +0.000 A 
ATOM     17  C   UNL     1       5.150   4.764  18.051  0.00  0.00    +0.000 A 
ATOM     18  C   UNL     1       3.763   5.071  18.067  0.00  0.00    +0.000 A 
ATOM     19  N   UNL     1       3.552   6.251  17.454  0.00  0.00    +0.000 NA
ATOM     20  O   UNL     1       4.779   6.676  16.982  0.00  0.00    +0.000 OA
BRANCH  18  21
ATOM     21  C   UNL     1       2.655   4.301  18.643  0.00  0.00    +0.000 A 
ATOM     22  C   UNL     1       2.349   3.044  18.082  0.00  0.00    +0.000 A 
ATOM     23  C   UNL     1       1.307   2.259  18.584  0.00  0.00    +0.000 A 
ATOM     24  C   UNL     1       0.547   2.714  19.655  0.00  0.00    +0.000 A 
ATOM     25  C   UNL     1       0.837   3.950  20.230  0.00  0.00    +0.000 A 
ATOM     26  C   UNL     1       1.887   4.738  19.738  0.00  0.00    +0.000 A 
ATOM     27 CL   UNL     1       2.187   6.211  20.599  0.00  0.00    +0.000 Cl
ENDBRANCH  18  21
ENDBRANCH  15  16
ENDBRANCH   1  15
TORSDOF 5
ENDMDL
MODEL 2
REMARK VINA RESULT:      -7.5      5.052      7.559
REMARK  Name = 
REMARK  5 active torsions:
REMARK  status: ('A' for Active; 'I' for Inactive)
REMARK    1  A    between atoms: C_2  and  C_4
REMARK    2  A    between atoms: C_9  and  O_10
REMARK    3  A    between atoms: O_10  and  C_11
REMARK    4  A    between atoms: C_11  and  C_12
REMARK    5  A    between atoms: C_14  and  C_15
REMARK                            x       y       z     vdW  Elec       q    Type
REMARK                         _______ _______ _______ _____ _____    ______ ____
ROOT
ATOM      1  O   UNL     1       2.151   5.818  17.991  0.00  0.00    +0.000 OA
ENDROOT
BRANCH   1   7
ATOM      2  C   UNL     1       3.335   2.885  19.825  0.00  0.00    +0.000 A 
ATOM      3  C   UNL     1       2.527   2.929  20.962  0.00  0.00    +0.000 A 
ATOM      4  F   UNL     1       2.626   2.013  21.935  0.00  0.00    +0.000 F 
ATOM      5  C   UNL     1       1.581   3.939  21.133  0.00  0.00    +0.000 A 
ATOM      6  C   UNL     1       1.422   4.928  20.162  0.00  0.00    +0.000 A 
ATOM      7  C   UNL     1       2.212   4.904  19.012  0.00  0.00    +0.000 A 
ATOM      8  C   UNL     1       3.163   3.880  18.857  0.00  0.00    +0.000 A 
ATOM      9  F   UNL     1       3.918   3.883  17.744  0.00  0.00    +0.000 F 
BRANCH   2  11
ATOM     10  N   UNL     1       4.242   0.963  18.609  0.00  0.00    +0.000 N 
ATOM     11  C   UNL     1       4.341   1.801  19.685  0.00  0.00    +0.000 C 
ATOM     12  O   UNL     1       5.249   1.635  20.489  0.00  0.00    +0.000 OA
ATOM     13  H   UNL     1       4.932   0.228  18.520  0.00  0.00    +0.000 HD
ATOM     14  H   UNL     1       3.519   1.038  17.903  0.00  0.00    +0.000 HD
ENDBRANCH   2  11
ENDBRANCH   1   7
BRANCH   1  15
ATOM     15  C   UNL     1       3.039   6.931  18.074  0.00  0.00    +0.000 C 
BRANCH  15  16
ATOM     16  C   UNL     1       2.247   8.107  18.491  0.00  0.00    +0.000 A 
ATOM     17  C   UNL     1       1.712   8.512  19.687  0.00  0.00    +0.000 A 
ATOM     18  C   UNL     1       0.918   9.647  19.373  0.00  0.00    +0.000 A 
ATOM     19  N   UNL     1       1.056   9.951  18.069  0.00  0.00    +0.000 NA
ATOM     20  O   UNL     1       1.877   8.983  17.522  0.00  0.00    +0.000 OA
BRANCH  18  21
ATOM     21  C   UNL     1       0.058  10.442  20.256  0.00  0.00    +0.000 A 
ATOM     22  C   UNL     1      -0.850  11.348  19.670  0.00  0.00    +0.000 A 
ATOM     23  C   UNL     1      -1.698  12.135  20.454  0.00  0.00    +0.000 A 
ATOM     24  C   UNL     1      -1.656  12.035  21.840  0.00  0.00    +0.000 A 
ATOM     25  C   UNL     1      -0.772  11.141  22.440  0.00  0.00    +0.000 A 
ATOM     26  C   UNL     1       0.075  10.342  21.659  0.00  0.00    +0.000 A 
ATOM     27 CL   UNL     1       1.063   9.218  22.533  0.00  0.00    +0.000 Cl
ENDBRANCH  18  21
ENDBRANCH  15  16
ENDBRANCH   1  15
TORSDOF 5
ENDMDL
MODEL 3
REMARK VINA RESULT:      -7.5      5.097      7.369
REMARK  Name = 
REMARK  5 active torsions:
REMARK  status: ('A' for Active; 'I' for Inactive)
REMARK    1  A    between atoms: C_2  and  C_4
REMARK    2  A    between atoms: C_9  and  O_10
REMARK    3  A    between atoms: O_10  and  C_11
REMARK    4  A    between atoms: C_11  and  C_12
REMARK    5  A    between atoms: C_14  and  C_15
REMARK                            x       y       z     vdW  Elec       q    Type
REMARK                         _______ _______ _______ _____ _____    ______ ____
ROOT
ATOM      1  O   UNL     1       3.713   6.731  18.439  0.00  0.00    +0.000 OA
ENDROOT
BRANCH   1   7
ATOM      2  C   UNL     1       2.749   3.470  19.783  0.00  0.00    +0.000 A 
ATOM      3  C   UNL     1       3.093   2.626  18.726  0.00  0.00    +0.000 A 
ATOM      4  F   UNL     1       2.905   1.301  18.789  0.00  0.00    +0.000 F 
ATOM      5  C   UNL     1       3.646   3.134  17.551  0.00  0.00    +0.000 A 
ATOM      6  C   UNL     1       3.871   4.504  17.412  0.00  0.00    +0.000 A 
ATOM      7  C   UNL     1       3.542   5.370  18.456  0.00  0.00    +0.000 A 
ATOM      8  C   UNL     1       2.983   4.841  19.633  0.00  0.00    +0.000 A 
ATOM      9  F   UNL     1       2.668   5.696  20.621  0.00  0.00    +0.000 F 
BRANCH   2  11
ATOM     10  N   UNL     1       0.787   2.824  21.096  0.00  0.00    +0.000 N 
ATOM     11  C   UNL     1       2.150   2.893  21.013  0.00  0.00    +0.000 C 
ATOM     12  O   UNL     1       2.827   2.478  21.945  0.00  0.00    +0.000 OA
ATOM     13  H   UNL     1       0.387   2.428  21.937  0.00  0.00    +0.000 HD
ATOM     14  H   UNL     1       0.163   3.147  20.366  0.00  0.00    +0.000 HD
ENDBRANCH   2  11
ENDBRANCH   1   7
BRANCH   1  15
ATOM     15  C   UNL     1       2.941   7.461  17.488  0.00  0.00    +0.000 C 
BRANCH  15  16
ATOM     16  C   UNL     1       2.074   8.395  18.238  0.00  0.00    +0.000 A 
ATOM     17  C   UNL     1       1.932   8.692  19.569  0.00  0.00    +0.000 A 
ATOM     18  C   UNL     1       0.805   9.554  19.638  0.00  0.00    +0.000 A 
ATOM     19  N   UNL     1       0.365   9.826  18.396  0.00  0.00    +0.000 NA
ATOM     20  O   UNL     1       1.153   9.095  17.528  0.00  0.00    +0.000 OA
BRANCH  18  21
ATOM     21  C   UNL     1       0.152  10.124  20.822  0.00  0.00    +0.000 A 
ATOM     22  C   UNL     1      -0.168   9.263  21.891  0.00  0.00    +0.000 A 
ATOM     23  C   UNL     1      -0.790   9.742  23.048  0.00  0.00    +0.000 A 
ATOM     24  C   UNL     1      -1.107  11.091  23.160  0.00  0.00    +0.000 A 
ATOM     25  C   UNL     1      -0.792  11.961  22.118  0.00  0.00    +0.000 A 
ATOM     26  C   UNL     1      -0.160  11.489  20.959  0.00  0.00    +0.000 A 
ATOM     27 CL   UNL     1       0.245  12.694  19.781  0.00  0.00    +0.000 Cl
ENDBRANCH  18  21
ENDBRANCH  15  16
ENDBRANCH   1  15
TORSDOF 5
ENDMDL
MODEL 4
REMARK VINA RESULT:      -7.5      5.661      7.530
REMARK  Name = 
REMARK  5 active torsions:
REMARK  status: ('A' for Active; 'I' for Inactive)
REMARK    1  A    between atoms: C_2  and  C_4
REMARK    2  A    between atoms: C_9  and  O_10
REMARK    3  A    between atoms: O_10  and  C_11
REMARK    4  A    between atoms: C_11  and  C_12
REMARK    5  A    between atoms: C_14  and  C_15
REMARK                            x       y       z     vdW  Elec       q    Type
REMARK                         _______ _______ _______ _____ _____    ______ ____
ROOT
ATOM      1  O   UNL     1       7.714   9.468  17.816  0.00  0.00    +0.000 OA
ENDROOT
BRANCH   1   7
ATOM      2  C   UNL     1       9.402  12.653  18.426  0.00  0.00    +0.000 A 
ATOM      3  C   UNL     1      10.266  12.310  19.467  0.00  0.00    +0.000 A 
ATOM      4  F   UNL     1      11.098  13.203  20.019  0.00  0.00    +0.000 F 
ATOM      5  C   UNL     1      10.293  11.014  19.981  0.00  0.00    +0.000 A 
ATOM      6  C   UNL     1       9.454  10.030  19.457  0.00  0.00    +0.000 A 
ATOM      7  C   UNL     1       8.585  10.344  18.411  0.00  0.00    +0.000 A 
ATOM      8  C   UNL     1       8.569  11.657  17.907  0.00  0.00    +0.000 A 
ATOM      9  F   UNL     1       7.717  11.937  16.905  0.00  0.00    +0.000 F 
BRANCH   2  11
ATOM     10  N   UNL     1      10.343  14.407  17.001  0.00  0.00    +0.000 N 
ATOM     11  C   UNL     1       9.392  14.048  17.914  0.00  0.00    +0.000 C 
ATOM     12  O   UNL     1       8.568  14.877  18.276  0.00  0.00    +0.000 OA
ATOM     13  H   UNL     1      10.328  15.359  16.656  0.00  0.00    +0.000 HD
ATOM     14  H   UNL     1      11.057  13.776  16.655  0.00  0.00    +0.000 HD
ENDBRANCH   2  11
ENDBRANCH   1   7
BRANCH   1  15
ATOM     15  C   UNL     1       8.106   8.097  17.784  0.00  0.00    +0.000 C 
BRANCH  15  16
ATOM     16  C   UNL     1       6.913   7.297  17.438  0.00  0.00    +0.000 A 
ATOM     17  C   UNL     1       5.941   6.678  18.181  0.00  0.00    +0.000 A 
ATOM     18  C   UNL     1       5.176   5.933  17.244  0.00  0.00    +0.000 A 
ATOM     19  N   UNL     1       5.620   6.179  15.998  0.00  0.00    +0.000 NA
ATOM     20  O   UNL     1       6.708   7.021  16.125  0.00  0.00    +0.000 OA
BRANCH  18  21
ATOM     21  C   UNL     1       4.053   5.021  17.489  0.00  0.00    +0.000 A 
ATOM     22  C   UNL     1       4.277   3.634  17.370  0.00  0.00    +0.000 A 
ATOM     23  C   UNL     1       3.250   2.711  17.590  0.00  0.00    +0.000 A 
ATOM     24  C   UNL     1       1.979   3.154  17.933  0.00  0.00    +0.000 A 
ATOM     25  C   UNL     1       1.737   4.520  18.064  0.00  0.00    +0.000 A 
ATOM     26  C   UNL     1       2.764   5.451  17.853  0.00  0.00    +0.000 A 
ATOM     27 CL   UNL     1       2.343   7.109  18.130  0.00  0.00    +0.000 Cl
ENDBRANCH  18  21
ENDBRANCH  15  16
ENDBRANCH   1  15
TORSDOF 5
ENDMDL
MODEL 5
REMARK VINA RESULT:      -7.4      6.013      7.926
REMARK  Name = 
REMARK  5 active torsions:
REMARK  status: ('A' for Active; 'I' for Inactive)
REMARK    1  A    between atoms: C_2  and  C_4
REMARK    2  A    between atoms: C_9  and  O_10
REMARK    3  A    between atoms: O_10  and  C_11
REMARK    4  A    between atoms: C_11  and  C_12
REMARK    5  A    between atoms: C_14  and  C_15
REMARK                            x       y       z     vdW  Elec       q    Type
REMARK                         _______ _______ _______ _____ _____    ______ ____
ROOT
ATOM      1  O   UNL     1       7.841   9.716  17.923  0.00  0.00    +0.000 OA
ENDROOT
BRANCH   1   7
ATOM      2  C   UNL     1       9.423  12.963  18.495  0.00  0.00    +0.000 A 
ATOM      3  C   UNL     1      10.268  12.671  19.566  0.00  0.00    +0.000 A 
ATOM      4  F   UNL     1      11.059  13.601  20.116  0.00  0.00    +0.000 F 
ATOM      5  C   UNL     1      10.318  11.390  20.114  0.00  0.00    +0.000 A 
ATOM      6  C   UNL     1       9.521  10.369  19.594  0.00  0.00    +0.000 A 
ATOM      7  C   UNL     1       8.671  10.632  18.518  0.00  0.00    +0.000 A 
ATOM      8  C   UNL     1       8.632  11.931  17.980  0.00  0.00    +0.000 A 
ATOM      9  F   UNL     1       7.799  12.161  16.949  0.00  0.00    +0.000 F 
BRANCH   2  11
ATOM     10  N   UNL     1      10.389  14.728  17.100  0.00  0.00    +0.000 N 
ATOM     11  C   UNL     1       9.387  14.343  17.947  0.00  0.00    +0.000 C 
ATOM     12  O   UNL     1       8.499  15.140  18.223  0.00  0.00    +0.000 OA
ATOM     13  H   UNL     1      10.356  15.670  16.731  0.00  0.00    +0.000 HD
ATOM     14  H   UNL     1      11.156  14.126  16.827  0.00  0.00    +0.000 HD
ENDBRANCH   2  11
ENDBRANCH   1   7
BRANCH   1  15
ATOM     15  C   UNL     1       8.441   8.500  17.483  0.00  0.00    +0.000 C 
BRANCH  15  16
ATOM     16  C   UNL     1       7.476   7.408  17.732  0.00  0.00    +0.000 A 
ATOM     17  C   UNL     1       6.250   7.090  17.205  0.00  0.00    +0.000 A 
ATOM     18  C   UNL     1       5.772   6.015  18.000  0.00  0.00    +0.000 A 
ATOM     19  N   UNL     1       6.713   5.657  18.893  0.00  0.00    +0.000 NA
ATOM     20  O   UNL     1       7.768   6.534  18.729  0.00  0.00    +0.000 OA
BRANCH  18  21
ATOM     21  C   UNL     1       4.479   5.324  17.934  0.00  0.00    +0.000 A 
ATOM     22  C   UNL     1       3.427   5.792  18.747  0.00  0.00    +0.000 A 
ATOM     23  C   UNL     1       2.170   5.179  18.732  0.00  0.00    +0.000 A 
ATOM     24  C   UNL     1       1.940   4.086  17.906  0.00  0.00    +0.000 A 
ATOM     25  C   UNL     1       2.964   3.612  17.088  0.00  0.00    +0.000 A 
ATOM     26  C   UNL     1       4.223   4.227  17.092  0.00  0.00    +0.000 A 
ATOM     27 CL   UNL     1       5.376   3.585  15.968  0.00  0.00    +0.000 Cl
ENDBRANCH  18  21
ENDBRANCH  15  16
ENDBRANCH   1  15
TORSDOF 5
ENDMDL
MODEL 6
REMARK VINA RESULT:      -7.4      5.832      8.279
REMARK  Name = 
REMARK  5 active torsions:
REMARK  status: ('A' for Active; 'I' for Inactive)
REMARK    1  A    between atoms: C_2  and  C_4
REMARK    2  A    between atoms: C_9  and  O_10
REMARK    3  A    between atoms: O_10  and  C_11
REMARK    4  A    between atoms: C_11  and  C_12
REMARK    5  A    between atoms: C_14  and  C_15
REMARK                            x       y       z     vdW  Elec       q    Type
REMARK                         _______ _______ _______ _____ _____    ______ ____
ROOT
ATOM      1  O   UNL     1       3.138   6.905  19.171  0.00  0.00    +0.000 OA
ENDROOT
BRANCH   1   7
ATOM      2  C   UNL     1       3.141   3.278  19.636  0.00  0.00    +0.000 A 
ATOM      3  C   UNL     1       2.023   3.106  20.453  0.00  0.00    +0.000 A 
ATOM      4  F   UNL     1       1.639   1.896  20.882  0.00  0.00    +0.000 F 
ATOM      5  C   UNL     1       1.257   4.197  20.862  0.00  0.00    +0.000 A 
ATOM      6  C   UNL     1       1.595   5.488  20.455  0.00  0.00    +0.000 A 
ATOM      7  C   UNL     1       2.705   5.688  19.633  0.00  0.00    +0.000 A 
ATOM      8  C   UNL     1       3.468   4.577  19.233  0.00  0.00    +0.000 A 
ATOM      9  F   UNL     1       4.537   4.795  18.447  0.00  0.00    +0.000 F 
BRANCH   2  11
ATOM     10  N   UNL     1       5.023   1.755  19.995  0.00  0.00    +0.000 N 
ATOM     11  C   UNL     1       3.940   2.093  19.233  0.00  0.00    +0.000 C 
ATOM     12  O   UNL     1       3.663   1.413  18.253  0.00  0.00    +0.000 OA
ATOM     13  H   UNL     1       5.561   0.944  19.714  0.00  0.00    +0.000 HD
ATOM     14  H   UNL     1       5.314   2.268  20.818  0.00  0.00    +0.000 HD
ENDBRANCH   2  11
ENDBRANCH   1   7
BRANCH   1  15
ATOM     15  C   UNL     1       2.441   7.450  18.053  0.00  0.00    +0.000 C 
BRANCH  15  16
ATOM     16  C   UNL     1       1.882   8.754  18.466  0.00  0.00    +0.000 A 
ATOM     17  C   UNL     1       1.911  10.012  17.920  0.00  0.00    +0.000 A 
ATOM     18  C   UNL     1       1.328  10.856  18.902  0.00  0.00    +0.000 A 
ATOM     19  N   UNL     1       0.891  10.114  19.937  0.00  0.00    +0.000 NA
ATOM     20  O   UNL     1       1.247   8.807  19.664  0.00  0.00    +0.000 OA
BRANCH  18  21
ATOM     21  C   UNL     1       1.166  12.314  18.885  0.00  0.00    +0.000 A 
ATOM     22  C   UNL     1       2.288  13.117  19.178  0.00  0.00    +0.000 A 
ATOM     23  C   UNL     1       2.202  14.512  19.178  0.00  0.00    +0.000 A 
ATOM     24  C   UNL     1       0.994  15.135  18.889  0.00  0.00    +0.000 A 
ATOM     25  C   UNL     1      -0.126  14.361  18.589  0.00  0.00    +0.000 A 
ATOM     26  C   UNL     1      -0.045  12.961  18.578  0.00  0.00    +0.000 A 
ATOM     27 CL   UNL     1      -1.491  12.129  18.110  0.00  0.00    +0.000 Cl
ENDBRANCH  18  21
ENDBRANCH  15  16
ENDBRANCH   1  15
TORSDOF 5
ENDMDL
MODEL 7
REMARK VINA RESULT:      -7.4      5.255      7.691
REMARK  Name = 
REMARK  5 active torsions:
REMARK  status: ('A' for Active; 'I' for Inactive)
REMARK    1  A    between atoms: C_2  and  C_4
REMARK    2  A    between atoms: C_9  and  O_10
REMARK    3  A    between atoms: O_10  and  C_11
REMARK    4  A    between atoms: C_11  and  C_12
REMARK    5  A    between atoms: C_14  and  C_15
REMARK                            x       y       z     vdW  Elec       q    Type
REMARK                         _______ _______ _______ _____ _____    ______ ____
ROOT
ATOM      1  O   UNL     1       3.266   7.188  18.731  0.00  0.00    +0.000 OA
ENDROOT
BRANCH   1   7
ATOM      2  C   UNL     1       2.621   3.751  19.800  0.00  0.00    +0.000 A 
ATOM      3  C   UNL     1       3.040   3.033  18.679  0.00  0.00    +0.000 A 
ATOM      4  F   UNL     1       2.979   1.696  18.632  0.00  0.00    +0.000 F 
ATOM      5  C   UNL     1       3.538   3.687  17.552  0.00  0.00    +0.000 A 
ATOM      6  C   UNL     1       3.631   5.078  17.527  0.00  0.00    +0.000 A 
ATOM      7  C   UNL     1       3.225   5.821  18.636  0.00  0.00    +0.000 A 
ATOM      8  C   UNL     1       2.723   5.146  19.764  0.00  0.00    +0.000 A 
ATOM      9  F   UNL     1       2.331   5.884  20.818  0.00  0.00    +0.000 F 
BRANCH   2  11
ATOM     10  N   UNL     1       0.730   2.859  21.072  0.00  0.00    +0.000 N 
ATOM     11  C   UNL     1       2.084   3.021  20.976  0.00  0.00    +0.000 C 
ATOM     12  O   UNL     1       2.804   2.562  21.853  0.00  0.00    +0.000 OA
ATOM     13  H   UNL     1       0.372   2.359  21.876  0.00  0.00    +0.000 HD
ATOM     14  H   UNL     1       0.072   3.211  20.387  0.00  0.00    +0.000 HD
ENDBRANCH   2  11
ENDBRANCH   1   7
BRANCH   1  15
ATOM     15  C   UNL     1       2.476   7.919  17.795  0.00  0.00    +0.000 C 
BRANCH  15  16
ATOM     16  C   UNL     1       1.773   8.986  18.538  0.00  0.00    +0.000 A 
ATOM     17  C   UNL     1       1.133   9.031  19.750  0.00  0.00    +0.000 A 
ATOM     18  C   UNL     1       0.521  10.311  19.798  0.00  0.00    +0.000 A 
ATOM     19  N   UNL     1       0.864  11.020  18.707  0.00  0.00    +0.000 NA
ATOM     20  O   UNL     1       1.636  10.187  17.921  0.00  0.00    +0.000 OA
BRANCH  18  21
ATOM     21  C   UNL     1      -0.354  10.876  20.832  0.00  0.00    +0.000 A 
ATOM     22  C   UNL     1      -1.318  11.830  20.447  0.00  0.00    +0.000 A 
ATOM     23  C   UNL     1      -2.183  12.406  21.382  0.00  0.00    +0.000 A 
ATOM     24  C   UNL     1      -2.102  12.043  22.721  0.00  0.00    +0.000 A 
ATOM     25  C   UNL     1      -1.162  11.095  23.123  0.00  0.00    +0.000 A 
ATOM     26  C   UNL     1      -0.298  10.507  22.189  0.00  0.00    +0.000 A 
ATOM     27 CL   UNL     1       0.763   9.287  22.812  0.00  0.00    +0.000 Cl
ENDBRANCH  18  21
ENDBRANCH  15  16
ENDBRANCH   1  15
TORSDOF 5
ENDMDL
MODEL 8
REMARK VINA RESULT:      -7.4      5.030      6.405
REMARK  Name = 
REMARK  5 active torsions:
REMARK  status: ('A' for Active; 'I' for Inactive)
REMARK    1  A    between atoms: C_2  and  C_4
REMARK    2  A    between atoms: C_9  and  O_10
REMARK    3  A    between atoms: O_10  and  C_11
REMARK    4  A    between atoms: C_11  and  C_12
REMARK    5  A    between atoms: C_14  and  C_15
REMARK                            x       y       z     vdW  Elec       q    Type
REMARK                         _______ _______ _______ _____ _____    ______ ____
ROOT
ATOM      1  O   UNL     1       3.747   7.225  17.454  0.00  0.00    +0.000 OA
ENDROOT
BRANCH   1   7
ATOM      2  C   UNL     1       6.509   5.254  16.090  0.00  0.00    +0.000 A 
ATOM      3  C   UNL     1       7.127   4.805  17.258  0.00  0.00    +0.000 A 
ATOM      4  F   UNL     1       8.216   4.026  17.227  0.00  0.00    +0.000 F 
ATOM      5  C   UNL     1       6.633   5.157  18.514  0.00  0.00    +0.000 A 
ATOM      6  C   UNL     1       5.503   5.967  18.625  0.00  0.00    +0.000 A 
ATOM      7  C   UNL     1       4.861   6.425  17.474  0.00  0.00    +0.000 A 
ATOM      8  C   UNL     1       5.374   6.062  16.216  0.00  0.00    +0.000 A 
ATOM      9  F   UNL     1       4.743   6.522  15.121  0.00  0.00    +0.000 F 
BRANCH   2  11
ATOM     10  N   UNL     1       6.530   3.793  14.127  0.00  0.00    +0.000 N 
ATOM     11  C   UNL     1       7.072   4.869  14.771  0.00  0.00    +0.000 C 
ATOM     12  O   UNL     1       7.995   5.478  14.245  0.00  0.00    +0.000 OA
ATOM     13  H   UNL     1       6.919   3.539  13.227  0.00  0.00    +0.000 HD
ATOM     14  H   UNL     1       5.767   3.241  14.499  0.00  0.00    +0.000 HD
ENDBRANCH   2  11
ENDBRANCH   1   7
BRANCH   1  15
ATOM     15  C   UNL     1       2.665   6.838  18.298  0.00  0.00    +0.000 C 
BRANCH  15  16
ATOM     16  C   UNL     1       1.964   8.069  18.721  0.00  0.00    +0.000 A 
ATOM     17  C   UNL     1       1.598   9.219  18.072  0.00  0.00    +0.000 A 
ATOM     18  C   UNL     1       1.108  10.080  19.090  0.00  0.00    +0.000 A 
ATOM     19  N   UNL     1       1.099   9.430  20.268  0.00  0.00    +0.000 NA
ATOM     20  O   UNL     1       1.642   8.181  20.035  0.00  0.00    +0.000 OA
BRANCH  18  21
ATOM     21  C   UNL     1       0.647  11.468  18.980  0.00  0.00    +0.000 A 
ATOM     22  C   UNL     1       1.530  12.500  19.360  0.00  0.00    +0.000 A 
ATOM     23  C   UNL     1       1.154  13.844  19.279  0.00  0.00    +0.000 A 
ATOM     24  C   UNL     1      -0.112  14.185  18.819  0.00  0.00    +0.000 A 
ATOM     25  C   UNL     1      -0.998  13.183  18.431  0.00  0.00    +0.000 A 
ATOM     26  C   UNL     1      -0.624  11.833  18.501  0.00  0.00    +0.000 A 
ATOM     27 CL   UNL     1      -1.794  10.699  17.910  0.00  0.00    +0.000 Cl
ENDBRANCH  18  21
ENDBRANCH  15  16
ENDBRANCH   1  15
TORSDOF 5
ENDMDL
MODEL 9
REMARK VINA RESULT:      -7.4      4.518      5.968
REMARK  Name = 
REMARK  5 active torsions:
REMARK  status: ('A' for Active; 'I' for Inactive)
REMARK    1  A    between atoms: C_2  and  C_4
REMARK    2  A    between atoms: C_9  and  O_10
REMARK    3  A    between atoms: O_10  and  C_11
REMARK    4  A    between atoms: C_11  and  C_12
REMARK    5  A    between atoms: C_14  and  C_15
REMARK                            x       y       z     vdW  Elec       q    Type
REMARK                         _______ _______ _______ _____ _____    ______ ____
ROOT
ATOM      1  O   UNL     1       3.898   7.470  17.519  0.00  0.00    +0.000 OA
ENDROOT
BRANCH   1   7
ATOM      2  C   UNL     1       6.523   5.342  16.123  0.00  0.00    +0.000 A 
ATOM      3  C   UNL     1       7.135   4.865  17.283  0.00  0.00    +0.000 A 
ATOM      4  F   UNL     1       8.178   4.027  17.239  0.00  0.00    +0.000 F 
ATOM      5  C   UNL     1       6.682   5.251  18.545  0.00  0.00    +0.000 A 
ATOM      6  C   UNL     1       5.600   6.123  18.670  0.00  0.00    +0.000 A 
ATOM      7  C   UNL     1       4.966   6.610  17.526  0.00  0.00    +0.000 A 
ATOM      8  C   UNL     1       5.437   6.212  16.262  0.00  0.00    +0.000 A 
ATOM      9  F   UNL     1       4.814   6.701  15.174  0.00  0.00    +0.000 F 
BRANCH   2  11
ATOM     10  N   UNL     1       6.499   3.808  14.216  0.00  0.00    +0.000 N 
ATOM     11  C   UNL     1       7.042   4.919  14.797  0.00  0.00    +0.000 C 
ATOM     12  O   UNL     1       7.929   5.527  14.211  0.00  0.00    +0.000 OA
ATOM     13  H   UNL     1       6.858   3.527  13.311  0.00  0.00    +0.000 HD
ATOM     14  H   UNL     1       5.765   3.254  14.640  0.00  0.00    +0.000 HD
ENDBRANCH   2  11
ENDBRANCH   1   7
BRANCH   1  15
ATOM     15  C   UNL     1       2.676   6.979  18.065  0.00  0.00    +0.000 C 
BRANCH  15  16
ATOM     16  C   UNL     1       1.964   8.123  18.672  0.00  0.00    +0.000 A 
ATOM     17  C   UNL     1       1.674   8.480  19.964  0.00  0.00    +0.000 A 
ATOM     18  C   UNL     1       0.814   9.604  19.854  0.00  0.00    +0.000 A 
ATOM     19  N   UNL     1       0.681   9.950  18.560  0.00  0.00    +0.000 NA
ATOM     20  O   UNL     1       1.392   9.018  17.828  0.00  0.00    +0.000 OA
BRANCH  18  21
ATOM     21  C   UNL     1       0.135  10.353  20.918  0.00  0.00    +0.000 A 
ATOM     22  C   UNL     1      -0.274   9.656  22.073  0.00  0.00    +0.000 A 
ATOM     23  C   UNL     1      -0.925  10.309  23.124  0.00  0.00    +0.000 A 
ATOM     24  C   UNL     1      -1.182  11.673  23.041  0.00  0.00    +0.000 A 
ATOM     25  C   UNL     1      -0.779  12.383  21.913  0.00  0.00    +0.000 A 
ATOM     26  C   UNL     1      -0.118  11.736  20.859  0.00  0.00    +0.000 A 
ATOM     27 CL   UNL     1       0.397  12.756  19.557  0.00  0.00    +0.000 Cl
ENDBRANCH  18  21
ENDBRANCH  15  16
ENDBRANCH   1  15
TORSDOF 5
ENDMDL
