MODEL 1
REMARK VINA RESULT:      -8.3      0.000      0.000
REMARK  Name = 
REMARK  12 active torsions:
REMARK  status: ('A' for Active; 'I' for Inactive)
REMARK    1  A    between atoms: C_1  and  C_2
REMARK    2  A    between atoms: C_2  and  C_3
REMARK    3  A    between atoms: C_8  and  C_9
REMARK    4  A    between atoms: N_12  and  C_13
REMARK    5  A    between atoms: C_13  and  C_14
REMARK    6  A    between atoms: C_14  and  C_15
REMARK    7  A    between atoms: C_15  and  N_16
REMARK    8  A    between atoms: N_16  and  C_17
REMARK    9  A    between atoms: N_16  and  C_18
REMARK   10  A    between atoms: C_20  and  C_21
REMARK   11  A    between atoms: C_20  and  C_22
REMARK   12  A    between atoms: C_27  and  C_28
REMARK                            x       y       z     vdW  Elec       q    Type
REMARK                         _______ _______ _______ _____ _____    ______ ____
ROOT
ATOM      1  C   UNL     1       2.002   6.474  20.349  0.00  0.00    +0.000 A 
ATOM      2  C   UNL     1       1.257   7.349  21.159  0.00  0.00    +0.000 A 
ATOM      3  C   UNL     1       0.800   8.592  20.716  0.00  0.00    +0.000 A 
ATOM      4  C   UNL     1       1.080   9.024  19.414  0.00  0.00    +0.000 A 
ATOM      5  C   UNL     1       1.828   8.155  18.598  0.00  0.00    +0.000 A 
ATOM      6  C   UNL     1       2.281   6.885  19.031  0.00  0.00    +0.000 A 
ATOM      7  C   UNL     1       0.605  10.385  18.874  0.00  0.00    +0.000 C 
ATOM      8  C   UNL     1       1.841  11.244  18.536  0.00  0.00    +0.000 C 
ATOM      9  C   UNL     1      -0.265  10.149  17.622  0.00  0.00    +0.000 C 
ATOM     10  C   UNL     1      -0.215  11.103  19.923  0.00  0.00    +0.000 A 
ATOM     11  N   UNL     1      -0.828  12.322  19.774  0.00  0.00    +0.000 N 
ATOM     12  C   UNL     1      -1.469  12.673  20.946  0.00  0.00    +0.000 A 
ATOM     13  C   UNL     1      -2.206  13.816  21.268  0.00  0.00    +0.000 A 
ATOM     14  C   UNL     1      -2.746  13.905  22.563  0.00  0.00    +0.000 A 
ATOM     15  C   UNL     1      -2.555  12.878  23.491  0.00  0.00    +0.000 A 
ATOM     16  C   UNL     1      -1.820  11.746  23.153  0.00  0.00    +0.000 A 
ATOM     17  C   UNL     1      -1.262  11.640  21.858  0.00  0.00    +0.000 A 
ATOM     18  C   UNL     1      -0.475  10.660  21.203  0.00  0.00    +0.000 A 
ATOM     19  C   UNL     1       0.022   9.401  21.696  0.00  0.00    +0.000 C 
ATOM     20  O   UNL     1      -0.176   9.004  22.839  0.00  0.00    +0.000 OA
ATOM     21  H   UNL     1      -0.810  12.893  18.940  0.00  0.00    +0.000 HD
ENDROOT
BRANCH   6  22
ATOM     22  C   UNL     1       3.033   6.086  18.075  0.00  0.00    +0.000 A 
ATOM     23  C   UNL     1       2.949   4.733  17.674  0.00  0.00    +0.000 A 
ATOM     24  N   UNL     1       3.897   4.387  16.803  0.00  0.00    +0.000 NA
ATOM     25  N   UNL     1       4.581   5.527  16.618  0.00  0.00    +0.000 N 
ATOM     26  C   UNL     1       4.086   6.578  17.327  0.00  0.00    +0.000 A 
BRANCH  25  27
ATOM     27  C   UNL     1       5.666   5.557  15.659  0.00  0.00    +0.000 C 
BRANCH  27  28
ATOM     28  C   UNL     1       7.009   5.791  16.345  0.00  0.00    +0.000 C 
BRANCH  28  29
ATOM     29  C   UNL     1       7.359   4.666  17.327  0.00  0.00    +0.000 C 
BRANCH  29  30
ATOM     30  N   UNL     1       7.577   5.160  18.698  0.00  0.00    +0.000 NA
ATOM     31  C   UNL     1       8.016   6.557  18.718  0.00  0.00    +0.000 C 
ATOM     32  C   UNL     1       6.348   5.010  19.477  0.00  0.00    +0.000 C 
ENDBRANCH  29  30
ENDBRANCH  28  29
ENDBRANCH  27  28
ENDBRANCH  25  27
ENDBRANCH   6  22
BRANCH   1  34
ATOM     33  C   UNL     1       1.456   4.010  20.874  0.00  0.00    +0.000 C 
ATOM     34  C   UNL     1       2.468   5.153  20.928  0.00  0.00    +0.000 C 
ENDBRANCH   1  34
BRANCH  14  35
ATOM     35  C   UNL     1      -3.504  15.060  22.930  0.00  0.00    +0.000 C 
ATOM     36  N   UNL     1      -4.121  16.004  23.230  0.00  0.00    +0.000 NA
ENDBRANCH  14  35
TORSDOF 7
ENDMDL
MODEL 2
REMARK VINA RESULT:      -8.1      0.799      1.035
REMARK  Name = 
REMARK  12 active torsions:
REMARK  status: ('A' for Active; 'I' for Inactive)
REMARK    1  A    between atoms: C_1  and  C_2
REMARK    2  A    between atoms: C_2  and  C_3
REMARK    3  A    between atoms: C_8  and  C_9
REMARK    4  A    between atoms: N_12  and  C_13
REMARK    5  A    between atoms: C_13  and  C_14
REMARK    6  A    between atoms: C_14  and  C_15
REMARK    7  A    between atoms: C_15  and  N_16
REMARK    8  A    between atoms: N_16  and  C_17
REMARK    9  A    between atoms: N_16  and  C_18
REMARK   10  A    between atoms: C_20  and  C_21
REMARK   11  A    between atoms: C_20  and  C_22
REMARK   12  A    between atoms: C_27  and  C_28
REMARK                            x       y       z     vdW  Elec       q    Type
REMARK                         _______ _______ _______ _____ _____    ______ ____
ROOT
ATOM      1  C   UNL     1       1.994   6.128  20.421  0.00  0.00    +0.000 A 
ATOM      2  C   UNL     1       1.384   7.132  21.193  0.00  0.00    +0.000 A 
ATOM      3  C   UNL     1       1.015   8.373  20.671  0.00  0.00    +0.000 A 
ATOM      4  C   UNL     1       1.248   8.670  19.323  0.00  0.00    +0.000 A 
ATOM      5  C   UNL     1       1.860   7.670  18.545  0.00  0.00    +0.000 A 
ATOM      6  C   UNL     1       2.224   6.403  19.059  0.00  0.00    +0.000 A 
ATOM      7  C   UNL     1       0.864  10.022  18.695  0.00  0.00    +0.000 C 
ATOM      8  C   UNL     1       2.148  10.729  18.215  0.00  0.00    +0.000 C 
ATOM      9  C   UNL     1      -0.103   9.770  17.520  0.00  0.00    +0.000 C 
ATOM     10  C   UNL     1       0.181  10.897  19.722  0.00  0.00    +0.000 A 
ATOM     11  N   UNL     1      -0.328  12.153  19.504  0.00  0.00    +0.000 N 
ATOM     12  C   UNL     1      -0.858  12.657  20.675  0.00  0.00    +0.000 A 
ATOM     13  C   UNL     1      -1.466  13.888  20.938  0.00  0.00    +0.000 A 
ATOM     14  C   UNL     1      -1.912  14.132  22.249  0.00  0.00    +0.000 A 
ATOM     15  C   UNL     1      -1.755  13.170  23.250  0.00  0.00    +0.000 A 
ATOM     16  C   UNL     1      -1.148  11.949  22.970  0.00  0.00    +0.000 A 
ATOM     17  C   UNL     1      -0.687  11.686  21.660  0.00  0.00    +0.000 A 
ATOM     18  C   UNL     1      -0.036  10.586  21.049  0.00  0.00    +0.000 A 
ATOM     19  C   UNL     1       0.377   9.329  21.620  0.00  0.00    +0.000 C 
ATOM     20  O   UNL     1       0.217   9.047  22.802  0.00  0.00    +0.000 OA
ATOM     21  H   UNL     1      -0.312  12.650  18.624  0.00  0.00    +0.000 HD
ENDROOT
BRANCH   6  22
ATOM     22  C   UNL     1       2.838   5.460  18.135  0.00  0.00    +0.000 A 
ATOM     23  C   UNL     1       2.432   4.205  17.629  0.00  0.00    +0.000 A 
ATOM     24  N   UNL     1       3.347   3.638  16.844  0.00  0.00    +0.000 NA
ATOM     25  N   UNL     1       4.339   4.542  16.819  0.00  0.00    +0.000 N 
ATOM     26  C   UNL     1       4.072   5.661  17.545  0.00  0.00    +0.000 A 
BRANCH  25  27
ATOM     27  C   UNL     1       5.501   4.299  15.989  0.00  0.00    +0.000 C 
BRANCH  27  28
ATOM     28  C   UNL     1       6.796   4.544  16.759  0.00  0.00    +0.000 C 
BRANCH  28  29
ATOM     29  C   UNL     1       7.298   5.985  16.601  0.00  0.00    +0.000 C 
BRANCH  29  30
ATOM     30  N   UNL     1       7.240   6.744  17.862  0.00  0.00    +0.000 NA
ATOM     31  C   UNL     1       7.824   6.002  18.982  0.00  0.00    +0.000 C 
ATOM     32  C   UNL     1       7.928   8.025  17.698  0.00  0.00    +0.000 C 
ENDBRANCH  29  30
ENDBRANCH  28  29
ENDBRANCH  27  28
ENDBRANCH  25  27
ENDBRANCH   6  22
BRANCH   1  34
ATOM     33  C   UNL     1       1.323   3.714  21.026  0.00  0.00    +0.000 C 
ATOM     34  C   UNL     1       2.375   4.819  21.085  0.00  0.00    +0.000 C 
ENDBRANCH   1  34
BRANCH  14  35
ATOM     35  C   UNL     1      -2.538  15.380  22.557  0.00  0.00    +0.000 C 
ATOM     36  N   UNL     1      -3.046  16.399  22.810  0.00  0.00    +0.000 NA
ENDBRANCH  14  35
TORSDOF 7
ENDMDL
MODEL 3
REMARK VINA RESULT:      -7.8      1.667      2.549
REMARK  Name = 
REMARK  12 active torsions:
REMARK  status: ('A' for Active; 'I' for Inactive)
REMARK    1  A    between atoms: C_1  and  C_2
REMARK    2  A    between atoms: C_2  and  C_3
REMARK    3  A    between atoms: C_8  and  C_9
REMARK    4  A    between atoms: N_12  and  C_13
REMARK    5  A    between atoms: C_13  and  C_14
REMARK    6  A    between atoms: C_14  and  C_15
REMARK    7  A    between atoms: C_15  and  N_16
REMARK    8  A    between atoms: N_16  and  C_17
REMARK    9  A    between atoms: N_16  and  C_18
REMARK   10  A    between atoms: C_20  and  C_21
REMARK   11  A    between atoms: C_20  and  C_22
REMARK   12  A    between atoms: C_27  and  C_28
REMARK                            x       y       z     vdW  Elec       q    Type
REMARK                         _______ _______ _______ _____ _____    ______ ____
ROOT
ATOM      1  C   UNL     1       2.388   6.102  20.114  0.00  0.00    +0.000 A 
ATOM      2  C   UNL     1       1.644   6.972  20.930  0.00  0.00    +0.000 A 
ATOM      3  C   UNL     1       1.187   8.217  20.495  0.00  0.00    +0.000 A 
ATOM      4  C   UNL     1       1.465   8.656  19.195  0.00  0.00    +0.000 A 
ATOM      5  C   UNL     1       2.213   7.792  18.373  0.00  0.00    +0.000 A 
ATOM      6  C   UNL     1       2.667   6.520  18.799  0.00  0.00    +0.000 A 
ATOM      7  C   UNL     1       0.990  10.021  18.663  0.00  0.00    +0.000 C 
ATOM      8  C   UNL     1       2.225  10.881  18.328  0.00  0.00    +0.000 C 
ATOM      9  C   UNL     1       0.118   9.791  17.411  0.00  0.00    +0.000 C 
ATOM     10  C   UNL     1       0.170  10.732  19.717  0.00  0.00    +0.000 A 
ATOM     11  N   UNL     1      -0.443  11.952  19.576  0.00  0.00    +0.000 N 
ATOM     12  C   UNL     1      -1.082  12.297  20.750  0.00  0.00    +0.000 A 
ATOM     13  C   UNL     1      -1.819  13.438  21.079  0.00  0.00    +0.000 A 
ATOM     14  C   UNL     1      -2.358  13.519  22.375  0.00  0.00    +0.000 A 
ATOM     15  C   UNL     1      -2.166  12.487  23.297  0.00  0.00    +0.000 A 
ATOM     16  C   UNL     1      -1.430  11.357  22.952  0.00  0.00    +0.000 A 
ATOM     17  C   UNL     1      -0.874  11.258  21.656  0.00  0.00    +0.000 A 
ATOM     18  C   UNL     1      -0.088  10.282  20.995  0.00  0.00    +0.000 A 
ATOM     19  C   UNL     1       0.410   9.020  21.480  0.00  0.00    +0.000 C 
ATOM     20  O   UNL     1       0.213   8.617  22.621  0.00  0.00    +0.000 OA
ATOM     21  H   UNL     1      -0.426  12.527  18.744  0.00  0.00    +0.000 HD
ENDROOT
BRANCH   6  22
ATOM     22  C   UNL     1       3.418   5.726  17.837  0.00  0.00    +0.000 A 
ATOM     23  C   UNL     1       3.287   4.397  17.376  0.00  0.00    +0.000 A 
ATOM     24  N   UNL     1       4.251   4.042  16.526  0.00  0.00    +0.000 NA
ATOM     25  N   UNL     1       4.993   5.155  16.416  0.00  0.00    +0.000 N 
ATOM     26  C   UNL     1       4.520   6.198  17.151  0.00  0.00    +0.000 A 
BRANCH  25  27
ATOM     27  C   UNL     1       6.115   5.173  15.499  0.00  0.00    +0.000 C 
BRANCH  27  28
ATOM     28  C   UNL     1       6.183   3.889  14.677  0.00  0.00    +0.000 C 
BRANCH  28  29
ATOM     29  C   UNL     1       6.097   4.164  13.170  0.00  0.00    +0.000 C 
BRANCH  29  30
ATOM     30  N   UNL     1       5.656   2.984  12.406  0.00  0.00    +0.000 NA
ATOM     31  C   UNL     1       4.490   3.273  11.568  0.00  0.00    +0.000 C 
ATOM     32  C   UNL     1       6.758   2.492  11.578  0.00  0.00    +0.000 C 
ENDBRANCH  29  30
ENDBRANCH  28  29
ENDBRANCH  27  28
ENDBRANCH  25  27
ENDBRANCH   6  22
BRANCH   1  34
ATOM     33  C   UNL     1       1.752   3.817  21.125  0.00  0.00    +0.000 C 
ATOM     34  C   UNL     1       2.856   4.777  20.685  0.00  0.00    +0.000 C 
ENDBRANCH   1  34
BRANCH  14  35
ATOM     35  C   UNL     1      -3.116  14.672  22.750  0.00  0.00    +0.000 C 
ATOM     36  N   UNL     1      -3.733  15.613  23.057  0.00  0.00    +0.000 NA
ENDBRANCH  14  35
TORSDOF 7
ENDMDL
MODEL 4
REMARK VINA RESULT:      -7.7      1.219      1.946
REMARK  Name = 
REMARK  12 active torsions:
REMARK  status: ('A' for Active; 'I' for Inactive)
REMARK    1  A    between atoms: C_1  and  C_2
REMARK    2  A    between atoms: C_2  and  C_3
REMARK    3  A    between atoms: C_8  and  C_9
REMARK    4  A    between atoms: N_12  and  C_13
REMARK    5  A    between atoms: C_13  and  C_14
REMARK    6  A    between atoms: C_14  and  C_15
REMARK    7  A    between atoms: C_15  and  N_16
REMARK    8  A    between atoms: N_16  and  C_17
REMARK    9  A    between atoms: N_16  and  C_18
REMARK   10  A    between atoms: C_20  and  C_21
REMARK   11  A    between atoms: C_20  and  C_22
REMARK   12  A    between atoms: C_27  and  C_28
REMARK                            x       y       z     vdW  Elec       q    Type
REMARK                         _______ _______ _______ _____ _____    ______ ____
ROOT
ATOM      1  C   UNL     1       1.954   6.646  20.389  0.00  0.00    +0.000 A 
ATOM      2  C   UNL     1       1.166   7.486  21.195  0.00  0.00    +0.000 A 
ATOM      3  C   UNL     1       0.698   8.729  20.768  0.00  0.00    +0.000 A 
ATOM      4  C   UNL     1       1.009   9.199  19.486  0.00  0.00    +0.000 A 
ATOM      5  C   UNL     1       1.801   8.365  18.675  0.00  0.00    +0.000 A 
ATOM      6  C   UNL     1       2.267   7.095  19.092  0.00  0.00    +0.000 A 
ATOM      7  C   UNL     1       0.523  10.563  18.964  0.00  0.00    +0.000 C 
ATOM      8  C   UNL     1       1.751  11.454  18.687  0.00  0.00    +0.000 C 
ATOM      9  C   UNL     1      -0.302  10.340  17.680  0.00  0.00    +0.000 C 
ATOM     10  C   UNL     1      -0.345  11.238  20.003  0.00  0.00    +0.000 A 
ATOM     11  N   UNL     1      -0.978  12.448  19.864  0.00  0.00    +0.000 N 
ATOM     12  C   UNL     1      -1.662  12.757  21.023  0.00  0.00    +0.000 A 
ATOM     13  C   UNL     1      -2.433  13.877  21.348  0.00  0.00    +0.000 A 
ATOM     14  C   UNL     1      -3.016  13.922  22.627  0.00  0.00    +0.000 A 
ATOM     15  C   UNL     1      -2.832  12.877  23.536  0.00  0.00    +0.000 A 
ATOM     16  C   UNL     1      -2.063  11.769  23.194  0.00  0.00    +0.000 A 
ATOM     17  C   UNL     1      -1.463  11.706  21.916  0.00  0.00    +0.000 A 
ATOM     18  C   UNL     1      -0.636  10.759  21.263  0.00  0.00    +0.000 A 
ATOM     19  C   UNL     1      -0.128   9.498  21.741  0.00  0.00    +0.000 C 
ATOM     20  O   UNL     1      -0.354   9.069  22.868  0.00  0.00    +0.000 OA
ATOM     21  H   UNL     1      -0.946  13.039  19.045  0.00  0.00    +0.000 HD
ENDROOT
BRANCH   6  22
ATOM     22  C   UNL     1       3.065   6.335  18.141  0.00  0.00    +0.000 A 
ATOM     23  C   UNL     1       3.074   4.973  17.764  0.00  0.00    +0.000 A 
ATOM     24  N   UNL     1       4.036   4.680  16.889  0.00  0.00    +0.000 NA
ATOM     25  N   UNL     1       4.636   5.862  16.678  0.00  0.00    +0.000 N 
ATOM     26  C   UNL     1       4.074   6.887  17.375  0.00  0.00    +0.000 A 
BRANCH  25  27
ATOM     27  C   UNL     1       5.707   5.952  15.708  0.00  0.00    +0.000 C 
BRANCH  27  28
ATOM     28  C   UNL     1       6.619   4.730  15.769  0.00  0.00    +0.000 C 
BRANCH  28  29
ATOM     29  C   UNL     1       6.344   3.747  14.624  0.00  0.00    +0.000 C 
BRANCH  29  30
ATOM     30  N   UNL     1       6.455   4.380  13.298  0.00  0.00    +0.000 NA
ATOM     31  C   UNL     1       7.754   5.028  13.102  0.00  0.00    +0.000 C 
ATOM     32  C   UNL     1       6.233   3.379  12.254  0.00  0.00    +0.000 C 
ENDBRANCH  29  30
ENDBRANCH  28  29
ENDBRANCH  27  28
ENDBRANCH  25  27
ENDBRANCH   6  22
BRANCH   1  34
ATOM     33  C   UNL     1       1.440   4.162  20.847  0.00  0.00    +0.000 C 
ATOM     34  C   UNL     1       2.430   5.321  20.951  0.00  0.00    +0.000 C 
ENDBRANCH   1  34
BRANCH  14  35
ATOM     35  C   UNL     1      -3.809  15.053  22.997  0.00  0.00    +0.000 C 
ATOM     36  N   UNL     1      -4.455  15.977  23.297  0.00  0.00    +0.000 NA
ENDBRANCH  14  35
TORSDOF 7
ENDMDL
MODEL 5
REMARK VINA RESULT:      -7.3      2.479     10.380
REMARK  Name = 
REMARK  12 active torsions:
REMARK  status: ('A' for Active; 'I' for Inactive)
REMARK    1  A    between atoms: C_1  and  C_2
REMARK    2  A    between atoms: C_2  and  C_3
REMARK    3  A    between atoms: C_8  and  C_9
REMARK    4  A    between atoms: N_12  and  C_13
REMARK    5  A    between atoms: C_13  and  C_14
REMARK    6  A    between atoms: C_14  and  C_15
REMARK    7  A    between atoms: C_15  and  N_16
REMARK    8  A    between atoms: N_16  and  C_17
REMARK    9  A    between atoms: N_16  and  C_18
REMARK   10  A    between atoms: C_20  and  C_21
REMARK   11  A    between atoms: C_20  and  C_22
REMARK   12  A    between atoms: C_27  and  C_28
REMARK                            x       y       z     vdW  Elec       q    Type
REMARK                         _______ _______ _______ _____ _____    ______ ____
ROOT
ATOM      1  C   UNL     1       0.230  12.742  19.294  0.00  0.00    +0.000 A 
ATOM      2  C   UNL     1       0.849  11.619  18.719  0.00  0.00    +0.000 A 
ATOM      3  C   UNL     1       1.029  10.417  19.405  0.00  0.00    +0.000 A 
ATOM      4  C   UNL     1       0.591  10.285  20.728  0.00  0.00    +0.000 A 
ATOM      5  C   UNL     1      -0.027  11.407  21.312  0.00  0.00    +0.000 A 
ATOM      6  C   UNL     1      -0.230  12.626  20.620  0.00  0.00    +0.000 A 
ATOM      7  C   UNL     1       0.767   8.985  21.533  0.00  0.00    +0.000 C 
ATOM      8  C   UNL     1       1.686   9.268  22.740  0.00  0.00    +0.000 C 
ATOM      9  C   UNL     1      -0.620   8.493  21.996  0.00  0.00    +0.000 C 
ATOM     10  C   UNL     1       1.410   7.922  20.670  0.00  0.00    +0.000 A 
ATOM     11  N   UNL     1       1.683   6.631  21.047  0.00  0.00    +0.000 N 
ATOM     12  C   UNL     1       2.291   5.955  20.008  0.00  0.00    +0.000 A 
ATOM     13  C   UNL     1       2.755   4.639  19.932  0.00  0.00    +0.000 A 
ATOM     14  C   UNL     1       3.346   4.221  18.727  0.00  0.00    +0.000 A 
ATOM     15  C   UNL     1       3.457   5.094  17.642  0.00  0.00    +0.000 A 
ATOM     16  C   UNL     1       2.988   6.401  17.735  0.00  0.00    +0.000 A 
ATOM     17  C   UNL     1       2.396   6.844  18.940  0.00  0.00    +0.000 A 
ATOM     18  C   UNL     1       1.839   8.074  19.368  0.00  0.00    +0.000 A 
ATOM     19  C   UNL     1       1.702   9.319  18.655  0.00  0.00    +0.000 C 
ATOM     20  O   UNL     1       2.101   9.480  17.507  0.00  0.00    +0.000 OA
ATOM     21  H   UNL     1       1.483   6.227  21.952  0.00  0.00    +0.000 HD
ENDROOT
BRANCH   6  22
ATOM     22  C   UNL     1      -0.896  13.698  21.344  0.00  0.00    +0.000 A 
ATOM     23  C   UNL     1      -0.483  14.556  22.389  0.00  0.00    +0.000 A 
ATOM     24  N   UNL     1      -1.453  15.366  22.814  0.00  0.00    +0.000 NA
ATOM     25  N   UNL     1      -2.490  15.051  22.022  0.00  0.00    +0.000 N 
ATOM     26  C   UNL     1      -2.201  14.087  21.106  0.00  0.00    +0.000 A 
BRANCH  25  27
ATOM     27  C   UNL     1      -3.728  15.794  22.144  0.00  0.00    +0.000 C 
BRANCH  27  28
ATOM     28  C   UNL     1      -4.760  15.025  22.964  0.00  0.00    +0.000 C 
BRANCH  28  29
ATOM     29  C   UNL     1      -5.052  13.640  22.371  0.00  0.00    +0.000 C 
BRANCH  29  30
ATOM     30  N   UNL     1      -5.321  12.628  23.408  0.00  0.00    +0.000 NA
ATOM     31  C   UNL     1      -4.265  12.580  24.421  0.00  0.00    +0.000 C 
ATOM     32  C   UNL     1      -6.611  12.903  24.043  0.00  0.00    +0.000 C 
ENDBRANCH  29  30
ENDBRANCH  28  29
ENDBRANCH  27  28
ENDBRANCH  25  27
ENDBRANCH   6  22
BRANCH   1  34
ATOM     33  C   UNL     1       1.127  15.100  18.763  0.00  0.00    +0.000 C 
ATOM     34  C   UNL     1       0.096  14.010  18.473  0.00  0.00    +0.000 C 
ENDBRANCH   1  34
BRANCH  14  35
ATOM     35  C   UNL     1       3.835   2.882  18.612  0.00  0.00    +0.000 C 
ATOM     36  N   UNL     1       4.236   1.791  18.517  0.00  0.00    +0.000 NA
ENDBRANCH  14  35
TORSDOF 7
ENDMDL
MODEL 6
REMARK VINA RESULT:      -7.3      1.466      2.365
REMARK  Name = 
REMARK  12 active torsions:
REMARK  status: ('A' for Active; 'I' for Inactive)
REMARK    1  A    between atoms: C_1  and  C_2
REMARK    2  A    between atoms: C_2  and  C_3
REMARK    3  A    between atoms: C_8  and  C_9
REMARK    4  A    between atoms: N_12  and  C_13
REMARK    5  A    between atoms: C_13  and  C_14
REMARK    6  A    between atoms: C_14  and  C_15
REMARK    7  A    between atoms: C_15  and  N_16
REMARK    8  A    between atoms: N_16  and  C_17
REMARK    9  A    between atoms: N_16  and  C_18
REMARK   10  A    between atoms: C_20  and  C_21
REMARK   11  A    between atoms: C_20  and  C_22
REMARK   12  A    between atoms: C_27  and  C_28
REMARK                            x       y       z     vdW  Elec       q    Type
REMARK                         _______ _______ _______ _____ _____    ______ ____
ROOT
ATOM      1  C   UNL     1       2.065   6.891  20.283  0.00  0.00    +0.000 A 
ATOM      2  C   UNL     1       1.199   7.635  21.103  0.00  0.00    +0.000 A 
ATOM      3  C   UNL     1       0.698   8.886  20.741  0.00  0.00    +0.000 A 
ATOM      4  C   UNL     1       1.053   9.461  19.514  0.00  0.00    +0.000 A 
ATOM      5  C   UNL     1       1.922   8.723  18.690  0.00  0.00    +0.000 A 
ATOM      6  C   UNL     1       2.423   7.446  19.040  0.00  0.00    +0.000 A 
ATOM      7  C   UNL     1       0.534  10.839  19.065  0.00  0.00    +0.000 C 
ATOM      8  C   UNL     1       1.733  11.798  18.919  0.00  0.00    +0.000 C 
ATOM      9  C   UNL     1      -0.214  10.678  17.725  0.00  0.00    +0.000 C 
ATOM     10  C   UNL     1      -0.416  11.399  20.100  0.00  0.00    +0.000 A 
ATOM     11  N   UNL     1      -1.095  12.589  20.014  0.00  0.00    +0.000 N 
ATOM     12  C   UNL     1      -1.852  12.784  21.152  0.00  0.00    +0.000 A 
ATOM     13  C   UNL     1      -2.688  13.844  21.514  0.00  0.00    +0.000 A 
ATOM     14  C   UNL     1      -3.337  13.771  22.760  0.00  0.00    +0.000 A 
ATOM     15  C   UNL     1      -3.153  12.670  23.600  0.00  0.00    +0.000 A 
ATOM     16  C   UNL     1      -2.319  11.623  23.223  0.00  0.00    +0.000 A 
ATOM     17  C   UNL     1      -1.651  11.679  21.978  0.00  0.00    +0.000 A 
ATOM     18  C   UNL     1      -0.750  10.817  21.306  0.00  0.00    +0.000 A 
ATOM     19  C   UNL     1      -0.211   9.547  21.720  0.00  0.00    +0.000 C 
ATOM     20  O   UNL     1      -0.475   9.027  22.799  0.00  0.00    +0.000 OA
ATOM     21  H   UNL     1      -1.048  13.239  19.241  0.00  0.00    +0.000 HD
ENDROOT
BRANCH   6  22
ATOM     22  C   UNL     1       3.303   6.791  18.083  0.00  0.00    +0.000 A 
ATOM     23  C   UNL     1       4.257   7.280  17.161  0.00  0.00    +0.000 A 
ATOM     24  N   UNL     1       4.799   6.319  16.414  0.00  0.00    +0.000 NA
ATOM     25  N   UNL     1       4.215   5.201  16.871  0.00  0.00    +0.000 N 
ATOM     26  C   UNL     1       3.339   5.423  17.889  0.00  0.00    +0.000 A 
BRANCH  25  27
ATOM     27  C   UNL     1       4.617   3.917  16.334  0.00  0.00    +0.000 C 
BRANCH  27  28
ATOM     28  C   UNL     1       5.820   4.055  15.405  0.00  0.00    +0.000 C 
BRANCH  28  29
ATOM     29  C   UNL     1       5.410   4.062  13.927  0.00  0.00    +0.000 C 
BRANCH  29  30
ATOM     30  N   UNL     1       6.491   3.599  13.039  0.00  0.00    +0.000 NA
ATOM     31  C   UNL     1       5.975   2.919  11.849  0.00  0.00    +0.000 C 
ATOM     32  C   UNL     1       7.326   4.734  12.644  0.00  0.00    +0.000 C 
ENDBRANCH  29  30
ENDBRANCH  28  29
ENDBRANCH  27  28
ENDBRANCH  25  27
ENDBRANCH   6  22
BRANCH   1  34
ATOM     33  C   UNL     1       1.531   4.431  20.839  0.00  0.00    +0.000 C 
ATOM     34  C   UNL     1       2.570   5.548  20.774  0.00  0.00    +0.000 C 
ENDBRANCH   1  34
BRANCH  14  35
ATOM     35  C   UNL     1      -4.199  14.838  23.165  0.00  0.00    +0.000 C 
ATOM     36  N   UNL     1      -4.903  15.708  23.494  0.00  0.00    +0.000 NA
ENDBRANCH  14  35
TORSDOF 7
ENDMDL
MODEL 7
REMARK VINA RESULT:      -7.2      0.947      1.200
REMARK  Name = 
REMARK  12 active torsions:
REMARK  status: ('A' for Active; 'I' for Inactive)
REMARK    1  A    between atoms: C_1  and  C_2
REMARK    2  A    between atoms: C_2  and  C_3
REMARK    3  A    between atoms: C_8  and  C_9
REMARK    4  A    between atoms: N_12  and  C_13
REMARK    5  A    between atoms: C_13  and  C_14
REMARK    6  A    between atoms: C_14  and  C_15
REMARK    7  A    between atoms: C_15  and  N_16
REMARK    8  A    between atoms: N_16  and  C_17
REMARK    9  A    between atoms: N_16  and  C_18
REMARK   10  A    between atoms: C_20  and  C_21
REMARK   11  A    between atoms: C_20  and  C_22
REMARK   12  A    between atoms: C_27  and  C_28
REMARK                            x       y       z     vdW  Elec       q    Type
REMARK                         _______ _______ _______ _____ _____    ______ ____
ROOT
ATOM      1  C   UNL     1       1.824   7.176  20.359  0.00  0.00    +0.000 A 
ATOM      2  C   UNL     1       0.956   7.884  21.209  0.00  0.00    +0.000 A 
ATOM      3  C   UNL     1       0.461   9.152  20.904  0.00  0.00    +0.000 A 
ATOM      4  C   UNL     1       0.824   9.784  19.708  0.00  0.00    +0.000 A 
ATOM      5  C   UNL     1       1.695   9.082  18.853  0.00  0.00    +0.000 A 
ATOM      6  C   UNL     1       2.190   7.788  19.145  0.00  0.00    +0.000 A 
ATOM      7  C   UNL     1       0.311  11.183  19.322  0.00  0.00    +0.000 C 
ATOM      8  C   UNL     1       1.514  12.144  19.227  0.00  0.00    +0.000 C 
ATOM      9  C   UNL     1      -0.430  11.088  17.972  0.00  0.00    +0.000 C 
ATOM     10  C   UNL     1      -0.642  11.697  20.378  0.00  0.00    +0.000 A 
ATOM     11  N   UNL     1      -1.316  12.892  20.345  0.00  0.00    +0.000 N 
ATOM     12  C   UNL     1      -2.078  13.035  21.487  0.00  0.00    +0.000 A 
ATOM     13  C   UNL     1      -2.912  14.080  21.895  0.00  0.00    +0.000 A 
ATOM     14  C   UNL     1      -3.568  13.951  23.133  0.00  0.00    +0.000 A 
ATOM     15  C   UNL     1      -3.392  12.811  23.921  0.00  0.00    +0.000 A 
ATOM     16  C   UNL     1      -2.558  11.779  23.499  0.00  0.00    +0.000 A 
ATOM     17  C   UNL     1      -1.885  11.892  22.261  0.00  0.00    +0.000 A 
ATOM     18  C   UNL     1      -0.983  11.060  21.553  0.00  0.00    +0.000 A 
ATOM     19  C   UNL     1      -0.450   9.769  21.909  0.00  0.00    +0.000 C 
ATOM     20  O   UNL     1      -0.721   9.200  22.961  0.00  0.00    +0.000 OA
ATOM     21  H   UNL     1      -1.263  13.578  19.604  0.00  0.00    +0.000 HD
ENDROOT
BRANCH   6  22
ATOM     22  C   UNL     1       3.072   7.176  18.162  0.00  0.00    +0.000 A 
ATOM     23  C   UNL     1       3.786   7.692  17.057  0.00  0.00    +0.000 A 
ATOM     24  N   UNL     1       4.431   6.750  16.367  0.00  0.00    +0.000 NA
ATOM     25  N   UNL     1       4.155   5.625  17.045  0.00  0.00    +0.000 N 
ATOM     26  C   UNL     1       3.377   5.828  18.142  0.00  0.00    +0.000 A 
BRANCH  25  27
ATOM     27  C   UNL     1       4.758   4.376  16.624  0.00  0.00    +0.000 C 
BRANCH  27  28
ATOM     28  C   UNL     1       5.975   4.031  17.477  0.00  0.00    +0.000 C 
BRANCH  28  29
ATOM     29  C   UNL     1       7.240   4.754  16.998  0.00  0.00    +0.000 C 
BRANCH  29  30
ATOM     30  N   UNL     1       7.747   5.722  17.987  0.00  0.00    +0.000 NA
ATOM     31  C   UNL     1       7.603   7.105  17.530  0.00  0.00    +0.000 C 
ATOM     32  C   UNL     1       7.045   5.539  19.258  0.00  0.00    +0.000 C 
ENDBRANCH  29  30
ENDBRANCH  28  29
ENDBRANCH  27  28
ENDBRANCH  25  27
ENDBRANCH   6  22
BRANCH   1  34
ATOM     33  C   UNL     1       1.315   4.668  20.668  0.00  0.00    +0.000 C 
ATOM     34  C   UNL     1       2.322   5.810  20.788  0.00  0.00    +0.000 C 
ENDBRANCH   1  34
BRANCH  14  35
ATOM     35  C   UNL     1      -4.428  15.000  23.584  0.00  0.00    +0.000 C 
ATOM     36  N   UNL     1      -5.132  15.854  23.952  0.00  0.00    +0.000 NA
ENDBRANCH  14  35
TORSDOF 7
ENDMDL
MODEL 8
REMARK VINA RESULT:      -7.2      2.559     10.353
REMARK  Name = 
REMARK  12 active torsions:
REMARK  status: ('A' for Active; 'I' for Inactive)
REMARK    1  A    between atoms: C_1  and  C_2
REMARK    2  A    between atoms: C_2  and  C_3
REMARK    3  A    between atoms: C_8  and  C_9
REMARK    4  A    between atoms: N_12  and  C_13
REMARK    5  A    between atoms: C_13  and  C_14
REMARK    6  A    between atoms: C_14  and  C_15
REMARK    7  A    between atoms: C_15  and  N_16
REMARK    8  A    between atoms: N_16  and  C_17
REMARK    9  A    between atoms: N_16  and  C_18
REMARK   10  A    between atoms: C_20  and  C_21
REMARK   11  A    between atoms: C_20  and  C_22
REMARK   12  A    between atoms: C_27  and  C_28
REMARK                            x       y       z     vdW  Elec       q    Type
REMARK                         _______ _______ _______ _____ _____    ______ ____
ROOT
ATOM      1  C   UNL     1       0.412  12.765  19.338  0.00  0.00    +0.000 A 
ATOM      2  C   UNL     1       0.995  11.623  18.761  0.00  0.00    +0.000 A 
ATOM      3  C   UNL     1       1.120  10.410  19.440  0.00  0.00    +0.000 A 
ATOM      4  C   UNL     1       0.660  10.286  20.756  0.00  0.00    +0.000 A 
ATOM      5  C   UNL     1       0.079  11.426  21.341  0.00  0.00    +0.000 A 
ATOM      6  C   UNL     1      -0.068  12.657  20.657  0.00  0.00    +0.000 A 
ATOM      7  C   UNL     1       0.776   8.973  21.553  0.00  0.00    +0.000 C 
ATOM      8  C   UNL     1       1.690   9.212  22.772  0.00  0.00    +0.000 C 
ATOM      9  C   UNL     1      -0.634   8.532  21.995  0.00  0.00    +0.000 C 
ATOM     10  C   UNL     1       1.388   7.893  20.689  0.00  0.00    +0.000 A 
ATOM     11  N   UNL     1       1.606   6.589  21.059  0.00  0.00    +0.000 N 
ATOM     12  C   UNL     1       2.201   5.898  20.022  0.00  0.00    +0.000 A 
ATOM     13  C   UNL     1       2.615   4.566  19.941  0.00  0.00    +0.000 A 
ATOM     14  C   UNL     1       3.204   4.134  18.739  0.00  0.00    +0.000 A 
ATOM     15  C   UNL     1       3.363   5.011  17.664  0.00  0.00    +0.000 A 
ATOM     16  C   UNL     1       2.943   6.334  17.761  0.00  0.00    +0.000 A 
ATOM     17  C   UNL     1       2.354   6.791  18.962  0.00  0.00    +0.000 A 
ATOM     18  C   UNL     1       1.839   8.038  19.393  0.00  0.00    +0.000 A 
ATOM     19  C   UNL     1       1.759   9.292  18.689  0.00  0.00    +0.000 C 
ATOM     20  O   UNL     1       2.179   9.447  17.547  0.00  0.00    +0.000 OA
ATOM     21  H   UNL     1       1.380   6.186  21.958  0.00  0.00    +0.000 HD
ENDROOT
BRANCH   6  22
ATOM     22  C   UNL     1      -0.701  13.749  21.382  0.00  0.00    +0.000 A 
ATOM     23  C   UNL     1      -1.484  14.852  20.970  0.00  0.00    +0.000 A 
ATOM     24  N   UNL     1      -1.809  15.664  21.975  0.00  0.00    +0.000 NA
ATOM     25  N   UNL     1      -1.259  15.071  23.046  0.00  0.00    +0.000 N 
ATOM     26  C   UNL     1      -0.616  13.908  22.752  0.00  0.00    +0.000 A 
BRANCH  25  27
ATOM     27  C   UNL     1      -1.470  15.641  24.361  0.00  0.00    +0.000 C 
BRANCH  27  28
ATOM     28  C   UNL     1      -2.940  15.578  24.766  0.00  0.00    +0.000 C 
BRANCH  28  29
ATOM     29  C   UNL     1      -3.456  14.136  24.843  0.00  0.00    +0.000 C 
BRANCH  29  30
ATOM     30  N   UNL     1      -4.628  13.908  23.980  0.00  0.00    +0.000 NA
ATOM     31  C   UNL     1      -5.143  15.155  23.409  0.00  0.00    +0.000 C 
ATOM     32  C   UNL     1      -4.278  12.974  22.909  0.00  0.00    +0.000 C 
ENDBRANCH  29  30
ENDBRANCH  28  29
ENDBRANCH  27  28
ENDBRANCH  25  27
ENDBRANCH   6  22
BRANCH   1  34
ATOM     33  C   UNL     1       1.528  14.991  18.670  0.00  0.00    +0.000 C 
ATOM     34  C   UNL     1       0.338  14.044  18.526  0.00  0.00    +0.000 C 
ENDBRANCH   1  34
BRANCH  14  35
ATOM     35  C   UNL     1       3.642   2.778  18.620  0.00  0.00    +0.000 C 
ATOM     36  N   UNL     1       3.999   1.672  18.519  0.00  0.00    +0.000 NA
ENDBRANCH  14  35
TORSDOF 7
ENDMDL
MODEL 9
REMARK VINA RESULT:      -7.1      2.700     10.827
REMARK  Name = 
REMARK  12 active torsions:
REMARK  status: ('A' for Active; 'I' for Inactive)
REMARK    1  A    between atoms: C_1  and  C_2
REMARK    2  A    between atoms: C_2  and  C_3
REMARK    3  A    between atoms: C_8  and  C_9
REMARK    4  A    between atoms: N_12  and  C_13
REMARK    5  A    between atoms: C_13  and  C_14
REMARK    6  A    between atoms: C_14  and  C_15
REMARK    7  A    between atoms: C_15  and  N_16
REMARK    8  A    between atoms: N_16  and  C_17
REMARK    9  A    between atoms: N_16  and  C_18
REMARK   10  A    between atoms: C_20  and  C_21
REMARK   11  A    between atoms: C_20  and  C_22
REMARK   12  A    between atoms: C_27  and  C_28
REMARK                            x       y       z     vdW  Elec       q    Type
REMARK                         _______ _______ _______ _____ _____    ______ ____
ROOT
ATOM      1  C   UNL     1      -2.405  13.115  22.697  0.00  0.00    +0.000 A 
ATOM      2  C   UNL     1      -1.642  11.946  22.532  0.00  0.00    +0.000 A 
ATOM      3  C   UNL     1      -1.040  11.596  21.322  0.00  0.00    +0.000 A 
ATOM      4  C   UNL     1      -1.182  12.419  20.199  0.00  0.00    +0.000 A 
ATOM      5  C   UNL     1      -1.947  13.589  20.355  0.00  0.00    +0.000 A 
ATOM      6  C   UNL     1      -2.548  13.962  21.582  0.00  0.00    +0.000 A 
ATOM      7  C   UNL     1      -0.543  12.081  18.839  0.00  0.00    +0.000 C 
ATOM      8  C   UNL     1      -1.665  11.874  17.801  0.00  0.00    +0.000 C 
ATOM      9  C   UNL     1       0.390  13.237  18.425  0.00  0.00    +0.000 C 
ATOM     10  C   UNL     1       0.263  10.805  18.947  0.00  0.00    +0.000 A 
ATOM     11  N   UNL     1       0.997  10.226  17.942  0.00  0.00    +0.000 N 
ATOM     12  C   UNL     1       1.581   9.060  18.396  0.00  0.00    +0.000 A 
ATOM     13  C   UNL     1       2.397   8.138  17.735  0.00  0.00    +0.000 A 
ATOM     14  C   UNL     1       2.847   7.022  18.462  0.00  0.00    +0.000 A 
ATOM     15  C   UNL     1       2.493   6.849  19.802  0.00  0.00    +0.000 A 
ATOM     16  C   UNL     1       1.681   7.778  20.445  0.00  0.00    +0.000 A 
ATOM     17  C   UNL     1       1.212   8.904  19.731  0.00  0.00    +0.000 A 
ATOM     18  C   UNL     1       0.386  10.006  20.065  0.00  0.00    +0.000 A 
ATOM     19  C   UNL     1      -0.262  10.325  21.311  0.00  0.00    +0.000 C 
ATOM     20  O   UNL     1      -0.186   9.613  22.306  0.00  0.00    +0.000 OA
ATOM     21  H   UNL     1       1.094  10.585  17.001  0.00  0.00    +0.000 HD
ENDROOT
BRANCH   6  22
ATOM     22  C   UNL     1      -3.301  15.209  21.602  0.00  0.00    +0.000 A 
ATOM     23  C   UNL     1      -3.058  16.470  22.192  0.00  0.00    +0.000 A 
ATOM     24  N   UNL     1      -4.063  17.329  22.017  0.00  0.00    +0.000 NA
ATOM     25  N   UNL     1      -4.947  16.630  21.288  0.00  0.00    +0.000 N 
ATOM     26  C   UNL     1      -4.526  15.372  20.984  0.00  0.00    +0.000 A 
BRANCH  25  27
ATOM     27  C   UNL     1      -6.161  17.276  20.832  0.00  0.00    +0.000 C 
BRANCH  27  28
ATOM     28  C   UNL     1      -6.391  17.041  19.342  0.00  0.00    +0.000 C 
BRANCH  28  29
ATOM     29  C   UNL     1      -7.450  15.962  19.085  0.00  0.00    +0.000 C 
BRANCH  29  30
ATOM     30  N   UNL     1      -7.011  14.966  18.091  0.00  0.00    +0.000 NA
ATOM     31  C   UNL     1      -7.829  13.752  18.127  0.00  0.00    +0.000 C 
ATOM     32  C   UNL     1      -7.048  15.556  16.753  0.00  0.00    +0.000 C 
ENDBRANCH  29  30
ENDBRANCH  28  29
ENDBRANCH  27  28
ENDBRANCH  25  27
ENDBRANCH   6  22
BRANCH   1  34
ATOM     33  C   UNL     1      -4.435  12.825  24.259  0.00  0.00    +0.000 C 
ATOM     34  C   UNL     1      -3.035  13.398  24.047  0.00  0.00    +0.000 C 
ENDBRANCH   1  34
BRANCH  14  35
ATOM     35  C   UNL     1       3.682   6.056  17.818  0.00  0.00    +0.000 C 
ATOM     36  N   UNL     1       4.365   5.267  17.296  0.00  0.00    +0.000 NA
ENDBRANCH  14  35
TORSDOF 7
ENDMDL
