MODEL 1
REMARK VINA RESULT:      -7.6      0.000      0.000
REMARK  Name = 
REMARK  8 active torsions:
REMARK  status: ('A' for Active; 'I' for Inactive)
REMARK    1  A    between atoms: C_5  and  O_6
REMARK    2  A    between atoms: O_6  and  C_7
REMARK    3  A    between atoms: C_7  and  C_8
REMARK    4  A    between atoms: C_8  and  C_9
REMARK    5  A    between atoms: C_9  and  C_10
REMARK    6  A    between atoms: C_10  and  C_11
REMARK    7  A    between atoms: C_10  and  C_17
REMARK    8  A    between atoms: C_11  and  N_12
REMARK                            x       y       z     vdW  Elec       q    Type
REMARK                         _______ _______ _______ _____ _____    ______ ____
ROOT
ATOM      1  C   UNL     1       3.310   5.862  17.775  0.00  0.00    +0.000 C 
ENDROOT
BRANCH   1   2
ATOM      2  C   UNL     1       2.713   4.877  18.804  0.00  0.00    +0.000 A 
ATOM      3  C   UNL     1       2.505   5.398  20.109  0.00  0.00    +0.000 A 
ATOM      4  C   UNL     1       2.013   4.616  21.158  0.00  0.00    +0.000 A 
ATOM      5  C   UNL     1       1.758   3.272  20.950  0.00  0.00    +0.000 A 
ATOM      6 CL   UNL     1       1.182   2.292  22.239  0.00  0.00    +0.000 Cl
ATOM      7  C   UNL     1       1.974   2.714  19.699  0.00  0.00    +0.000 A 
ATOM      8  C   UNL     1       2.426   3.503  18.630  0.00  0.00    +0.000 A 
ATOM      9 CL   UNL     1       2.565   2.610  17.154  0.00  0.00    +0.000 Cl
ENDBRANCH   1   2
BRANCH   1  10
ATOM     10  C   UNL     1       3.420   7.344  18.198  0.00  0.00    +0.000 C 
BRANCH  10  11
ATOM     11  C   UNL     1       2.648   8.381  17.372  0.00  0.00    +0.000 C 
BRANCH  11  12
ATOM     12  C   UNL     1       1.620   9.166  18.184  0.00  0.00    +0.000 C 
BRANCH  12  13
ATOM     13  O   UNL     1       1.564   8.656  19.519  0.00  0.00    +0.000 OA
BRANCH  13  18
ATOM     14 CL   UNL     1      -1.876  11.419  23.399  0.00  0.00    +0.000 Cl
ATOM     15  C   UNL     1      -0.820  10.670  22.268  0.00  0.00    +0.000 A 
ATOM     16  C   UNL     1      -0.064   9.563  22.647  0.00  0.00    +0.000 A 
ATOM     17  C   UNL     1       0.750   8.925  21.705  0.00  0.00    +0.000 A 
ATOM     18  C   UNL     1       0.791   9.385  20.384  0.00  0.00    +0.000 A 
ATOM     19  C   UNL     1       0.077  10.527  20.032  0.00  0.00    +0.000 A 
ATOM     20  C   UNL     1      -0.741  11.166  20.970  0.00  0.00    +0.000 A 
ENDBRANCH  13  18
ENDBRANCH  12  13
ENDBRANCH  11  12
ENDBRANCH  10  11
ENDBRANCH   1  10
BRANCH   1  21
ATOM     21  C   UNL     1       4.627   5.357  17.116  0.00  0.00    +0.000 C 
BRANCH  21  22
ATOM     22  N   UNL     1       5.834   5.490  17.905  0.00  0.00    +0.000 N 
ATOM     23  C   UNL     1       6.900   6.298  17.624  0.00  0.00    +0.000 A 
ATOM     24  C   UNL     1       7.692   6.245  18.748  0.00  0.00    +0.000 A 
ATOM     25  N   UNL     1       7.135   5.427  19.698  0.00  0.00    +0.000 NA
ATOM     26  C   UNL     1       6.020   4.988  19.162  0.00  0.00    +0.000 A 
ENDBRANCH  21  22
ENDBRANCH   1  21
TORSDOF 8
ENDMDL
MODEL 2
REMARK VINA RESULT:      -7.5      2.618      4.665
REMARK  Name = 
REMARK  8 active torsions:
REMARK  status: ('A' for Active; 'I' for Inactive)
REMARK    1  A    between atoms: C_5  and  O_6
REMARK    2  A    between atoms: O_6  and  C_7
REMARK    3  A    between atoms: C_7  and  C_8
REMARK    4  A    between atoms: C_8  and  C_9
REMARK    5  A    between atoms: C_9  and  C_10
REMARK    6  A    between atoms: C_10  and  C_11
REMARK    7  A    between atoms: C_10  and  C_17
REMARK    8  A    between atoms: C_11  and  N_12
REMARK                            x       y       z     vdW  Elec       q    Type
REMARK                         _______ _______ _______ _____ _____    ______ ____
ROOT
ATOM      1  C   UNL     1       4.780   4.982  18.974  0.00  0.00    +0.000 C 
ENDROOT
BRANCH   1   2
ATOM      2  C   UNL     1       5.404   5.002  17.561  0.00  0.00    +0.000 A 
ATOM      3  C   UNL     1       4.744   4.210  16.583  0.00  0.00    +0.000 A 
ATOM      4  C   UNL     1       5.216   4.092  15.272  0.00  0.00    +0.000 A 
ATOM      5  C   UNL     1       6.392   4.722  14.908  0.00  0.00    +0.000 A 
ATOM      6 CL   UNL     1       6.999   4.560  13.308  0.00  0.00    +0.000 Cl
ATOM      7  C   UNL     1       7.085   5.482  15.838  0.00  0.00    +0.000 A 
ATOM      8  C   UNL     1       6.595   5.642  17.142  0.00  0.00    +0.000 A 
ATOM      9 CL   UNL     1       7.590   6.678  18.108  0.00  0.00    +0.000 Cl
ENDBRANCH   1   2
BRANCH   1  10
ATOM     10  C   UNL     1       3.598   5.942  19.236  0.00  0.00    +0.000 C 
BRANCH  10  11
ATOM     11  C   UNL     1       3.319   7.032  18.194  0.00  0.00    +0.000 C 
BRANCH  11  12
ATOM     12  C   UNL     1       2.271   8.049  18.640  0.00  0.00    +0.000 C 
BRANCH  12  13
ATOM     13  O   UNL     1       1.842   7.753  19.972  0.00  0.00    +0.000 OA
BRANCH  13  18
ATOM     14 CL   UNL     1      -1.413  11.713  22.844  0.00  0.00    +0.000 Cl
ATOM     15  C   UNL     1      -0.406  10.609  21.992  0.00  0.00    +0.000 A 
ATOM     16  C   UNL     1       0.274   9.609  22.683  0.00  0.00    +0.000 A 
ATOM     17  C   UNL     1       1.045   8.680  21.976  0.00  0.00    +0.000 A 
ATOM     18  C   UNL     1       1.119   8.744  20.580  0.00  0.00    +0.000 A 
ATOM     19  C   UNL     1       0.482   9.783  19.906  0.00  0.00    +0.000 A 
ATOM     20  C   UNL     1      -0.294  10.711  20.608  0.00  0.00    +0.000 A 
ENDBRANCH  13  18
ENDBRANCH  12  13
ENDBRANCH  11  12
ENDBRANCH  10  11
ENDBRANCH   1  10
BRANCH   1  21
ATOM     21  C   UNL     1       4.484   3.550  19.508  0.00  0.00    +0.000 C 
BRANCH  21  22
ATOM     22  N   UNL     1       3.098   3.243  19.791  0.00  0.00    +0.000 N 
ATOM     23  C   UNL     1       2.159   2.831  18.887  0.00  0.00    +0.000 A 
ATOM     24  C   UNL     1       1.070   2.466  19.646  0.00  0.00    +0.000 A 
ATOM     25  N   UNL     1       1.326   2.649  20.982  0.00  0.00    +0.000 NA
ATOM     26  C   UNL     1       2.551   3.117  21.037  0.00  0.00    +0.000 A 
ENDBRANCH  21  22
ENDBRANCH   1  21
TORSDOF 8
ENDMDL
MODEL 3
REMARK VINA RESULT:      -7.5      2.681      4.922
REMARK  Name = 
REMARK  8 active torsions:
REMARK  status: ('A' for Active; 'I' for Inactive)
REMARK    1  A    between atoms: C_5  and  O_6
REMARK    2  A    between atoms: O_6  and  C_7
REMARK    3  A    between atoms: C_7  and  C_8
REMARK    4  A    between atoms: C_8  and  C_9
REMARK    5  A    between atoms: C_9  and  C_10
REMARK    6  A    between atoms: C_10  and  C_11
REMARK    7  A    between atoms: C_10  and  C_17
REMARK    8  A    between atoms: C_11  and  N_12
REMARK                            x       y       z     vdW  Elec       q    Type
REMARK                         _______ _______ _______ _____ _____    ______ ____
ROOT
ATOM      1  C   UNL     1       4.678   4.572  18.481  0.00  0.00    +0.000 C 
ENDROOT
BRANCH   1   2
ATOM      2  C   UNL     1       5.470   4.782  17.171  0.00  0.00    +0.000 A 
ATOM      3  C   UNL     1       4.914   4.182  16.010  0.00  0.00    +0.000 A 
ATOM      4  C   UNL     1       5.539   4.248  14.761  0.00  0.00    +0.000 A 
ATOM      5  C   UNL     1       6.766   4.875  14.641  0.00  0.00    +0.000 A 
ATOM      6 CL   UNL     1       7.559   4.936  13.117  0.00  0.00    +0.000 Cl
ATOM      7  C   UNL     1       7.360   5.449  15.754  0.00  0.00    +0.000 A 
ATOM      8  C   UNL     1       6.719   5.426  17.001  0.00  0.00    +0.000 A 
ATOM      9 CL   UNL     1       7.615   6.255  18.229  0.00  0.00    +0.000 Cl
ENDBRANCH   1   2
BRANCH   1  10
ATOM     10  C   UNL     1       3.884   5.779  19.027  0.00  0.00    +0.000 C 
BRANCH  10  11
ATOM     11  C   UNL     1       3.503   6.888  18.039  0.00  0.00    +0.000 C 
BRANCH  11  12
ATOM     12  C   UNL     1       2.051   7.344  18.163  0.00  0.00    +0.000 C 
BRANCH  12  13
ATOM     13  O   UNL     1       2.005   8.738  18.481  0.00  0.00    +0.000 OA
BRANCH  13  18
ATOM     14 CL   UNL     1      -1.059  10.495  23.176  0.00  0.00    +0.000 Cl
ATOM     15  C   UNL     1      -0.212   9.921  21.794  0.00  0.00    +0.000 A 
ATOM     16  C   UNL     1      -0.306  10.607  20.585  0.00  0.00    +0.000 A 
ATOM     17  C   UNL     1       0.432  10.166  19.480  0.00  0.00    +0.000 A 
ATOM     18  C   UNL     1       1.273   9.053  19.595  0.00  0.00    +0.000 A 
ATOM     19  C   UNL     1       1.313   8.343  20.792  0.00  0.00    +0.000 A 
ATOM     20  C   UNL     1       0.581   8.782  21.899  0.00  0.00    +0.000 A 
ENDBRANCH  13  18
ENDBRANCH  12  13
ENDBRANCH  11  12
ENDBRANCH  10  11
ENDBRANCH   1  10
BRANCH   1  21
ATOM     21  C   UNL     1       3.822   3.271  18.492  0.00  0.00    +0.000 C 
BRANCH  21  22
ATOM     22  N   UNL     1       2.761   3.209  19.475  0.00  0.00    +0.000 N 
ATOM     23  C   UNL     1       2.896   2.878  20.794  0.00  0.00    +0.000 A 
ATOM     24  C   UNL     1       1.674   3.160  21.360  0.00  0.00    +0.000 A 
ATOM     25  N   UNL     1       0.804   3.649  20.418  0.00  0.00    +0.000 NA
ATOM     26  C   UNL     1       1.485   3.666  19.297  0.00  0.00    +0.000 A 
ENDBRANCH  21  22
ENDBRANCH   1  21
TORSDOF 8
ENDMDL
MODEL 4
REMARK VINA RESULT:      -7.3      1.869      2.323
REMARK  Name = 
REMARK  8 active torsions:
REMARK  status: ('A' for Active; 'I' for Inactive)
REMARK    1  A    between atoms: C_5  and  O_6
REMARK    2  A    between atoms: O_6  and  C_7
REMARK    3  A    between atoms: C_7  and  C_8
REMARK    4  A    between atoms: C_8  and  C_9
REMARK    5  A    between atoms: C_9  and  C_10
REMARK    6  A    between atoms: C_10  and  C_11
REMARK    7  A    between atoms: C_10  and  C_17
REMARK    8  A    between atoms: C_11  and  N_12
REMARK                            x       y       z     vdW  Elec       q    Type
REMARK                         _______ _______ _______ _____ _____    ______ ____
ROOT
ATOM      1  C   UNL     1       3.311   6.192  17.544  0.00  0.00    +0.000 C 
ENDROOT
BRANCH   1   2
ATOM      2  C   UNL     1       2.779   5.172  18.575  0.00  0.00    +0.000 A 
ATOM      3  C   UNL     1       2.587   5.669  19.893  0.00  0.00    +0.000 A 
ATOM      4  C   UNL     1       2.153   4.855  20.944  0.00  0.00    +0.000 A 
ATOM      5  C   UNL     1       1.943   3.506  20.724  0.00  0.00    +0.000 A 
ATOM      6 CL   UNL     1       1.440   2.489  22.015  0.00  0.00    +0.000 Cl
ATOM      7  C   UNL     1       2.146   2.972  19.461  0.00  0.00    +0.000 A 
ATOM      8  C   UNL     1       2.538   3.790  18.390  0.00  0.00    +0.000 A 
ATOM      9 CL   UNL     1       2.670   2.921  16.899  0.00  0.00    +0.000 Cl
ENDBRANCH   1   2
BRANCH   1  10
ATOM     10  C   UNL     1       3.231   7.687  17.924  0.00  0.00    +0.000 C 
BRANCH  10  11
ATOM     11  C   UNL     1       1.901   8.413  17.686  0.00  0.00    +0.000 C 
BRANCH  11  12
ATOM     12  C   UNL     1       1.932   9.889  18.076  0.00  0.00    +0.000 C 
BRANCH  12  13
ATOM     13  O   UNL     1       1.025  10.125  19.156  0.00  0.00    +0.000 OA
BRANCH  13  18
ATOM     14 CL   UNL     1      -4.482  11.777  17.948  0.00  0.00    +0.000 Cl
ATOM     15  C   UNL     1      -2.847  11.331  18.237  0.00  0.00    +0.000 A 
ATOM     16  C   UNL     1      -2.130  11.938  19.266  0.00  0.00    +0.000 A 
ATOM     17  C   UNL     1      -0.819  11.529  19.531  0.00  0.00    +0.000 A 
ATOM     18  C   UNL     1      -0.236  10.503  18.779  0.00  0.00    +0.000 A 
ATOM     19  C   UNL     1      -0.942   9.945  17.717  0.00  0.00    +0.000 A 
ATOM     20  C   UNL     1      -2.254  10.348  17.451  0.00  0.00    +0.000 A 
ENDBRANCH  13  18
ENDBRANCH  12  13
ENDBRANCH  11  12
ENDBRANCH  10  11
ENDBRANCH   1  10
BRANCH   1  21
ATOM     21  C   UNL     1       4.708   5.823  16.963  0.00  0.00    +0.000 C 
BRANCH  21  22
ATOM     22  N   UNL     1       5.845   6.051  17.830  0.00  0.00    +0.000 N 
ATOM     23  C   UNL     1       6.185   5.315  18.931  0.00  0.00    +0.000 A 
ATOM     24  C   UNL     1       7.431   5.772  19.293  0.00  0.00    +0.000 A 
ATOM     25  N   UNL     1       7.852   6.763  18.443  0.00  0.00    +0.000 NA
ATOM     26  C   UNL     1       6.878   6.909  17.576  0.00  0.00    +0.000 A 
ENDBRANCH  21  22
ENDBRANCH   1  21
TORSDOF 8
ENDMDL
MODEL 5
REMARK VINA RESULT:      -7.3      2.656      4.808
REMARK  Name = 
REMARK  8 active torsions:
REMARK  status: ('A' for Active; 'I' for Inactive)
REMARK    1  A    between atoms: C_5  and  O_6
REMARK    2  A    between atoms: O_6  and  C_7
REMARK    3  A    between atoms: C_7  and  C_8
REMARK    4  A    between atoms: C_8  and  C_9
REMARK    5  A    between atoms: C_9  and  C_10
REMARK    6  A    between atoms: C_10  and  C_11
REMARK    7  A    between atoms: C_10  and  C_17
REMARK    8  A    between atoms: C_11  and  N_12
REMARK                            x       y       z     vdW  Elec       q    Type
REMARK                         _______ _______ _______ _____ _____    ______ ____
ROOT
ATOM      1  C   UNL     1       4.917   4.586  18.903  0.00  0.00    +0.000 C 
ENDROOT
BRANCH   1   2
ATOM      2  C   UNL     1       5.557   4.750  17.507  0.00  0.00    +0.000 A 
ATOM      3  C   UNL     1       4.938   4.023  16.455  0.00  0.00    +0.000 A 
ATOM      4  C   UNL     1       5.429   4.035  15.146  0.00  0.00    +0.000 A 
ATOM      5  C   UNL     1       6.587   4.736  14.855  0.00  0.00    +0.000 A 
ATOM      6 CL   UNL     1       7.218   4.734  13.257  0.00  0.00    +0.000 Cl
ATOM      7  C   UNL     1       7.240   5.436  15.857  0.00  0.00    +0.000 A 
ATOM      8  C   UNL     1       6.729   5.464  17.164  0.00  0.00    +0.000 A 
ATOM      9 CL   UNL     1       7.674   6.448  18.230  0.00  0.00    +0.000 Cl
ENDBRANCH   1   2
BRANCH   1  10
ATOM     10  C   UNL     1       3.835   5.613  19.308  0.00  0.00    +0.000 C 
BRANCH  10  11
ATOM     11  C   UNL     1       3.529   6.751  18.327  0.00  0.00    +0.000 C 
BRANCH  11  12
ATOM     12  C   UNL     1       2.068   7.194  18.342  0.00  0.00    +0.000 C 
BRANCH  12  13
ATOM     13  O   UNL     1       1.993   8.621  18.396  0.00  0.00    +0.000 OA
BRANCH  13  18
ATOM     14 CL   UNL     1      -0.938  10.385  23.173  0.00  0.00    +0.000 Cl
ATOM     15  C   UNL     1      -0.027   9.923  21.790  0.00  0.00    +0.000 A 
ATOM     16  C   UNL     1       0.699   8.734  21.798  0.00  0.00    +0.000 A 
ATOM     17  C   UNL     1       1.391   8.339  20.648  0.00  0.00    +0.000 A 
ATOM     18  C   UNL     1       1.340   9.124  19.491  0.00  0.00    +0.000 A 
ATOM     19  C   UNL     1       0.660  10.338  19.514  0.00  0.00    +0.000 A 
ATOM     20  C   UNL     1      -0.037  10.736  20.660  0.00  0.00    +0.000 A 
ENDBRANCH  13  18
ENDBRANCH  12  13
ENDBRANCH  11  12
ENDBRANCH  10  11
ENDBRANCH   1  10
BRANCH   1  21
ATOM     21  C   UNL     1       4.469   3.129  19.220  0.00  0.00    +0.000 C 
BRANCH  21  22
ATOM     22  N   UNL     1       3.051   2.921  19.421  0.00  0.00    +0.000 N 
ATOM     23  C   UNL     1       2.353   3.154  20.573  0.00  0.00    +0.000 A 
ATOM     24  C   UNL     1       1.030   3.015  20.222  0.00  0.00    +0.000 A 
ATOM     25  N   UNL     1       0.910   2.702  18.891  0.00  0.00    +0.000 NA
ATOM     26  C   UNL     1       2.140   2.652  18.438  0.00  0.00    +0.000 A 
ENDBRANCH  21  22
ENDBRANCH   1  21
TORSDOF 8
ENDMDL
MODEL 6
REMARK VINA RESULT:      -7.3      0.825      1.439
REMARK  Name = 
REMARK  8 active torsions:
REMARK  status: ('A' for Active; 'I' for Inactive)
REMARK    1  A    between atoms: C_5  and  O_6
REMARK    2  A    between atoms: O_6  and  C_7
REMARK    3  A    between atoms: C_7  and  C_8
REMARK    4  A    between atoms: C_8  and  C_9
REMARK    5  A    between atoms: C_9  and  C_10
REMARK    6  A    between atoms: C_10  and  C_11
REMARK    7  A    between atoms: C_10  and  C_17
REMARK    8  A    between atoms: C_11  and  N_12
REMARK                            x       y       z     vdW  Elec       q    Type
REMARK                         _______ _______ _______ _____ _____    ______ ____
ROOT
ATOM      1  C   UNL     1       3.446   5.954  17.550  0.00  0.00    +0.000 C 
ENDROOT
BRANCH   1   2
ATOM      2  C   UNL     1       2.845   4.986  18.593  0.00  0.00    +0.000 A 
ATOM      3  C   UNL     1       2.657   5.521  19.896  0.00  0.00    +0.000 A 
ATOM      4  C   UNL     1       2.165   4.755  20.956  0.00  0.00    +0.000 A 
ATOM      5  C   UNL     1       1.890   3.413  20.762  0.00  0.00    +0.000 A 
ATOM      6 CL   UNL     1       1.313   2.452  22.065  0.00  0.00    +0.000 Cl
ATOM      7  C   UNL     1       2.085   2.841  19.514  0.00  0.00    +0.000 A 
ATOM      8  C   UNL     1       2.537   3.614  18.434  0.00  0.00    +0.000 A 
ATOM      9 CL   UNL     1       2.649   2.707  16.964  0.00  0.00    +0.000 Cl
ENDBRANCH   1   2
BRANCH   1  10
ATOM     10  C   UNL     1       3.376   7.465  17.866  0.00  0.00    +0.000 C 
BRANCH  10  11
ATOM     11  C   UNL     1       2.054   8.191  17.591  0.00  0.00    +0.000 C 
BRANCH  11  12
ATOM     12  C   UNL     1       1.992   9.595  18.189  0.00  0.00    +0.000 C 
BRANCH  12  13
ATOM     13  O   UNL     1       0.649  10.084  18.143  0.00  0.00    +0.000 OA
BRANCH  13  18
ATOM     14 CL   UNL     1      -1.622  11.955  23.229  0.00  0.00    +0.000 Cl
ATOM     15  C   UNL     1      -1.000  11.343  21.747  0.00  0.00    +0.000 A 
ATOM     16  C   UNL     1      -1.407  11.900  20.537  0.00  0.00    +0.000 A 
ATOM     17  C   UNL     1      -0.854  11.434  19.339  0.00  0.00    +0.000 A 
ATOM     18  C   UNL     1       0.117  10.426  19.358  0.00  0.00    +0.000 A 
ATOM     19  C   UNL     1       0.473   9.838  20.569  0.00  0.00    +0.000 A 
ATOM     20  C   UNL     1      -0.075  10.303  21.769  0.00  0.00    +0.000 A 
ENDBRANCH  13  18
ENDBRANCH  12  13
ENDBRANCH  11  12
ENDBRANCH  10  11
ENDBRANCH   1  10
BRANCH   1  21
ATOM     21  C   UNL     1       4.861   5.538  17.053  0.00  0.00    +0.000 C 
BRANCH  21  22
ATOM     22  N   UNL     1       5.974   5.897  17.907  0.00  0.00    +0.000 N 
ATOM     23  C   UNL     1       6.325   5.287  19.079  0.00  0.00    +0.000 A 
ATOM     24  C   UNL     1       7.546   5.828  19.410  0.00  0.00    +0.000 A 
ATOM     25  N   UNL     1       7.940   6.749  18.472  0.00  0.00    +0.000 NA
ATOM     26  C   UNL     1       6.975   6.768  17.583  0.00  0.00    +0.000 A 
ENDBRANCH  21  22
ENDBRANCH   1  21
TORSDOF 8
ENDMDL
MODEL 7
REMARK VINA RESULT:      -7.3      3.536      7.871
REMARK  Name = 
REMARK  8 active torsions:
REMARK  status: ('A' for Active; 'I' for Inactive)
REMARK    1  A    between atoms: C_5  and  O_6
REMARK    2  A    between atoms: O_6  and  C_7
REMARK    3  A    between atoms: C_7  and  C_8
REMARK    4  A    between atoms: C_8  and  C_9
REMARK    5  A    between atoms: C_9  and  C_10
REMARK    6  A    between atoms: C_10  and  C_11
REMARK    7  A    between atoms: C_10  and  C_17
REMARK    8  A    between atoms: C_11  and  N_12
REMARK                            x       y       z     vdW  Elec       q    Type
REMARK                         _______ _______ _______ _____ _____    ______ ____
ROOT
ATOM      1  C   UNL     1       5.004   5.004  18.818  0.00  0.00    +0.000 C 
ENDROOT
BRANCH   1   2
ATOM      2  C   UNL     1       3.919   6.095  18.687  0.00  0.00    +0.000 A 
ATOM      3  C   UNL     1       4.033   6.946  17.555  0.00  0.00    +0.000 A 
ATOM      4  C   UNL     1       3.152   8.006  17.324  0.00  0.00    +0.000 A 
ATOM      5  C   UNL     1       2.157   8.284  18.244  0.00  0.00    +0.000 A 
ATOM      6 CL   UNL     1       1.087   9.604  17.987  0.00  0.00    +0.000 Cl
ATOM      7  C   UNL     1       2.027   7.497  19.378  0.00  0.00    +0.000 A 
ATOM      8  C   UNL     1       2.879   6.404  19.595  0.00  0.00    +0.000 A 
ATOM      9 CL   UNL     1       2.493   5.533  21.040  0.00  0.00    +0.000 Cl
ENDBRANCH   1   2
BRANCH   1  10
ATOM     10  C   UNL     1       6.398   5.450  19.314  0.00  0.00    +0.000 C 
BRANCH  10  11
ATOM     11  C   UNL     1       7.451   5.805  18.257  0.00  0.00    +0.000 C 
BRANCH  11  12
ATOM     12  C   UNL     1       7.500   4.821  17.090  0.00  0.00    +0.000 C 
BRANCH  12  13
ATOM     13  O   UNL     1       7.658   5.535  15.860  0.00  0.00    +0.000 OA
BRANCH  13  18
ATOM     14 CL   UNL     1       4.995   2.710  11.450  0.00  0.00    +0.000 Cl
ATOM     15  C   UNL     1       5.754   3.605  12.708  0.00  0.00    +0.000 A 
ATOM     16  C   UNL     1       5.179   3.648  13.976  0.00  0.00    +0.000 A 
ATOM     17  C   UNL     1       5.832   4.330  15.009  0.00  0.00    +0.000 A 
ATOM     18  C   UNL     1       7.064   4.950  14.773  0.00  0.00    +0.000 A 
ATOM     19  C   UNL     1       7.599   4.950  13.488  0.00  0.00    +0.000 A 
ATOM     20  C   UNL     1       6.951   4.266  12.454  0.00  0.00    +0.000 A 
ENDBRANCH  13  18
ENDBRANCH  12  13
ENDBRANCH  11  12
ENDBRANCH  10  11
ENDBRANCH   1  10
BRANCH   1  21
ATOM     21  C   UNL     1       4.518   3.723  19.558  0.00  0.00    +0.000 C 
BRANCH  21  22
ATOM     22  N   UNL     1       3.392   3.028  18.969  0.00  0.00    +0.000 N 
ATOM     23  C   UNL     1       3.274   2.637  17.664  0.00  0.00    +0.000 A 
ATOM     24  C   UNL     1       2.151   1.843  17.630  0.00  0.00    +0.000 A 
ATOM     25  N   UNL     1       1.587   1.746  18.877  0.00  0.00    +0.000 NA
ATOM     26  C   UNL     1       2.354   2.469  19.659  0.00  0.00    +0.000 A 
ENDBRANCH  21  22
ENDBRANCH   1  21
TORSDOF 8
ENDMDL
MODEL 8
REMARK VINA RESULT:      -7.2      2.018      2.501
REMARK  Name = 
REMARK  8 active torsions:
REMARK  status: ('A' for Active; 'I' for Inactive)
REMARK    1  A    between atoms: C_5  and  O_6
REMARK    2  A    between atoms: O_6  and  C_7
REMARK    3  A    between atoms: C_7  and  C_8
REMARK    4  A    between atoms: C_8  and  C_9
REMARK    5  A    between atoms: C_9  and  C_10
REMARK    6  A    between atoms: C_10  and  C_11
REMARK    7  A    between atoms: C_10  and  C_17
REMARK    8  A    between atoms: C_11  and  N_12
REMARK                            x       y       z     vdW  Elec       q    Type
REMARK                         _______ _______ _______ _____ _____    ______ ____
ROOT
ATOM      1  C   UNL     1       3.107   5.976  17.756  0.00  0.00    +0.000 C 
ENDROOT
BRANCH   1   2
ATOM      2  C   UNL     1       2.613   4.936  18.786  0.00  0.00    +0.000 A 
ATOM      3  C   UNL     1       2.358   5.434  20.093  0.00  0.00    +0.000 A 
ATOM      4  C   UNL     1       1.949   4.606  21.142  0.00  0.00    +0.000 A 
ATOM      5  C   UNL     1       1.829   3.243  20.934  0.00  0.00    +0.000 A 
ATOM      6 CL   UNL     1       1.358   2.211  22.224  0.00  0.00    +0.000 Cl
ATOM      7  C   UNL     1       2.096   2.710  19.683  0.00  0.00    +0.000 A 
ATOM      8  C   UNL     1       2.464   3.540  18.613  0.00  0.00    +0.000 A 
ATOM      9 CL   UNL     1       2.687   2.665  17.136  0.00  0.00    +0.000 Cl
ENDBRANCH   1   2
BRANCH   1  10
ATOM     10  C   UNL     1       2.224   7.225  17.536  0.00  0.00    +0.000 C 
BRANCH  10  11
ATOM     11  C   UNL     1       2.688   8.546  18.162  0.00  0.00    +0.000 C 
BRANCH  11  12
ATOM     12  C   UNL     1       1.778   9.729  17.837  0.00  0.00    +0.000 C 
BRANCH  12  13
ATOM     13  O   UNL     1       0.935  10.014  18.957  0.00  0.00    +0.000 OA
BRANCH  13  18
ATOM     14 CL   UNL     1      -4.587  11.775  17.996  0.00  0.00    +0.000 Cl
ATOM     15  C   UNL     1      -2.949  11.299  18.213  0.00  0.00    +0.000 A 
ATOM     16  C   UNL     1      -2.189  11.864  19.235  0.00  0.00    +0.000 A 
ATOM     17  C   UNL     1      -0.875  11.429  19.441  0.00  0.00    +0.000 A 
ATOM     18  C   UNL     1      -0.333  10.420  18.637  0.00  0.00    +0.000 A 
ATOM     19  C   UNL     1      -1.083   9.905  17.583  0.00  0.00    +0.000 A 
ATOM     20  C   UNL     1      -2.398  10.333  17.376  0.00  0.00    +0.000 A 
ENDBRANCH  13  18
ENDBRANCH  12  13
ENDBRANCH  11  12
ENDBRANCH  10  11
ENDBRANCH   1  10
BRANCH   1  21
ATOM     21  C   UNL     1       4.607   6.358  17.922  0.00  0.00    +0.000 C 
BRANCH  21  22
ATOM     22  N   UNL     1       5.565   5.516  17.238  0.00  0.00    +0.000 N 
ATOM     23  C   UNL     1       5.491   5.096  15.939  0.00  0.00    +0.000 A 
ATOM     24  C   UNL     1       6.709   4.508  15.685  0.00  0.00    +0.000 A 
ATOM     25  N   UNL     1       7.515   4.560  16.795  0.00  0.00    +0.000 NA
ATOM     26  C   UNL     1       6.799   5.170  17.710  0.00  0.00    +0.000 A 
ENDBRANCH  21  22
ENDBRANCH   1  21
TORSDOF 8
ENDMDL
MODEL 9
REMARK VINA RESULT:      -7.2      2.579      4.613
REMARK  Name = 
REMARK  8 active torsions:
REMARK  status: ('A' for Active; 'I' for Inactive)
REMARK    1  A    between atoms: C_5  and  O_6
REMARK    2  A    between atoms: O_6  and  C_7
REMARK    3  A    between atoms: C_7  and  C_8
REMARK    4  A    between atoms: C_8  and  C_9
REMARK    5  A    between atoms: C_9  and  C_10
REMARK    6  A    between atoms: C_10  and  C_11
REMARK    7  A    between atoms: C_10  and  C_17
REMARK    8  A    between atoms: C_11  and  N_12
REMARK                            x       y       z     vdW  Elec       q    Type
REMARK                         _______ _______ _______ _____ _____    ______ ____
ROOT
ATOM      1  C   UNL     1       4.321   6.033  18.508  0.00  0.00    +0.000 C 
ENDROOT
BRANCH   1   2
ATOM      2  C   UNL     1       5.079   5.674  17.211  0.00  0.00    +0.000 A 
ATOM      3  C   UNL     1       4.454   4.706  16.379  0.00  0.00    +0.000 A 
ATOM      4  C   UNL     1       5.039   4.247  15.196  0.00  0.00    +0.000 A 
ATOM      5  C   UNL     1       6.293   4.703  14.829  0.00  0.00    +0.000 A 
ATOM      6 CL   UNL     1       7.036   4.123  13.392  0.00  0.00    +0.000 Cl
ATOM      7  C   UNL     1       6.952   5.626  15.626  0.00  0.00    +0.000 A 
ATOM      8  C   UNL     1       6.353   6.125  16.792  0.00  0.00    +0.000 A 
ATOM      9 CL   UNL     1       7.331   7.308  17.592  0.00  0.00    +0.000 Cl
ENDBRANCH   1   2
BRANCH   1  10
ATOM     10  C   UNL     1       2.909   6.641  18.356  0.00  0.00    +0.000 C 
BRANCH  10  11
ATOM     11  C   UNL     1       2.806   8.094  17.875  0.00  0.00    +0.000 C 
BRANCH  11  12
ATOM     12  C   UNL     1       1.730   8.902  18.597  0.00  0.00    +0.000 C 
BRANCH  12  13
ATOM     13  O   UNL     1       1.670   8.511  19.971  0.00  0.00    +0.000 OA
BRANCH  13  18
ATOM     14 CL   UNL     1      -1.764  12.028  23.190  0.00  0.00    +0.000 Cl
ATOM     15  C   UNL     1      -0.821  10.955  22.231  0.00  0.00    +0.000 A 
ATOM     16  C   UNL     1      -0.355  11.363  20.984  0.00  0.00    +0.000 A 
ATOM     17  C   UNL     1       0.459  10.505  20.235  0.00  0.00    +0.000 A 
ATOM     18  C   UNL     1       0.816   9.251  20.746  0.00  0.00    +0.000 A 
ATOM     19  C   UNL     1       0.296   8.833  21.967  0.00  0.00    +0.000 A 
ATOM     20  C   UNL     1      -0.514   9.689  22.720  0.00  0.00    +0.000 A 
ENDBRANCH  13  18
ENDBRANCH  12  13
ENDBRANCH  11  12
ENDBRANCH  10  11
ENDBRANCH   1  10
BRANCH   1  21
ATOM     21  C   UNL     1       4.345   4.905  19.581  0.00  0.00    +0.000 C 
BRANCH  21  22
ATOM     22  N   UNL     1       3.085   4.245  19.848  0.00  0.00    +0.000 N 
ATOM     23  C   UNL     1       2.552   3.200  19.145  0.00  0.00    +0.000 A 
ATOM     24  C   UNL     1       1.470   2.786  19.888  0.00  0.00    +0.000 A 
ATOM     25  N   UNL     1       1.334   3.552  21.017  0.00  0.00    +0.000 NA
ATOM     26  C   UNL     1       2.317   4.420  20.965  0.00  0.00    +0.000 A 
ENDBRANCH  21  22
ENDBRANCH   1  21
TORSDOF 8
ENDMDL
