MODEL 1
REMARK VINA RESULT:      -8.3      0.000      0.000
REMARK  Name = 
REMARK  10 active torsions:
REMARK  status: ('A' for Active; 'I' for Inactive)
REMARK    1  A    between atoms: C_2  and  C_3
REMARK    2  A    between atoms: C_3  and  C_4
REMARK    3  A    between atoms: C_3  and  N_14
REMARK    4  A    between atoms: C_4  and  O_5
REMARK    5  A    between atoms: O_5  and  C_6
REMARK    6  A    between atoms: C_6  and  C_7
REMARK    7  A    between atoms: C_15  and  C_17
REMARK    8  A    between atoms: C_17  and  C_18
REMARK    9  A    between atoms: C_17  and  N_25
REMARK   10  A    between atoms: C_18  and  C_19
REMARK                            x       y       z     vdW  Elec       q    Type
REMARK                         _______ _______ _______ _____ _____    ______ ____
ROOT
ATOM      1  C   UNL     1       2.533   5.944  19.493  0.00  0.00    +0.000 C 
ENDROOT
BRANCH   1   2
ATOM      2  N   UNL     1       3.919   5.793  19.043  0.00  0.00    +0.000 N 
ATOM      3  C   UNL     1       4.170   5.139  17.864  0.00  0.00    +0.000 C 
ATOM      4  O   UNL     1       3.267   4.618  17.210  0.00  0.00    +0.000 OA
ATOM      5  N   UNL     1       5.467   5.174  17.437  0.00  0.00    +0.000 N 
ATOM      6  C   UNL     1       6.607   5.767  18.129  0.00  0.00    +0.000 C 
ATOM      7  C   UNL     1       7.353   6.732  17.203  0.00  0.00    +0.000 C 
ATOM      8  O   UNL     1       7.710   6.094  15.962  0.00  0.00    +0.000 OA
ATOM      9  C   UNL     1       6.551   5.568  15.290  0.00  0.00    +0.000 C 
ATOM     10  C   UNL     1       5.824   4.546  16.166  0.00  0.00    +0.000 C 
ATOM     11  H   UNL     1       4.624   5.712  19.755  0.00  0.00    +0.000 HD
ENDBRANCH   1   2
BRANCH   1  13
ATOM     12  N   UNL     1       1.543   7.746  20.883  0.00  0.00    +0.000 N 
ATOM     13  C   UNL     1       2.144   7.424  19.678  0.00  0.00    +0.000 C 
ATOM     14  O   UNL     1       2.298   8.269  18.800  0.00  0.00    +0.000 OA
ATOM     15  H   UNL     1       1.669   7.138  21.678  0.00  0.00    +0.000 HD
BRANCH  12  16
ATOM     16  C   UNL     1       0.979   9.081  21.089  0.00  0.00    +0.000 C 
BRANCH  16  18
ATOM     17  N   UNL     1       0.591   9.587  23.648  0.00  0.00    +0.000 NA
ATOM     18  C   UNL     1       0.737   9.377  22.529  0.00  0.00    +0.000 C 
ENDBRANCH  16  18
BRANCH  16  19
ATOM     19  C   UNL     1      -0.343   9.272  20.314  0.00  0.00    +0.000 C 
BRANCH  19  20
ATOM     20  O   UNL     1      -0.266  10.440  19.488  0.00  0.00    +0.000 OA
BRANCH  20  21
ATOM     21  C   UNL     1      -1.445  11.250  19.561  0.00  0.00    +0.000 C 
BRANCH  21  22
ATOM     22  C   UNL     1      -2.308  11.051  18.335  0.00  0.00    +0.000 A 
ATOM     23  C   UNL     1      -1.787  10.327  17.244  0.00  0.00    +0.000 A 
ATOM     24  C   UNL     1      -2.553  10.088  16.101  0.00  0.00    +0.000 A 
ATOM     25  C   UNL     1      -3.844  10.594  16.010  0.00  0.00    +0.000 A 
ATOM     26  C   UNL     1      -4.376  11.324  17.071  0.00  0.00    +0.000 A 
ATOM     27  C   UNL     1      -3.617  11.549  18.226  0.00  0.00    +0.000 A 
ATOM     28 CL   UNL     1      -4.404  12.395  19.515  0.00  0.00    +0.000 Cl
ENDBRANCH  21  22
ENDBRANCH  20  21
ENDBRANCH  19  20
ENDBRANCH  16  19
ENDBRANCH  12  16
ENDBRANCH   1  13
BRANCH   1  29
ATOM     29  C   UNL     1       2.310   5.159  20.793  0.00  0.00    +0.000 C 
BRANCH  29  30
ATOM     30  C   UNL     1       1.107   4.186  20.745  0.00  0.00    +0.000 C 
ATOM     31  C   UNL     1       0.838   3.621  19.340  0.00  0.00    +0.000 C 
ATOM     32  C   UNL     1       1.941   2.676  18.883  0.00  0.00    +0.000 C 
ATOM     33  C   UNL     1       2.121   1.533  19.877  0.00  0.00    +0.000 C 
ATOM     34  C   UNL     1       2.345   2.030  21.303  0.00  0.00    +0.000 C 
ATOM     35  C   UNL     1       1.272   3.025  21.736  0.00  0.00    +0.000 C 
ENDBRANCH  29  30
ENDBRANCH   1  29
TORSDOF 10
ENDMDL
MODEL 2
REMARK VINA RESULT:      -8.0      3.971      8.488
REMARK  Name = 
REMARK  10 active torsions:
REMARK  status: ('A' for Active; 'I' for Inactive)
REMARK    1  A    between atoms: C_2  and  C_3
REMARK    2  A    between atoms: C_3  and  C_4
REMARK    3  A    between atoms: C_3  and  N_14
REMARK    4  A    between atoms: C_4  and  O_5
REMARK    5  A    between atoms: O_5  and  C_6
REMARK    6  A    between atoms: C_6  and  C_7
REMARK    7  A    between atoms: C_15  and  C_17
REMARK    8  A    between atoms: C_17  and  C_18
REMARK    9  A    between atoms: C_17  and  N_25
REMARK   10  A    between atoms: C_18  and  C_19
REMARK                            x       y       z     vdW  Elec       q    Type
REMARK                         _______ _______ _______ _____ _____    ______ ____
ROOT
ATOM      1  C   UNL     1       3.175   6.610  18.320  0.00  0.00    +0.000 C 
ENDROOT
BRANCH   1   2
ATOM      2  N   UNL     1       2.316   7.796  18.348  0.00  0.00    +0.000 N 
ATOM      3  C   UNL     1       1.721   8.162  19.528  0.00  0.00    +0.000 C 
ATOM      4  O   UNL     1       1.836   7.481  20.547  0.00  0.00    +0.000 OA
ATOM      5  N   UNL     1       1.063   9.358  19.509  0.00  0.00    +0.000 N 
ATOM      6  C   UNL     1       0.873  10.242  18.362  0.00  0.00    +0.000 C 
ATOM      7  C   UNL     1       1.329  11.664  18.700  0.00  0.00    +0.000 C 
ATOM      8  O   UNL     1       0.694  12.146  19.899  0.00  0.00    +0.000 OA
ATOM      9  C   UNL     1       0.948  11.272  21.015  0.00  0.00    +0.000 C 
ATOM     10  C   UNL     1       0.438   9.857  20.733  0.00  0.00    +0.000 C 
ATOM     11  H   UNL     1       1.806   8.010  17.508  0.00  0.00    +0.000 HD
ENDBRANCH   1   2
BRANCH   1  13
ATOM     12  N   UNL     1       5.633   6.562  17.993  0.00  0.00    +0.000 N 
ATOM     13  C   UNL     1       4.403   6.808  17.409  0.00  0.00    +0.000 C 
ATOM     14  O   UNL     1       4.318   7.213  16.253  0.00  0.00    +0.000 OA
ATOM     15  H   UNL     1       5.685   5.983  18.817  0.00  0.00    +0.000 HD
BRANCH  12  16
ATOM     16  C   UNL     1       6.866   6.887  17.272  0.00  0.00    +0.000 C 
BRANCH  16  18
ATOM     17  N   UNL     1       7.629   4.893  15.724  0.00  0.00    +0.000 NA
ATOM     18  C   UNL     1       7.320   5.771  16.394  0.00  0.00    +0.000 C 
ENDBRANCH  16  18
BRANCH  16  19
ATOM     19  C   UNL     1       8.013   7.260  18.236  0.00  0.00    +0.000 C 
BRANCH  19  20
ATOM     20  O   UNL     1       8.372   8.637  18.067  0.00  0.00    +0.000 OA
BRANCH  20  21
ATOM     21  C   UNL     1       8.674   9.287  19.307  0.00  0.00    +0.000 C 
BRANCH  21  22
ATOM     22  C   UNL     1       9.404  10.589  19.063  0.00  0.00    +0.000 A 
ATOM     23  C   UNL     1       9.934  10.845  17.783  0.00  0.00    +0.000 A 
ATOM     24  C   UNL     1      10.591  12.044  17.497  0.00  0.00    +0.000 A 
ATOM     25  C   UNL     1      10.759  13.000  18.491  0.00  0.00    +0.000 A 
ATOM     26  C   UNL     1      10.254  12.764  19.768  0.00  0.00    +0.000 A 
ATOM     27  C   UNL     1       9.579  11.571  20.053  0.00  0.00    +0.000 A 
ATOM     28 CL   UNL     1       8.921  11.417  21.646  0.00  0.00    +0.000 Cl
ENDBRANCH  21  22
ENDBRANCH  20  21
ENDBRANCH  19  20
ENDBRANCH  16  19
ENDBRANCH  12  16
ENDBRANCH   1  13
BRANCH   1  29
ATOM     29  C   UNL     1       2.367   5.381  17.882  0.00  0.00    +0.000 C 
BRANCH  29  30
ATOM     30  C   UNL     1       2.014   4.412  19.035  0.00  0.00    +0.000 C 
ATOM     31  C   UNL     1       1.329   3.121  18.557  0.00  0.00    +0.000 C 
ATOM     32  C   UNL     1       2.278   2.231  17.766  0.00  0.00    +0.000 C 
ATOM     33  C   UNL     1       3.513   1.888  18.592  0.00  0.00    +0.000 C 
ATOM     34  C   UNL     1       4.213   3.130  19.138  0.00  0.00    +0.000 C 
ATOM     35  C   UNL     1       3.246   4.051  19.876  0.00  0.00    +0.000 C 
ENDBRANCH  29  30
ENDBRANCH   1  29
TORSDOF 10
ENDMDL
MODEL 3
REMARK VINA RESULT:      -8.0      3.725      8.402
REMARK  Name = 
REMARK  10 active torsions:
REMARK  status: ('A' for Active; 'I' for Inactive)
REMARK    1  A    between atoms: C_2  and  C_3
REMARK    2  A    between atoms: C_3  and  C_4
REMARK    3  A    between atoms: C_3  and  N_14
REMARK    4  A    between atoms: C_4  and  O_5
REMARK    5  A    between atoms: O_5  and  C_6
REMARK    6  A    between atoms: C_6  and  C_7
REMARK    7  A    between atoms: C_15  and  C_17
REMARK    8  A    between atoms: C_17  and  C_18
REMARK    9  A    between atoms: C_17  and  N_25
REMARK   10  A    between atoms: C_18  and  C_19
REMARK                            x       y       z     vdW  Elec       q    Type
REMARK                         _______ _______ _______ _____ _____    ______ ____
ROOT
ATOM      1  C   UNL     1       3.120   6.795  18.717  0.00  0.00    +0.000 C 
ENDROOT
BRANCH   1   2
ATOM      2  N   UNL     1       2.185   7.920  18.652  0.00  0.00    +0.000 N 
ATOM      3  C   UNL     1       1.572   8.347  19.802  0.00  0.00    +0.000 C 
ATOM      4  O   UNL     1       1.735   7.765  20.874  0.00  0.00    +0.000 OA
ATOM      5  N   UNL     1       0.837   9.492  19.687  0.00  0.00    +0.000 N 
ATOM      6  C   UNL     1       0.585  10.260  18.471  0.00  0.00    +0.000 C 
ATOM      7  C   UNL     1       0.949  11.732  18.682  0.00  0.00    +0.000 C 
ATOM      8  O   UNL     1       0.288  12.273  19.842  0.00  0.00    +0.000 OA
ATOM      9  C   UNL     1       0.603  11.516  21.026  0.00  0.00    +0.000 C 
ATOM     10  C   UNL     1       0.185  10.053  20.870  0.00  0.00    +0.000 C 
ATOM     11  H   UNL     1       1.660   8.028  17.802  0.00  0.00    +0.000 HD
ENDBRANCH   1   2
BRANCH   1  13
ATOM     12  N   UNL     1       5.531   6.630  18.158  0.00  0.00    +0.000 N 
ATOM     13  C   UNL     1       4.263   6.934  17.693  0.00  0.00    +0.000 C 
ATOM     14  O   UNL     1       4.088   7.341  16.548  0.00  0.00    +0.000 OA
ATOM     15  H   UNL     1       5.634   6.050  18.977  0.00  0.00    +0.000 HD
BRANCH  12  16
ATOM     16  C   UNL     1       6.703   6.896  17.322  0.00  0.00    +0.000 C 
BRANCH  16  18
ATOM     17  N   UNL     1       7.428   4.760  15.955  0.00  0.00    +0.000 NA
ATOM     18  C   UNL     1       7.116   5.703  16.529  0.00  0.00    +0.000 C 
ENDBRANCH  16  18
BRANCH  16  19
ATOM     19  C   UNL     1       7.908   7.378  18.158  0.00  0.00    +0.000 C 
BRANCH  19  20
ATOM     20  O   UNL     1       8.481   8.551  17.568  0.00  0.00    +0.000 OA
BRANCH  20  21
ATOM     21  C   UNL     1       7.891   9.762  18.054  0.00  0.00    +0.000 C 
BRANCH  21  22
ATOM     22  C   UNL     1       8.948  10.820  18.276  0.00  0.00    +0.000 A 
ATOM     23  C   UNL     1      10.140  10.466  18.939  0.00  0.00    +0.000 A 
ATOM     24  C   UNL     1      11.160  11.398  19.143  0.00  0.00    +0.000 A 
ATOM     25  C   UNL     1      11.000  12.711  18.716  0.00  0.00    +0.000 A 
ATOM     26  C   UNL     1       9.825  13.087  18.069  0.00  0.00    +0.000 A 
ATOM     27  C   UNL     1       8.808  12.151  17.846  0.00  0.00    +0.000 A 
ATOM     28 CL   UNL     1       7.428  12.705  16.961  0.00  0.00    +0.000 Cl
ENDBRANCH  21  22
ENDBRANCH  20  21
ENDBRANCH  19  20
ENDBRANCH  16  19
ENDBRANCH  12  16
ENDBRANCH   1  13
BRANCH   1  29
ATOM     29  C   UNL     1       2.370   5.471  18.517  0.00  0.00    +0.000 C 
BRANCH  29  30
ATOM     30  C   UNL     1       2.506   4.481  19.699  0.00  0.00    +0.000 C 
ATOM     31  C   UNL     1       1.188   3.772  20.052  0.00  0.00    +0.000 C 
ATOM     32  C   UNL     1       0.751   2.801  18.964  0.00  0.00    +0.000 C 
ATOM     33  C   UNL     1       1.839   1.768  18.692  0.00  0.00    +0.000 C 
ATOM     34  C   UNL     1       3.189   2.411  18.380  0.00  0.00    +0.000 C 
ATOM     35  C   UNL     1       3.594   3.430  19.442  0.00  0.00    +0.000 C 
ENDBRANCH  29  30
ENDBRANCH   1  29
TORSDOF 10
ENDMDL
MODEL 4
REMARK VINA RESULT:      -8.0      4.234      8.199
REMARK  Name = 
REMARK  10 active torsions:
REMARK  status: ('A' for Active; 'I' for Inactive)
REMARK    1  A    between atoms: C_2  and  C_3
REMARK    2  A    between atoms: C_3  and  C_4
REMARK    3  A    between atoms: C_3  and  N_14
REMARK    4  A    between atoms: C_4  and  O_5
REMARK    5  A    between atoms: O_5  and  C_6
REMARK    6  A    between atoms: C_6  and  C_7
REMARK    7  A    between atoms: C_15  and  C_17
REMARK    8  A    between atoms: C_17  and  C_18
REMARK    9  A    between atoms: C_17  and  N_25
REMARK   10  A    between atoms: C_18  and  C_19
REMARK                            x       y       z     vdW  Elec       q    Type
REMARK                         _______ _______ _______ _____ _____    ______ ____
ROOT
ATOM      1  C   UNL     1       3.633   5.946  18.824  0.00  0.00    +0.000 C 
ENDROOT
BRANCH   1   2
ATOM      2  N   UNL     1       2.888   7.162  18.489  0.00  0.00    +0.000 N 
ATOM      3  C   UNL     1       2.035   7.701  19.417  0.00  0.00    +0.000 C 
ATOM      4  O   UNL     1       1.828   7.151  20.499  0.00  0.00    +0.000 OA
ATOM      5  N   UNL     1       1.498   8.912  19.090  0.00  0.00    +0.000 N 
ATOM      6  C   UNL     1       1.681   9.651  17.844  0.00  0.00    +0.000 C 
ATOM      7  C   UNL     1       2.140  11.083  18.132  0.00  0.00    +0.000 C 
ATOM      8  O   UNL     1       1.251  11.740  19.055  0.00  0.00    +0.000 OA
ATOM      9  C   UNL     1       1.138  11.005  20.288  0.00  0.00    +0.000 C 
ATOM     10  C   UNL     1       0.614   9.590  20.038  0.00  0.00    +0.000 C 
ATOM     11  H   UNL     1       2.634   7.290  17.525  0.00  0.00    +0.000 HD
ENDBRANCH   1   2
BRANCH   1  13
ATOM     12  N   UNL     1       5.451   6.898  17.431  0.00  0.00    +0.000 N 
ATOM     13  C   UNL     1       5.134   6.081  18.501  0.00  0.00    +0.000 C 
ATOM     14  O   UNL     1       6.005   5.464  19.109  0.00  0.00    +0.000 OA
ATOM     15  H   UNL     1       4.789   7.595  17.125  0.00  0.00    +0.000 HD
BRANCH  12  16
ATOM     16  C   UNL     1       6.827   6.956  16.932  0.00  0.00    +0.000 C 
BRANCH  16  18
ATOM     17  N   UNL     1       7.738   4.563  16.303  0.00  0.00    +0.000 NA
ATOM     18  C   UNL     1       7.349   5.612  16.554  0.00  0.00    +0.000 C 
ENDBRANCH  16  18
BRANCH  16  19
ATOM     19  C   UNL     1       7.785   7.590  17.964  0.00  0.00    +0.000 C 
BRANCH  19  20
ATOM     20  O   UNL     1       7.838   9.010  17.781  0.00  0.00    +0.000 OA
BRANCH  20  21
ATOM     21  C   UNL     1       8.818   9.641  18.613  0.00  0.00    +0.000 C 
BRANCH  21  22
ATOM     22  C   UNL     1       8.947  11.108  18.269  0.00  0.00    +0.000 A 
ATOM     23  C   UNL     1       7.888  11.747  17.594  0.00  0.00    +0.000 A 
ATOM     24  C   UNL     1       7.944  13.106  17.279  0.00  0.00    +0.000 A 
ATOM     25  C   UNL     1       9.072  13.850  17.605  0.00  0.00    +0.000 A 
ATOM     26  C   UNL     1      10.136  13.238  18.262  0.00  0.00    +0.000 A 
ATOM     27  C   UNL     1      10.075  11.879  18.595  0.00  0.00    +0.000 A 
ATOM     28 CL   UNL     1      11.417  11.240  19.483  0.00  0.00    +0.000 Cl
ENDBRANCH  21  22
ENDBRANCH  20  21
ENDBRANCH  19  20
ENDBRANCH  16  19
ENDBRANCH  12  16
ENDBRANCH   1  13
BRANCH   1  29
ATOM     29  C   UNL     1       3.028   4.737  18.098  0.00  0.00    +0.000 C 
BRANCH  29  30
ATOM     30  C   UNL     1       3.266   3.386  18.813  0.00  0.00    +0.000 C 
ATOM     31  C   UNL     1       3.148   3.479  20.343  0.00  0.00    +0.000 C 
ATOM     32  C   UNL     1       1.719   3.749  20.791  0.00  0.00    +0.000 C 
ATOM     33  C   UNL     1       0.773   2.675  20.262  0.00  0.00    +0.000 C 
ATOM     34  C   UNL     1       0.878   2.501  18.749  0.00  0.00    +0.000 C 
ATOM     35  C   UNL     1       2.320   2.292  18.297  0.00  0.00    +0.000 C 
ENDBRANCH  29  30
ENDBRANCH   1  29
TORSDOF 10
ENDMDL
MODEL 5
REMARK VINA RESULT:      -7.9      3.991      8.344
REMARK  Name = 
REMARK  10 active torsions:
REMARK  status: ('A' for Active; 'I' for Inactive)
REMARK    1  A    between atoms: C_2  and  C_3
REMARK    2  A    between atoms: C_3  and  C_4
REMARK    3  A    between atoms: C_3  and  N_14
REMARK    4  A    between atoms: C_4  and  O_5
REMARK    5  A    between atoms: O_5  and  C_6
REMARK    6  A    between atoms: C_6  and  C_7
REMARK    7  A    between atoms: C_15  and  C_17
REMARK    8  A    between atoms: C_17  and  C_18
REMARK    9  A    between atoms: C_17  and  N_25
REMARK   10  A    between atoms: C_18  and  C_19
REMARK                            x       y       z     vdW  Elec       q    Type
REMARK                         _______ _______ _______ _____ _____    ______ ____
ROOT
ATOM      1  C   UNL     1       3.641   5.960  18.740  0.00  0.00    +0.000 C 
ENDROOT
BRANCH   1   2
ATOM      2  N   UNL     1       2.912   7.188  18.417  0.00  0.00    +0.000 N 
ATOM      3  C   UNL     1       2.043   7.711  19.339  0.00  0.00    +0.000 C 
ATOM      4  O   UNL     1       1.810   7.139  20.403  0.00  0.00    +0.000 OA
ATOM      5  N   UNL     1       1.520   8.934  19.028  0.00  0.00    +0.000 N 
ATOM      6  C   UNL     1       1.734   9.698  17.803  0.00  0.00    +0.000 C 
ATOM      7  C   UNL     1       2.195  11.121  18.132  0.00  0.00    +0.000 C 
ATOM      8  O   UNL     1       1.291  11.763  19.051  0.00  0.00    +0.000 OA
ATOM      9  C   UNL     1       1.148  11.002  20.265  0.00  0.00    +0.000 C 
ATOM     10  C   UNL     1       0.621   9.596  19.972  0.00  0.00    +0.000 C 
ATOM     11  H   UNL     1       2.678   7.339  17.451  0.00  0.00    +0.000 HD
ENDBRANCH   1   2
BRANCH   1  13
ATOM     12  N   UNL     1       5.487   7.066  17.505  0.00  0.00    +0.000 N 
ATOM     13  C   UNL     1       5.142   6.075  18.407  0.00  0.00    +0.000 C 
ATOM     14  O   UNL     1       5.987   5.308  18.861  0.00  0.00    +0.000 OA
ATOM     15  H   UNL     1       4.860   7.843  17.357  0.00  0.00    +0.000 HD
BRANCH  12  16
ATOM     16  C   UNL     1       6.855   7.147  16.989  0.00  0.00    +0.000 C 
BRANCH  16  18
ATOM     17  N   UNL     1       7.605   4.897  15.835  0.00  0.00    +0.000 NA
ATOM     18  C   UNL     1       7.281   5.888  16.315  0.00  0.00    +0.000 C 
ENDBRANCH  16  18
BRANCH  16  19
ATOM     19  C   UNL     1       7.870   7.483  18.102  0.00  0.00    +0.000 C 
BRANCH  19  20
ATOM     20  O   UNL     1       8.259   8.859  18.017  0.00  0.00    +0.000 OA
BRANCH  20  21
ATOM     21  C   UNL     1       8.940   9.318  19.190  0.00  0.00    +0.000 C 
BRANCH  21  22
ATOM     22  C   UNL     1       9.482  10.714  18.982  0.00  0.00    +0.000 A 
ATOM     23  C   UNL     1      10.016  11.059  17.725  0.00  0.00    +0.000 A 
ATOM     24  C   UNL     1      10.502  12.343  17.471  0.00  0.00    +0.000 A 
ATOM     25  C   UNL     1      10.494  13.302  18.477  0.00  0.00    +0.000 A 
ATOM     26  C   UNL     1       9.982  12.981  19.732  0.00  0.00    +0.000 A 
ATOM     27  C   UNL     1       9.477  11.699  19.984  0.00  0.00    +0.000 A 
ATOM     28 CL   UNL     1       8.791  11.433  21.551  0.00  0.00    +0.000 Cl
ENDBRANCH  21  22
ENDBRANCH  20  21
ENDBRANCH  19  20
ENDBRANCH  16  19
ENDBRANCH  12  16
ENDBRANCH   1  13
BRANCH   1  29
ATOM     29  C   UNL     1       3.015   4.764  18.012  0.00  0.00    +0.000 C 
BRANCH  29  30
ATOM     30  C   UNL     1       3.240   3.405  18.717  0.00  0.00    +0.000 C 
ATOM     31  C   UNL     1       3.156   3.494  20.250  0.00  0.00    +0.000 C 
ATOM     32  C   UNL     1       1.741   3.791  20.728  0.00  0.00    +0.000 C 
ATOM     33  C   UNL     1       0.764   2.738  20.215  0.00  0.00    +0.000 C 
ATOM     34  C   UNL     1       0.834   2.568  18.699  0.00  0.00    +0.000 C 
ATOM     35  C   UNL     1       2.262   2.332  18.217  0.00  0.00    +0.000 C 
ENDBRANCH  29  30
ENDBRANCH   1  29
TORSDOF 10
ENDMDL
MODEL 6
REMARK VINA RESULT:      -7.8      4.050      8.198
REMARK  Name = 
REMARK  10 active torsions:
REMARK  status: ('A' for Active; 'I' for Inactive)
REMARK    1  A    between atoms: C_2  and  C_3
REMARK    2  A    between atoms: C_3  and  C_4
REMARK    3  A    between atoms: C_3  and  N_14
REMARK    4  A    between atoms: C_4  and  O_5
REMARK    5  A    between atoms: O_5  and  C_6
REMARK    6  A    between atoms: C_6  and  C_7
REMARK    7  A    between atoms: C_15  and  C_17
REMARK    8  A    between atoms: C_17  and  C_18
REMARK    9  A    between atoms: C_17  and  N_25
REMARK   10  A    between atoms: C_18  and  C_19
REMARK                            x       y       z     vdW  Elec       q    Type
REMARK                         _______ _______ _______ _____ _____    ______ ____
ROOT
ATOM      1  C   UNL     1       3.073   6.887  18.672  0.00  0.00    +0.000 C 
ENDROOT
BRANCH   1   2
ATOM      2  N   UNL     1       2.093   7.975  18.660  0.00  0.00    +0.000 N 
ATOM      3  C   UNL     1       1.526   8.377  19.841  0.00  0.00    +0.000 C 
ATOM      4  O   UNL     1       1.768   7.801  20.902  0.00  0.00    +0.000 OA
ATOM      5  N   UNL     1       0.742   9.492  19.769  0.00  0.00    +0.000 N 
ATOM      6  C   UNL     1       0.396  10.250  18.570  0.00  0.00    +0.000 C 
ATOM      7  C   UNL     1       0.712  11.736  18.765  0.00  0.00    +0.000 C 
ATOM      8  O   UNL     1       0.093  12.249  19.960  0.00  0.00    +0.000 OA
ATOM      9  C   UNL     1       0.500  11.505  21.124  0.00  0.00    +0.000 C 
ATOM     10  C   UNL     1       0.133  10.026  20.986  0.00  0.00    +0.000 C 
ATOM     11  H   UNL     1       1.519   8.063  17.839  0.00  0.00    +0.000 HD
ENDBRANCH   1   2
BRANCH   1  13
ATOM     12  N   UNL     1       5.429   6.618  17.942  0.00  0.00    +0.000 N 
ATOM     13  C   UNL     1       4.170   7.086  17.607  0.00  0.00    +0.000 C 
ATOM     14  O   UNL     1       3.972   7.671  16.546  0.00  0.00    +0.000 OA
ATOM     15  H   UNL     1       5.523   5.918  18.662  0.00  0.00    +0.000 HD
BRANCH  12  16
ATOM     16  C   UNL     1       6.575   6.912  17.080  0.00  0.00    +0.000 C 
BRANCH  16  18
ATOM     17  N   UNL     1       7.400   4.756  15.806  0.00  0.00    +0.000 NA
ATOM     18  C   UNL     1       7.064   5.704  16.357  0.00  0.00    +0.000 C 
ENDBRANCH  16  18
BRANCH  16  19
ATOM     19  C   UNL     1       7.749   7.526  17.873  0.00  0.00    +0.000 C 
BRANCH  19  20
ATOM     20  O   UNL     1       7.735   8.954  17.749  0.00  0.00    +0.000 OA
BRANCH  20  21
ATOM     21  C   UNL     1       8.836   9.580  18.418  0.00  0.00    +0.000 C 
BRANCH  21  22
ATOM     22  C   UNL     1       8.719  11.086  18.346  0.00  0.00    +0.000 A 
ATOM     23  C   UNL     1       7.940  11.662  17.323  0.00  0.00    +0.000 A 
ATOM     24  C   UNL     1       7.775  13.045  17.230  0.00  0.00    +0.000 A 
ATOM     25  C   UNL     1       8.409  13.885  18.138  0.00  0.00    +0.000 A 
ATOM     26  C   UNL     1       9.195  13.339  19.150  0.00  0.00    +0.000 A 
ATOM     27  C   UNL     1       9.347  11.951  19.258  0.00  0.00    +0.000 A 
ATOM     28 CL   UNL     1      10.276  11.377  20.601  0.00  0.00    +0.000 Cl
ENDBRANCH  21  22
ENDBRANCH  20  21
ENDBRANCH  19  20
ENDBRANCH  16  19
ENDBRANCH  12  16
ENDBRANCH   1  13
BRANCH   1  29
ATOM     29  C   UNL     1       2.369   5.537  18.479  0.00  0.00    +0.000 C 
BRANCH  29  30
ATOM     30  C   UNL     1       2.423   4.612  19.719  0.00  0.00    +0.000 C 
ATOM     31  C   UNL     1       1.091   3.900  20.004  0.00  0.00    +0.000 C 
ATOM     32  C   UNL     1       0.756   2.866  18.938  0.00  0.00    +0.000 C 
ATOM     33  C   UNL     1       1.876   1.840  18.807  0.00  0.00    +0.000 C 
ATOM     34  C   UNL     1       3.237   2.489  18.570  0.00  0.00    +0.000 C 
ATOM     35  C   UNL     1       3.543   3.568  19.604  0.00  0.00    +0.000 C 
ENDBRANCH  29  30
ENDBRANCH   1  29
TORSDOF 10
ENDMDL
MODEL 7
REMARK VINA RESULT:      -7.8      1.152      1.459
REMARK  Name = 
REMARK  10 active torsions:
REMARK  status: ('A' for Active; 'I' for Inactive)
REMARK    1  A    between atoms: C_2  and  C_3
REMARK    2  A    between atoms: C_3  and  C_4
REMARK    3  A    between atoms: C_3  and  N_14
REMARK    4  A    between atoms: C_4  and  O_5
REMARK    5  A    between atoms: O_5  and  C_6
REMARK    6  A    between atoms: C_6  and  C_7
REMARK    7  A    between atoms: C_15  and  C_17
REMARK    8  A    between atoms: C_17  and  C_18
REMARK    9  A    between atoms: C_17  and  N_25
REMARK   10  A    between atoms: C_18  and  C_19
REMARK                            x       y       z     vdW  Elec       q    Type
REMARK                         _______ _______ _______ _____ _____    ______ ____
ROOT
ATOM      1  C   UNL     1       2.342   6.633  18.532  0.00  0.00    +0.000 C 
ENDROOT
BRANCH   1   2
ATOM      2  N   UNL     1       3.512   6.575  17.654  0.00  0.00    +0.000 N 
ATOM      3  C   UNL     1       4.725   6.213  18.180  0.00  0.00    +0.000 C 
ATOM      4  O   UNL     1       4.869   6.002  19.384  0.00  0.00    +0.000 OA
ATOM      5  N   UNL     1       5.730   6.033  17.274  0.00  0.00    +0.000 N 
ATOM      6  C   UNL     1       5.666   6.249  15.831  0.00  0.00    +0.000 C 
ATOM      7  C   UNL     1       6.154   5.007  15.081  0.00  0.00    +0.000 C 
ATOM      8  O   UNL     1       7.459   4.602  15.536  0.00  0.00    +0.000 OA
ATOM      9  C   UNL     1       7.466   4.351  16.954  0.00  0.00    +0.000 C 
ATOM     10  C   UNL     1       7.048   5.599  17.735  0.00  0.00    +0.000 C 
ATOM     11  H   UNL     1       3.537   7.220  16.884  0.00  0.00    +0.000 HD
ENDBRANCH   1   2
BRANCH   1  13
ATOM     12  N   UNL     1       1.386   8.176  20.223  0.00  0.00    +0.000 N 
ATOM     13  C   UNL     1       2.054   8.068  19.016  0.00  0.00    +0.000 C 
ATOM     14  O   UNL     1       2.342   9.065  18.359  0.00  0.00    +0.000 OA
ATOM     15  H   UNL     1       1.400   7.402  20.870  0.00  0.00    +0.000 HD
BRANCH  12  16
ATOM     16  C   UNL     1       0.911   9.482  20.686  0.00  0.00    +0.000 C 
BRANCH  16  18
ATOM     17  N   UNL     1       0.766   9.640  23.314  0.00  0.00    +0.000 NA
ATOM     18  C   UNL     1       0.810   9.554  22.171  0.00  0.00    +0.000 C 
ENDBRANCH  16  18
BRANCH  16  19
ATOM     19  C   UNL     1      -0.461   9.843  20.076  0.00  0.00    +0.000 C 
BRANCH  19  20
ATOM     20  O   UNL     1      -0.283  10.572  18.856  0.00  0.00    +0.000 OA
BRANCH  20  21
ATOM     21  C   UNL     1      -0.974  11.826  18.851  0.00  0.00    +0.000 C 
BRANCH  21  22
ATOM     22  C   UNL     1      -2.354  11.674  18.252  0.00  0.00    +0.000 A 
ATOM     23  C   UNL     1      -2.478  11.163  16.945  0.00  0.00    +0.000 A 
ATOM     24  C   UNL     1      -3.731  10.974  16.357  0.00  0.00    +0.000 A 
ATOM     25  C   UNL     1      -4.885  11.320  17.049  0.00  0.00    +0.000 A 
ATOM     26  C   UNL     1      -4.786  11.839  18.338  0.00  0.00    +0.000 A 
ATOM     27  C   UNL     1      -3.533  12.012  18.938  0.00  0.00    +0.000 A 
ATOM     28 CL   UNL     1      -3.531  12.585  20.571  0.00  0.00    +0.000 Cl
ENDBRANCH  21  22
ENDBRANCH  20  21
ENDBRANCH  19  20
ENDBRANCH  16  19
ENDBRANCH  12  16
ENDBRANCH   1  13
BRANCH   1  29
ATOM     29  C   UNL     1       2.525   5.685  19.725  0.00  0.00    +0.000 C 
BRANCH  29  30
ATOM     30  C   UNL     1       1.527   4.503  19.753  0.00  0.00    +0.000 C 
ATOM     31  C   UNL     1       1.360   3.815  18.388  0.00  0.00    +0.000 C 
ATOM     32  C   UNL     1       2.618   3.068  17.967  0.00  0.00    +0.000 C 
ATOM     33  C   UNL     1       3.016   2.041  19.021  0.00  0.00    +0.000 C 
ATOM     34  C   UNL     1       3.151   2.655  20.413  0.00  0.00    +0.000 C 
ATOM     35  C   UNL     1       1.913   3.455  20.806  0.00  0.00    +0.000 C 
ENDBRANCH  29  30
ENDBRANCH   1  29
TORSDOF 10
ENDMDL
MODEL 8
REMARK VINA RESULT:      -7.7      4.253      8.618
REMARK  Name = 
REMARK  10 active torsions:
REMARK  status: ('A' for Active; 'I' for Inactive)
REMARK    1  A    between atoms: C_2  and  C_3
REMARK    2  A    between atoms: C_3  and  C_4
REMARK    3  A    between atoms: C_3  and  N_14
REMARK    4  A    between atoms: C_4  and  O_5
REMARK    5  A    between atoms: O_5  and  C_6
REMARK    6  A    between atoms: C_6  and  C_7
REMARK    7  A    between atoms: C_15  and  C_17
REMARK    8  A    between atoms: C_17  and  C_18
REMARK    9  A    between atoms: C_17  and  N_25
REMARK   10  A    between atoms: C_18  and  C_19
REMARK                            x       y       z     vdW  Elec       q    Type
REMARK                         _______ _______ _______ _____ _____    ______ ____
ROOT
ATOM      1  C   UNL     1       3.291   6.601  18.356  0.00  0.00    +0.000 C 
ENDROOT
BRANCH   1   2
ATOM      2  N   UNL     1       2.442   7.794  18.354  0.00  0.00    +0.000 N 
ATOM      3  C   UNL     1       1.770   8.138  19.498  0.00  0.00    +0.000 C 
ATOM      4  O   UNL     1       1.808   7.433  20.505  0.00  0.00    +0.000 OA
ATOM      5  N   UNL     1       1.125   9.341  19.462  0.00  0.00    +0.000 N 
ATOM      6  C   UNL     1       1.022  10.254  18.327  0.00  0.00    +0.000 C 
ATOM      7  C   UNL     1       1.465  11.663  18.729  0.00  0.00    +0.000 C 
ATOM      8  O   UNL     1       0.752  12.122  19.893  0.00  0.00    +0.000 OA
ATOM      9  C   UNL     1       0.921  11.220  21.003  0.00  0.00    +0.000 C 
ATOM     10  C   UNL     1       0.420   9.818  20.652  0.00  0.00    +0.000 C 
ATOM     11  H   UNL     1       1.994   8.033  17.486  0.00  0.00    +0.000 HD
ENDBRANCH   1   2
BRANCH   1  13
ATOM     12  N   UNL     1       5.720   6.977  18.019  0.00  0.00    +0.000 N 
ATOM     13  C   UNL     1       4.499   6.750  17.410  0.00  0.00    +0.000 C 
ATOM     14  O   UNL     1       4.394   6.727  16.186  0.00  0.00    +0.000 OA
ATOM     15  H   UNL     1       5.846   6.724  18.988  0.00  0.00    +0.000 HD
BRANCH  12  16
ATOM     16  C   UNL     1       6.895   7.305  17.210  0.00  0.00    +0.000 C 
BRANCH  16  18
ATOM     17  N   UNL     1       7.575   5.326  15.605  0.00  0.00    +0.000 NA
ATOM     18  C   UNL     1       7.300   6.182  16.317  0.00  0.00    +0.000 C 
ENDBRANCH  16  18
BRANCH  16  19
ATOM     19  C   UNL     1       8.103   7.705  18.086  0.00  0.00    +0.000 C 
BRANCH  19  20
ATOM     20  O   UNL     1       7.973   9.066  18.514  0.00  0.00    +0.000 OA
BRANCH  20  21
ATOM     21  C   UNL     1       8.986   9.919  17.969  0.00  0.00    +0.000 C 
BRANCH  21  22
ATOM     22  C   UNL     1       9.448  10.926  18.998  0.00  0.00    +0.000 A 
ATOM     23  C   UNL     1       9.130  10.711  20.354  0.00  0.00    +0.000 A 
ATOM     24  C   UNL     1       9.558  11.595  21.347  0.00  0.00    +0.000 A 
ATOM     25  C   UNL     1      10.286  12.728  21.005  0.00  0.00    +0.000 A 
ATOM     26  C   UNL     1      10.602  12.967  19.669  0.00  0.00    +0.000 A 
ATOM     27  C   UNL     1      10.190  12.074  18.673  0.00  0.00    +0.000 A 
ATOM     28 CL   UNL     1      10.707  12.424  17.059  0.00  0.00    +0.000 Cl
ENDBRANCH  21  22
ENDBRANCH  20  21
ENDBRANCH  19  20
ENDBRANCH  16  19
ENDBRANCH  12  16
ENDBRANCH   1  13
BRANCH   1  29
ATOM     29  C   UNL     1       2.465   5.361  17.990  0.00  0.00    +0.000 C 
BRANCH  29  30
ATOM     30  C   UNL     1       3.019   4.037  18.569  0.00  0.00    +0.000 C 
ATOM     31  C   UNL     1       3.091   4.029  20.105  0.00  0.00    +0.000 C 
ATOM     32  C   UNL     1       1.709   4.018  20.742  0.00  0.00    +0.000 C 
ATOM     33  C   UNL     1       0.896   2.824  20.253  0.00  0.00    +0.000 C 
ATOM     34  C   UNL     1       0.827   2.749  18.730  0.00  0.00    +0.000 C 
ATOM     35  C   UNL     1       2.211   2.822  18.092  0.00  0.00    +0.000 C 
ENDBRANCH  29  30
ENDBRANCH   1  29
TORSDOF 10
ENDMDL
MODEL 9
REMARK VINA RESULT:      -7.7      3.871      8.869
REMARK  Name = 
REMARK  10 active torsions:
REMARK  status: ('A' for Active; 'I' for Inactive)
REMARK    1  A    between atoms: C_2  and  C_3
REMARK    2  A    between atoms: C_3  and  C_4
REMARK    3  A    between atoms: C_3  and  N_14
REMARK    4  A    between atoms: C_4  and  O_5
REMARK    5  A    between atoms: O_5  and  C_6
REMARK    6  A    between atoms: C_6  and  C_7
REMARK    7  A    between atoms: C_15  and  C_17
REMARK    8  A    between atoms: C_17  and  C_18
REMARK    9  A    between atoms: C_17  and  N_25
REMARK   10  A    between atoms: C_18  and  C_19
REMARK                            x       y       z     vdW  Elec       q    Type
REMARK                         _______ _______ _______ _____ _____    ______ ____
ROOT
ATOM      1  C   UNL     1       0.942   9.872  19.343  0.00  0.00    +0.000 C 
ENDROOT
BRANCH   1   2
ATOM      2  N   UNL     1       1.452  11.203  19.008  0.00  0.00    +0.000 N 
ATOM      3  C   UNL     1       1.631  12.122  20.010  0.00  0.00    +0.000 C 
ATOM      4  O   UNL     1       1.310  11.879  21.172  0.00  0.00    +0.000 OA
ATOM      5  N   UNL     1       2.251  13.281  19.641  0.00  0.00    +0.000 N 
ATOM      6  C   UNL     1       2.676  13.666  18.298  0.00  0.00    +0.000 C 
ATOM      7  C   UNL     1       4.150  14.081  18.301  0.00  0.00    +0.000 C 
ATOM      8  O   UNL     1       4.405  15.097  19.289  0.00  0.00    +0.000 OA
ATOM      9  C   UNL     1       4.018  14.658  20.605  0.00  0.00    +0.000 C 
ATOM     10  C   UNL     1       2.530  14.303  20.650  0.00  0.00    +0.000 C 
ATOM     11  H   UNL     1       1.206  11.572  18.106  0.00  0.00    +0.000 HD
ENDBRANCH   1   2
BRANCH   1  13
ATOM     12  N   UNL     1       1.815   7.551  19.277  0.00  0.00    +0.000 N 
ATOM     13  C   UNL     1       1.710   8.757  18.606  0.00  0.00    +0.000 C 
ATOM     14  O   UNL     1       2.250   8.927  17.516  0.00  0.00    +0.000 OA
ATOM     15  H   UNL     1       1.159   7.333  20.012  0.00  0.00    +0.000 HD
BRANCH  12  16
ATOM     16  C   UNL     1       2.669   6.487  18.746  0.00  0.00    +0.000 C 
BRANCH  16  18
ATOM     17  N   UNL     1       1.254   4.664  17.470  0.00  0.00    +0.000 NA
ATOM     18  C   UNL     1       1.890   5.448  18.014  0.00  0.00    +0.000 C 
ENDBRANCH  16  18
BRANCH  16  19
ATOM     19  C   UNL     1       3.491   5.801  19.858  0.00  0.00    +0.000 C 
BRANCH  19  20
ATOM     20  O   UNL     1       4.831   5.566  19.409  0.00  0.00    +0.000 OA
BRANCH  20  21
ATOM     21  C   UNL     1       4.989   4.291  18.776  0.00  0.00    +0.000 C 
BRANCH  21  22
ATOM     22  C   UNL     1       5.613   4.447  17.407  0.00  0.00    +0.000 A 
ATOM     23  C   UNL     1       4.875   4.057  16.272  0.00  0.00    +0.000 A 
ATOM     24  C   UNL     1       5.393   4.208  14.984  0.00  0.00    +0.000 A 
ATOM     25  C   UNL     1       6.671   4.723  14.803  0.00  0.00    +0.000 A 
ATOM     26  C   UNL     1       7.424   5.104  15.911  0.00  0.00    +0.000 A 
ATOM     27  C   UNL     1       6.901   4.972  17.203  0.00  0.00    +0.000 A 
ATOM     28 CL   UNL     1       7.888   5.553  18.500  0.00  0.00    +0.000 Cl
ENDBRANCH  21  22
ENDBRANCH  20  21
ENDBRANCH  19  20
ENDBRANCH  16  19
ENDBRANCH  12  16
ENDBRANCH   1  13
BRANCH   1  29
ATOM     29  C   UNL     1      -0.560   9.788  19.040  0.00  0.00    +0.000 C 
BRANCH  29  30
ATOM     30  C   UNL     1      -1.008  10.631  17.822  0.00  0.00    +0.000 C 
ATOM     31  C   UNL     1      -1.983   9.888  16.894  0.00  0.00    +0.000 C 
ATOM     32  C   UNL     1      -3.338   9.662  17.551  0.00  0.00    +0.000 C 
ATOM     33  C   UNL     1      -3.951  10.985  17.997  0.00  0.00    +0.000 C 
ATOM     34  C   UNL     1      -3.009  11.795  18.885  0.00  0.00    +0.000 C 
ATOM     35  C   UNL     1      -1.633  11.966  18.250  0.00  0.00    +0.000 C 
ENDBRANCH  29  30
ENDBRANCH   1  29
TORSDOF 10
ENDMDL
