MODEL 1
REMARK VINA RESULT:      -7.8      0.000      0.000
REMARK  Name = 
REMARK  9 active torsions:
REMARK  status: ('A' for Active; 'I' for Inactive)
REMARK    1  A    between atoms: C_2  and  C_3
REMARK    2  A    between atoms: C_3  and  N_4
REMARK    3  A    between atoms: C_7  and  N_8
REMARK    4  A    between atoms: C_9  and  C_11
REMARK    5  A    between atoms: N_27  and  CA_28
REMARK    6  A    between atoms: CA_28  and  CB_29
REMARK    7  A    between atoms: CA_28  and  C_31
REMARK    8  A    between atoms: CB_29  and  OG_30
REMARK    9  A    between atoms: C_31  and  O_32
REMARK                            x       y       z     vdW  Elec       q    Type
REMARK                         _______ _______ _______ _____ _____    ______ ____
ROOT
ATOM      1  N   UNK A   0       3.100   5.608  18.450  0.00  0.00    +0.000 N 
ATOM      2  C   UNK A   0       2.540   6.873  18.639  0.00  0.00    +0.000 C 
ATOM      3  O   UNK A   0       2.429   7.706  17.736  0.00  0.00    +0.000 OA
ATOM      4  C   UNK A   0       2.186   7.226  20.088  0.00  0.00    +0.000 C 
ATOM      5  C   UNK A   0       1.409   6.074  20.707  0.00  0.00    +0.000 C 
ATOM      6  C   UNK A   0       2.207   4.804  20.579  0.00  0.00    +0.000 A 
ATOM      7  C   UNK A   0       2.066   3.795  21.543  0.00  0.00    +0.000 A 
ATOM      8  C   UNK A   0       2.782   2.607  21.426  0.00  0.00    +0.000 A 
ATOM      9  C   UNK A   0       3.640   2.419  20.348  0.00  0.00    +0.000 A 
ATOM     10  C   UNK A   0       3.766   3.408  19.370  0.00  0.00    +0.000 A 
ATOM     11  C   UNK A   0       3.039   4.602  19.462  0.00  0.00    +0.000 A 
ENDROOT
BRANCH   4  12
ATOM     12  N   UNK A   0       1.439   8.476  20.126  0.00  0.00    +0.000 N 
ATOM     13  C   UNK A   0       1.258   9.173  21.295  0.00  0.00    +0.000 C 
ATOM     14  O   UNK A   0       1.668   8.760  22.375  0.00  0.00    +0.000 OA
ATOM     15  H   UNK A   0       1.292   8.949  19.240  0.00  0.00    +0.000 HD
BRANCH  13  16
ATOM     16  C   UNK A   0       0.565  10.435  21.160  0.00  0.00    +0.000 A 
ATOM     17  C   UNK A   0      -0.469  11.009  21.912  0.00  0.00    +0.000 A 
ATOM     18  C   UNK A   0      -0.710  12.240  21.317  0.00  0.00    +0.000 A 
ATOM     19  C   UNK A   0      -1.595  13.277  21.580  0.00  0.00    +0.000 A 
ATOM     20  C   UNK A   0      -1.376  14.263  20.633  0.00  0.00    +0.000 A 
ATOM     21 CL   UNK A   0      -2.213  15.757  20.493  0.00  0.00    +0.000 Cl
ATOM     22  S   UNK A   0      -0.123  13.889  19.507  0.00  0.00    +0.000 S 
ATOM     23  C   UNK A   0       0.110  12.431  20.275  0.00  0.00    +0.000 A 
ATOM     24  N   UNK A   0       0.909  11.345  20.157  0.00  0.00    +0.000 N 
ATOM     25  H   UNK A   0       1.638  11.194  19.470  0.00  0.00    +0.000 HD
ENDBRANCH  13  16
ENDBRANCH   4  12
BRANCH   1  26
ATOM     26  C   UNK A   0       3.669   5.305  17.130  0.00  0.00    +0.000 C 
BRANCH  26  28
ATOM     27  O   UNK A   0       5.790   4.295  16.567  0.00  0.00    +0.000 OA
ATOM     28  C   UNK A   0       5.203   5.236  17.097  0.00  0.00    +0.000 C 
ATOM     29  N   SER A   1       5.867   6.295  17.674  0.00  0.00    +0.000 N 
ATOM     30  H   SER A   1       5.325   6.903  18.277  0.00  0.00    +0.000 HD
BRANCH  29  31
ATOM     31  CA  SER A   1       7.330   6.408  17.749  0.00  0.00    +0.000 C 
BRANCH  31  32
ATOM     32  CB  SER A   1       7.821   7.861  17.864  0.00  0.00    +0.000 C 
BRANCH  32  33
ATOM     33  OG  SER A   1       8.711   8.012  18.972  0.00  0.00    +0.000 OA
ATOM     34  H   SER A   1       8.178   7.974  19.785  0.00  0.00    +0.000 HD
ENDBRANCH  32  33
ENDBRANCH  31  32
BRANCH  31  35
ATOM     35  C   SER A   1       7.919   5.536  18.869  0.00  0.00    +0.000 C 
BRANCH  35  36
ATOM     36  O   SER A   1       7.030   5.511  19.986  0.00  0.00    +0.000 OA
ATOM     37  H   SER A   1       7.334   6.218  20.587  0.00  0.00    +0.000 HD
ENDBRANCH  35  36
ENDBRANCH  31  35
ENDBRANCH  29  31
ENDBRANCH  26  28
ENDBRANCH   1  26
TORSDOF 9
ENDMDL
MODEL 2
REMARK VINA RESULT:      -7.7      2.558      4.889
REMARK  Name = 
REMARK  9 active torsions:
REMARK  status: ('A' for Active; 'I' for Inactive)
REMARK    1  A    between atoms: C_2  and  C_3
REMARK    2  A    between atoms: C_3  and  N_4
REMARK    3  A    between atoms: C_7  and  N_8
REMARK    4  A    between atoms: C_9  and  C_11
REMARK    5  A    between atoms: N_27  and  CA_28
REMARK    6  A    between atoms: CA_28  and  CB_29
REMARK    7  A    between atoms: CA_28  and  C_31
REMARK    8  A    between atoms: CB_29  and  OG_30
REMARK    9  A    between atoms: C_31  and  O_32
REMARK                            x       y       z     vdW  Elec       q    Type
REMARK                         _______ _______ _______ _____ _____    ______ ____
ROOT
ATOM      1  N   UNK A   0       4.756   4.822  18.435  0.00  0.00    +0.000 N 
ATOM      2  C   UNK A   0       3.899   5.709  19.090  0.00  0.00    +0.000 C 
ATOM      3  O   UNK A   0       3.671   5.661  20.301  0.00  0.00    +0.000 OA
ATOM      4  C   UNK A   0       3.139   6.681  18.181  0.00  0.00    +0.000 C 
ATOM      5  C   UNK A   0       4.116   7.324  17.208  0.00  0.00    +0.000 C 
ATOM      6  C   UNK A   0       4.850   6.250  16.452  0.00  0.00    +0.000 A 
ATOM      7  C   UNK A   0       5.298   6.501  15.147  0.00  0.00    +0.000 A 
ATOM      8  C   UNK A   0       5.997   5.524  14.443  0.00  0.00    +0.000 A 
ATOM      9  C   UNK A   0       6.254   4.293  15.038  0.00  0.00    +0.000 A 
ATOM     10  C   UNK A   0       5.835   4.045  16.347  0.00  0.00    +0.000 A 
ATOM     11  C   UNK A   0       5.146   5.023  17.076  0.00  0.00    +0.000 A 
ENDROOT
BRANCH   4  12
ATOM     12  N   UNK A   0       2.438   7.670  18.989  0.00  0.00    +0.000 N 
ATOM     13  C   UNK A   0       1.801   8.745  18.420  0.00  0.00    +0.000 C 
ATOM     14  O   UNK A   0       1.829   8.962  17.212  0.00  0.00    +0.000 OA
ATOM     15  H   UNK A   0       2.204   7.403  19.939  0.00  0.00    +0.000 HD
BRANCH  13  16
ATOM     16  C   UNK A   0       1.081   9.595  19.343  0.00  0.00    +0.000 A 
ATOM     17  C   UNK A   0       0.556  10.886  19.196  0.00  0.00    +0.000 A 
ATOM     18  C   UNK A   0      -0.041  11.176  20.415  0.00  0.00    +0.000 A 
ATOM     19  C   UNK A   0      -0.728  12.276  20.911  0.00  0.00    +0.000 A 
ATOM     20  C   UNK A   0      -1.091  11.988  22.216  0.00  0.00    +0.000 A 
ATOM     21 CL   UNK A   0      -1.947  13.016  23.295  0.00  0.00    +0.000 Cl
ATOM     22  S   UNK A   0      -0.599  10.423  22.752  0.00  0.00    +0.000 S 
ATOM     23  C   UNK A   0       0.091  10.148  21.264  0.00  0.00    +0.000 A 
ATOM     24  N   UNK A   0       0.768   9.160  20.633  0.00  0.00    +0.000 N 
ATOM     25  H   UNK A   0       1.018   8.254  21.009  0.00  0.00    +0.000 HD
ENDBRANCH  13  16
ENDBRANCH   4  12
BRANCH   1  26
ATOM     26  C   UNK A   0       5.331   3.724  19.222  0.00  0.00    +0.000 C 
BRANCH  26  28
ATOM     27  O   UNK A   0       4.642   1.780  20.481  0.00  0.00    +0.000 OA
ATOM     28  C   UNK A   0       4.298   2.747  19.804  0.00  0.00    +0.000 C 
ATOM     29  N   SER A   1       2.979   3.035  19.536  0.00  0.00    +0.000 N 
ATOM     30  H   SER A   1       2.795   3.703  18.798  0.00  0.00    +0.000 HD
BRANCH  29  31
ATOM     31  CA  SER A   1       1.848   2.218  19.997  0.00  0.00    +0.000 C 
BRANCH  31  32
ATOM     32  CB  SER A   1       1.314   2.644  21.375  0.00  0.00    +0.000 C 
BRANCH  32  33
ATOM     33  OG  SER A   1       2.386   2.840  22.299  0.00  0.00    +0.000 OA
ATOM     34  H   SER A   1       2.993   2.086  22.210  0.00  0.00    +0.000 HD
ENDBRANCH  32  33
ENDBRANCH  31  32
BRANCH  31  35
ATOM     35  C   SER A   1       0.716   2.162  18.959  0.00  0.00    +0.000 C 
BRANCH  35  36
ATOM     36  O   SER A   1       0.934   3.145  17.947  0.00  0.00    +0.000 OA
ATOM     37  H   SER A   1       0.167   3.747  17.988  0.00  0.00    +0.000 HD
ENDBRANCH  35  36
ENDBRANCH  31  35
ENDBRANCH  29  31
ENDBRANCH  26  28
ENDBRANCH   1  26
TORSDOF 9
ENDMDL
MODEL 3
REMARK VINA RESULT:      -7.7      1.674      1.921
REMARK  Name = 
REMARK  9 active torsions:
REMARK  status: ('A' for Active; 'I' for Inactive)
REMARK    1  A    between atoms: C_2  and  C_3
REMARK    2  A    between atoms: C_3  and  N_4
REMARK    3  A    between atoms: C_7  and  N_8
REMARK    4  A    between atoms: C_9  and  C_11
REMARK    5  A    between atoms: N_27  and  CA_28
REMARK    6  A    between atoms: CA_28  and  CB_29
REMARK    7  A    between atoms: CA_28  and  C_31
REMARK    8  A    between atoms: CB_29  and  OG_30
REMARK    9  A    between atoms: C_31  and  O_32
REMARK                            x       y       z     vdW  Elec       q    Type
REMARK                         _______ _______ _______ _____ _____    ______ ____
ROOT
ATOM      1  N   UNK A   0       4.064   5.107  17.165  0.00  0.00    +0.000 N 
ATOM      2  C   UNK A   0       3.618   6.407  17.417  0.00  0.00    +0.000 C 
ATOM      3  O   UNK A   0       4.006   7.390  16.781  0.00  0.00    +0.000 OA
ATOM      4  C   UNK A   0       2.704   6.563  18.637  0.00  0.00    +0.000 C 
ATOM      5  C   UNK A   0       1.614   5.503  18.584  0.00  0.00    +0.000 C 
ATOM      6  C   UNK A   0       2.245   4.141  18.481  0.00  0.00    +0.000 A 
ATOM      7  C   UNK A   0       1.586   3.028  19.025  0.00  0.00    +0.000 A 
ATOM      8  C   UNK A   0       2.147   1.758  18.919  0.00  0.00    +0.000 A 
ATOM      9  C   UNK A   0       3.366   1.592  18.270  0.00  0.00    +0.000 A 
ATOM     10  C   UNK A   0       4.015   2.691  17.703  0.00  0.00    +0.000 A 
ATOM     11  C   UNK A   0       3.456   3.973  17.784  0.00  0.00    +0.000 A 
ENDROOT
BRANCH   4  12
ATOM     12  N   UNK A   0       2.156   7.912  18.676  0.00  0.00    +0.000 N 
ATOM     13  C   UNK A   0       1.600   8.432  19.819  0.00  0.00    +0.000 C 
ATOM     14  O   UNK A   0       1.487   7.777  20.850  0.00  0.00    +0.000 OA
ATOM     15  H   UNK A   0       2.436   8.542  17.932  0.00  0.00    +0.000 HD
BRANCH  13  16
ATOM     16  C   UNK A   0       1.173   9.811  19.725  0.00  0.00    +0.000 A 
ATOM     17  C   UNK A   0       0.910  10.625  18.616  0.00  0.00    +0.000 A 
ATOM     18  C   UNK A   0       0.520  11.848  19.147  0.00  0.00    +0.000 A 
ATOM     19  C   UNK A   0       0.130  13.057  18.588  0.00  0.00    +0.000 A 
ATOM     20  C   UNK A   0      -0.142  13.929  19.629  0.00  0.00    +0.000 A 
ATOM     21 CL   UNK A   0      -0.650  15.565  19.493  0.00  0.00    +0.000 Cl
ATOM     22  S   UNK A   0       0.074  13.240  21.197  0.00  0.00    +0.000 S 
ATOM     23  C   UNK A   0       0.530  11.806  20.486  0.00  0.00    +0.000 A 
ATOM     24  N   UNK A   0       0.919  10.569  20.871  0.00  0.00    +0.000 N 
ATOM     25  H   UNK A   0       1.017  10.226  21.819  0.00  0.00    +0.000 HD
ENDBRANCH  13  16
ENDBRANCH   4  12
BRANCH   1  26
ATOM     26  C   UNK A   0       5.118   4.931  16.157  0.00  0.00    +0.000 C 
BRANCH  26  28
ATOM     27  O   UNK A   0       7.496   4.511  16.230  0.00  0.00    +0.000 OA
ATOM     28  C   UNK A   0       6.546   5.144  16.684  0.00  0.00    +0.000 C 
ATOM     29  N   SER A   1       6.689   6.094  17.670  0.00  0.00    +0.000 N 
ATOM     30  H   SER A   1       5.845   6.401  18.139  0.00  0.00    +0.000 HD
BRANCH  29  31
ATOM     31  CA  SER A   1       7.970   6.435  18.305  0.00  0.00    +0.000 C 
BRANCH  31  32
ATOM     32  CB  SER A   1       8.243   7.947  18.344  0.00  0.00    +0.000 C 
BRANCH  32  33
ATOM     33  OG  SER A   1       7.517   8.624  17.315  0.00  0.00    +0.000 OA
ATOM     34  H   SER A   1       7.900   8.358  16.462  0.00  0.00    +0.000 HD
ENDBRANCH  32  33
ENDBRANCH  31  32
BRANCH  31  35
ATOM     35  C   SER A   1       8.103   5.814  19.704  0.00  0.00    +0.000 C 
BRANCH  35  36
ATOM     36  O   SER A   1       6.888   5.155  20.062  0.00  0.00    +0.000 OA
ATOM     37  H   SER A   1       6.171   5.669  19.645  0.00  0.00    +0.000 HD
ENDBRANCH  35  36
ENDBRANCH  31  35
ENDBRANCH  29  31
ENDBRANCH  26  28
ENDBRANCH   1  26
TORSDOF 9
ENDMDL
MODEL 4
REMARK VINA RESULT:      -7.6      2.628      4.507
REMARK  Name = 
REMARK  9 active torsions:
REMARK  status: ('A' for Active; 'I' for Inactive)
REMARK    1  A    between atoms: C_2  and  C_3
REMARK    2  A    between atoms: C_3  and  N_4
REMARK    3  A    between atoms: C_7  and  N_8
REMARK    4  A    between atoms: C_9  and  C_11
REMARK    5  A    between atoms: N_27  and  CA_28
REMARK    6  A    between atoms: CA_28  and  CB_29
REMARK    7  A    between atoms: CA_28  and  C_31
REMARK    8  A    between atoms: CB_29  and  OG_30
REMARK    9  A    between atoms: C_31  and  O_32
REMARK                            x       y       z     vdW  Elec       q    Type
REMARK                         _______ _______ _______ _____ _____    ______ ____
ROOT
ATOM      1  N   UNK A   0       3.404   4.642  17.140  0.00  0.00    +0.000 N 
ATOM      2  C   UNK A   0       2.707   5.618  17.855  0.00  0.00    +0.000 C 
ATOM      3  O   UNK A   0       1.641   5.400  18.436  0.00  0.00    +0.000 OA
ATOM      4  C   UNK A   0       3.283   7.035  17.767  0.00  0.00    +0.000 C 
ATOM      5  C   UNK A   0       4.780   6.984  18.031  0.00  0.00    +0.000 C 
ATOM      6  C   UNK A   0       5.425   6.016  17.076  0.00  0.00    +0.000 A 
ATOM      7  C   UNK A   0       6.752   6.221  16.670  0.00  0.00    +0.000 A 
ATOM      8  C   UNK A   0       7.368   5.323  15.803  0.00  0.00    +0.000 A 
ATOM      9  C   UNK A   0       6.666   4.217  15.339  0.00  0.00    +0.000 A 
ATOM     10  C   UNK A   0       5.353   3.991  15.759  0.00  0.00    +0.000 A 
ATOM     11  C   UNK A   0       4.723   4.875  16.645  0.00  0.00    +0.000 A 
ENDROOT
BRANCH   4  12
ATOM     12  N   UNK A   0       2.590   7.911  18.702  0.00  0.00    +0.000 N 
ATOM     13  C   UNK A   0       1.927   9.037  18.279  0.00  0.00    +0.000 C 
ATOM     14  O   UNK A   0       1.925   9.396  17.105  0.00  0.00    +0.000 OA
ATOM     15  H   UNK A   0       2.382   7.531  19.619  0.00  0.00    +0.000 HD
BRANCH  13  16
ATOM     16  C   UNK A   0       1.220   9.762  19.312  0.00  0.00    +0.000 A 
ATOM     17  C   UNK A   0       0.557   9.319  20.464  0.00  0.00    +0.000 A 
ATOM     18  C   UNK A   0       0.085  10.472  21.077  0.00  0.00    +0.000 A 
ATOM     19  C   UNK A   0      -0.639  10.717  22.236  0.00  0.00    +0.000 A 
ATOM     20  C   UNK A   0      -0.822  12.086  22.332  0.00  0.00    +0.000 A 
ATOM     21 CL   UNK A   0      -1.668  12.925  23.572  0.00  0.00    +0.000 Cl
ATOM     22  S   UNK A   0      -0.107  12.982  21.043  0.00  0.00    +0.000 S 
ATOM     23  C   UNK A   0       0.428  11.558  20.370  0.00  0.00    +0.000 A 
ATOM     24  N   UNK A   0       1.131  11.156  19.286  0.00  0.00    +0.000 N 
ATOM     25  H   UNK A   0       1.533  11.743  18.566  0.00  0.00    +0.000 HD
ENDBRANCH  13  16
ENDBRANCH   4  12
BRANCH   1  26
ATOM     26  C   UNK A   0       2.776   3.322  16.998  0.00  0.00    +0.000 C 
BRANCH  26  28
ATOM     27  O   UNK A   0       3.479   1.217  17.952  0.00  0.00    +0.000 OA
ATOM     28  C   UNK A   0       3.059   2.353  18.156  0.00  0.00    +0.000 C 
ATOM     29  N   SER A   1       2.832   2.845  19.422  0.00  0.00    +0.000 N 
ATOM     30  H   SER A   1       2.281   3.692  19.494  0.00  0.00    +0.000 HD
BRANCH  29  31
ATOM     31  CA  SER A   1       3.035   2.071  20.655  0.00  0.00    +0.000 C 
BRANCH  31  32
ATOM     32  CB  SER A   1       4.501   2.039  21.116  0.00  0.00    +0.000 C 
BRANCH  32  33
ATOM     33  OG  SER A   1       5.297   1.248  20.230  0.00  0.00    +0.000 OA
ATOM     34  H   SER A   1       5.938   1.841  19.802  0.00  0.00    +0.000 HD
ENDBRANCH  32  33
ENDBRANCH  31  32
BRANCH  31  35
ATOM     35  C   SER A   1       2.110   2.539  21.789  0.00  0.00    +0.000 C 
BRANCH  35  36
ATOM     36  O   SER A   1       0.817   2.848  21.267  0.00  0.00    +0.000 OA
ATOM     37  H   SER A   1       0.872   3.766  20.941  0.00  0.00    +0.000 HD
ENDBRANCH  35  36
ENDBRANCH  31  35
ENDBRANCH  29  31
ENDBRANCH  26  28
ENDBRANCH   1  26
TORSDOF 9
ENDMDL
MODEL 5
REMARK VINA RESULT:      -7.6      2.713      4.522
REMARK  Name = 
REMARK  9 active torsions:
REMARK  status: ('A' for Active; 'I' for Inactive)
REMARK    1  A    between atoms: C_2  and  C_3
REMARK    2  A    between atoms: C_3  and  N_4
REMARK    3  A    between atoms: C_7  and  N_8
REMARK    4  A    between atoms: C_9  and  C_11
REMARK    5  A    between atoms: N_27  and  CA_28
REMARK    6  A    between atoms: CA_28  and  CB_29
REMARK    7  A    between atoms: CA_28  and  C_31
REMARK    8  A    between atoms: CB_29  and  OG_30
REMARK    9  A    between atoms: C_31  and  O_32
REMARK                            x       y       z     vdW  Elec       q    Type
REMARK                         _______ _______ _______ _____ _____    ______ ____
ROOT
ATOM      1  N   UNK A   0       3.423   4.564  17.177  0.00  0.00    +0.000 N 
ATOM      2  C   UNK A   0       2.644   5.487  17.880  0.00  0.00    +0.000 C 
ATOM      3  O   UNK A   0       1.579   5.195  18.429  0.00  0.00    +0.000 OA
ATOM      4  C   UNK A   0       3.130   6.939  17.819  0.00  0.00    +0.000 C 
ATOM      5  C   UNK A   0       4.619   6.982  18.124  0.00  0.00    +0.000 C 
ATOM      6  C   UNK A   0       5.351   6.066  17.180  0.00  0.00    +0.000 A 
ATOM      7  C   UNK A   0       6.672   6.360  16.813  0.00  0.00    +0.000 A 
ATOM      8  C   UNK A   0       7.369   5.512  15.957  0.00  0.00    +0.000 A 
ATOM      9  C   UNK A   0       6.752   4.366  15.465  0.00  0.00    +0.000 A 
ATOM     10  C   UNK A   0       5.446   4.053  15.847  0.00  0.00    +0.000 A 
ATOM     11  C   UNK A   0       4.737   4.886  16.721  0.00  0.00    +0.000 A 
ENDROOT
BRANCH   4  12
ATOM     12  N   UNK A   0       2.356   7.760  18.740  0.00  0.00    +0.000 N 
ATOM     13  C   UNK A   0       1.834   8.973  18.362  0.00  0.00    +0.000 C 
ATOM     14  O   UNK A   0       2.032   9.454  17.251  0.00  0.00    +0.000 OA
ATOM     15  H   UNK A   0       1.988   7.300  19.566  0.00  0.00    +0.000 HD
BRANCH  13  16
ATOM     16  C   UNK A   0       1.023   9.633  19.360  0.00  0.00    +0.000 A 
ATOM     17  C   UNK A   0       0.243  10.796  19.298  0.00  0.00    +0.000 A 
ATOM     18  C   UNK A   0      -0.318  10.925  20.561  0.00  0.00    +0.000 A 
ATOM     19  C   UNK A   0      -1.176  11.850  21.142  0.00  0.00    +0.000 A 
ATOM     20  C   UNK A   0      -1.387  11.457  22.453  0.00  0.00    +0.000 A 
ATOM     21 CL   UNK A   0      -2.358  12.260  23.622  0.00  0.00    +0.000 Cl
ATOM     22  S   UNK A   0      -0.560  10.008  22.893  0.00  0.00    +0.000 S 
ATOM     23  C   UNK A   0       0.072   9.920  21.357  0.00  0.00    +0.000 A 
ATOM     24  N   UNK A   0       0.888   9.107  20.647  0.00  0.00    +0.000 N 
ATOM     25  H   UNK A   0       1.338   8.259  20.970  0.00  0.00    +0.000 HD
ENDBRANCH  13  16
ENDBRANCH   4  12
BRANCH   1  26
ATOM     26  C   UNK A   0       2.885   3.208  17.008  0.00  0.00    +0.000 C 
BRANCH  26  28
ATOM     27  O   UNK A   0       3.341   1.112  18.121  0.00  0.00    +0.000 OA
ATOM     28  C   UNK A   0       3.046   2.300  18.237  0.00  0.00    +0.000 C 
ATOM     29  N   SER A   1       2.861   2.904  19.461  0.00  0.00    +0.000 N 
ATOM     30  H   SER A   1       2.407   3.809  19.463  0.00  0.00    +0.000 HD
BRANCH  29  31
ATOM     31  CA  SER A   1       2.964   2.203  20.748  0.00  0.00    +0.000 C 
BRANCH  31  32
ATOM     32  CB  SER A   1       4.413   1.890  21.154  0.00  0.00    +0.000 C 
BRANCH  32  33
ATOM     33  OG  SER A   1       5.273   1.887  20.013  0.00  0.00    +0.000 OA
ATOM     34  H   SER A   1       5.184   2.751  19.575  0.00  0.00    +0.000 HD
ENDBRANCH  32  33
ENDBRANCH  31  32
BRANCH  31  35
ATOM     35  C   SER A   1       2.225   2.948  21.871  0.00  0.00    +0.000 C 
BRANCH  35  36
ATOM     36  O   SER A   1       1.978   4.298  21.479  0.00  0.00    +0.000 OA
ATOM     37  H   SER A   1       1.010   4.415  21.515  0.00  0.00    +0.000 HD
ENDBRANCH  35  36
ENDBRANCH  31  35
ENDBRANCH  29  31
ENDBRANCH  26  28
ENDBRANCH   1  26
TORSDOF 9
ENDMDL
MODEL 6
REMARK VINA RESULT:      -7.6      0.940      1.060
REMARK  Name = 
REMARK  9 active torsions:
REMARK  status: ('A' for Active; 'I' for Inactive)
REMARK    1  A    between atoms: C_2  and  C_3
REMARK    2  A    between atoms: C_3  and  N_4
REMARK    3  A    between atoms: C_7  and  N_8
REMARK    4  A    between atoms: C_9  and  C_11
REMARK    5  A    between atoms: N_27  and  CA_28
REMARK    6  A    between atoms: CA_28  and  CB_29
REMARK    7  A    between atoms: CA_28  and  C_31
REMARK    8  A    between atoms: CB_29  and  OG_30
REMARK    9  A    between atoms: C_31  and  O_32
REMARK                            x       y       z     vdW  Elec       q    Type
REMARK                         _______ _______ _______ _____ _____    ______ ____
ROOT
ATOM      1  N   UNK A   0       3.211   5.744  18.392  0.00  0.00    +0.000 N 
ATOM      2  C   UNK A   0       2.624   6.997  18.579  0.00  0.00    +0.000 C 
ATOM      3  O   UNK A   0       2.537   7.844  17.686  0.00  0.00    +0.000 OA
ATOM      4  C   UNK A   0       2.204   7.318  20.018  0.00  0.00    +0.000 C 
ATOM      5  C   UNK A   0       1.420   6.144  20.584  0.00  0.00    +0.000 C 
ATOM      6  C   UNK A   0       2.242   4.889  20.467  0.00  0.00    +0.000 A 
ATOM      7  C   UNK A   0       2.077   3.861  21.407  0.00  0.00    +0.000 A 
ATOM      8  C   UNK A   0       2.815   2.686  21.300  0.00  0.00    +0.000 A 
ATOM      9  C   UNK A   0       3.720   2.530  20.256  0.00  0.00    +0.000 A 
ATOM     10  C   UNK A   0       3.872   3.538  19.301  0.00  0.00    +0.000 A 
ATOM     11  C   UNK A   0       3.123   4.720  19.383  0.00  0.00    +0.000 A 
ENDROOT
BRANCH   4  12
ATOM     12  N   UNK A   0       1.436   8.556  20.045  0.00  0.00    +0.000 N 
ATOM     13  C   UNK A   0       1.167   9.211  21.222  0.00  0.00    +0.000 C 
ATOM     14  O   UNK A   0       1.510   8.768  22.313  0.00  0.00    +0.000 OA
ATOM     15  H   UNK A   0       1.341   9.056  19.168  0.00  0.00    +0.000 HD
BRANCH  13  16
ATOM     16  C   UNK A   0       0.465  10.468  21.081  0.00  0.00    +0.000 A 
ATOM     17  C   UNK A   0       0.197  11.258  19.955  0.00  0.00    +0.000 A 
ATOM     18  C   UNK A   0      -0.529  12.340  20.435  0.00  0.00    +0.000 A 
ATOM     19  C   UNK A   0      -1.089  13.462  19.839  0.00  0.00    +0.000 A 
ATOM     20  C   UNK A   0      -1.698  14.204  20.837  0.00  0.00    +0.000 A 
ATOM     21 CL   UNK A   0      -2.528  15.697  20.644  0.00  0.00    +0.000 Cl
ATOM     22  S   UNK A   0      -1.570  13.505  22.409  0.00  0.00    +0.000 S 
ATOM     23  C   UNK A   0      -0.709  12.239  21.759  0.00  0.00    +0.000 A 
ATOM     24  N   UNK A   0      -0.118  11.098  22.184  0.00  0.00    +0.000 N 
ATOM     25  H   UNK A   0      -0.089  10.741  23.131  0.00  0.00    +0.000 HD
ENDBRANCH  13  16
ENDBRANCH   4  12
BRANCH   1  26
ATOM     26  C   UNK A   0       3.839   5.473  17.092  0.00  0.00    +0.000 C 
BRANCH  26  28
ATOM     27  O   UNK A   0       5.598   6.636  15.915  0.00  0.00    +0.000 OA
ATOM     28  C   UNK A   0       5.256   6.044  16.936  0.00  0.00    +0.000 C 
ATOM     29  N   SER A   1       6.097   5.871  18.012  0.00  0.00    +0.000 N 
ATOM     30  H   SER A   1       5.819   5.189  18.708  0.00  0.00    +0.000 HD
BRANCH  29  31
ATOM     31  CA  SER A   1       7.490   6.339  18.052  0.00  0.00    +0.000 C 
BRANCH  31  32
ATOM     32  CB  SER A   1       7.627   7.854  17.834  0.00  0.00    +0.000 C 
BRANCH  32  33
ATOM     33  OG  SER A   1       8.599   8.412  18.720  0.00  0.00    +0.000 OA
ATOM     34  H   SER A   1       9.038   7.674  19.177  0.00  0.00    +0.000 HD
ENDBRANCH  32  33
ENDBRANCH  31  32
BRANCH  31  35
ATOM     35  C   SER A   1       8.210   5.899  19.336  0.00  0.00    +0.000 C 
BRANCH  35  36
ATOM     36  O   SER A   1       7.304   5.194  20.185  0.00  0.00    +0.000 OA
ATOM     37  H   SER A   1       6.553   5.799  20.336  0.00  0.00    +0.000 HD
ENDBRANCH  35  36
ENDBRANCH  31  35
ENDBRANCH  29  31
ENDBRANCH  26  28
ENDBRANCH   1  26
TORSDOF 9
ENDMDL
MODEL 7
REMARK VINA RESULT:      -7.4      2.388      4.766
REMARK  Name = 
REMARK  9 active torsions:
REMARK  status: ('A' for Active; 'I' for Inactive)
REMARK    1  A    between atoms: C_2  and  C_3
REMARK    2  A    between atoms: C_3  and  N_4
REMARK    3  A    between atoms: C_7  and  N_8
REMARK    4  A    between atoms: C_9  and  C_11
REMARK    5  A    between atoms: N_27  and  CA_28
REMARK    6  A    between atoms: CA_28  and  CB_29
REMARK    7  A    between atoms: CA_28  and  C_31
REMARK    8  A    between atoms: CB_29  and  OG_30
REMARK    9  A    between atoms: C_31  and  O_32
REMARK                            x       y       z     vdW  Elec       q    Type
REMARK                         _______ _______ _______ _____ _____    ______ ____
ROOT
ATOM      1  N   UNK A   0       4.730   4.914  18.503  0.00  0.00    +0.000 N 
ATOM      2  C   UNK A   0       3.823   5.801  19.087  0.00  0.00    +0.000 C 
ATOM      3  O   UNK A   0       3.551   5.797  20.290  0.00  0.00    +0.000 OA
ATOM      4  C   UNK A   0       3.071   6.710  18.109  0.00  0.00    +0.000 C 
ATOM      5  C   UNK A   0       4.066   7.341  17.146  0.00  0.00    +0.000 C 
ATOM      6  C   UNK A   0       4.860   6.259  16.466  0.00  0.00    +0.000 A 
ATOM      7  C   UNK A   0       5.349   6.469  15.168  0.00  0.00    +0.000 A 
ATOM      8  C   UNK A   0       6.103   5.485  14.534  0.00  0.00    +0.000 A 
ATOM      9  C   UNK A   0       6.373   4.289  15.191  0.00  0.00    +0.000 A 
ATOM     10  C   UNK A   0       5.911   4.083  16.492  0.00  0.00    +0.000 A 
ATOM     11  C   UNK A   0       5.167   5.069  17.152  0.00  0.00    +0.000 A 
ENDROOT
BRANCH   4  12
ATOM     12  N   UNK A   0       2.311   7.710  18.846  0.00  0.00    +0.000 N 
ATOM     13  C   UNK A   0       1.822   8.839  18.236  0.00  0.00    +0.000 C 
ATOM     14  O   UNK A   0       2.040   9.095  17.056  0.00  0.00    +0.000 OA
ATOM     15  H   UNK A   0       1.925   7.425  19.740  0.00  0.00    +0.000 HD
BRANCH  13  16
ATOM     16  C   UNK A   0       1.019   9.698  19.079  0.00  0.00    +0.000 A 
ATOM     17  C   UNK A   0       0.850   9.734  20.470  0.00  0.00    +0.000 A 
ATOM     18  C   UNK A   0      -0.029  10.784  20.702  0.00  0.00    +0.000 A 
ATOM     19  C   UNK A   0      -0.590  11.332  21.847  0.00  0.00    +0.000 A 
ATOM     20  C   UNK A   0      -1.409  12.376  21.452  0.00  0.00    +0.000 A 
ATOM     21 CL   UNK A   0      -2.354  13.384  22.474  0.00  0.00    +0.000 Cl
ATOM     22  S   UNK A   0      -1.440  12.637  19.746  0.00  0.00    +0.000 S 
ATOM     23  C   UNK A   0      -0.383  11.368  19.549  0.00  0.00    +0.000 A 
ATOM     24  N   UNK A   0       0.249  10.730  18.537  0.00  0.00    +0.000 N 
ATOM     25  H   UNK A   0       0.191  10.943  17.549  0.00  0.00    +0.000 HD
ENDBRANCH  13  16
ENDBRANCH   4  12
BRANCH   1  26
ATOM     26  C   UNK A   0       5.306   3.867  19.358  0.00  0.00    +0.000 C 
BRANCH  26  28
ATOM     27  O   UNK A   0       4.696   1.695  20.220  0.00  0.00    +0.000 OA
ATOM     28  C   UNK A   0       4.311   2.783  19.797  0.00  0.00    +0.000 C 
ATOM     29  N   SER A   1       2.978   3.115  19.705  0.00  0.00    +0.000 N 
ATOM     30  H   SER A   1       2.744   3.926  19.144  0.00  0.00    +0.000 HD
BRANCH  29  31
ATOM     31  CA  SER A   1       1.877   2.212  20.069  0.00  0.00    +0.000 C 
BRANCH  31  32
ATOM     32  CB  SER A   1       1.263   2.527  21.442  0.00  0.00    +0.000 C 
BRANCH  32  33
ATOM     33  OG  SER A   1       2.199   3.218  22.273  0.00  0.00    +0.000 OA
ATOM     34  H   SER A   1       3.091   3.003  21.952  0.00  0.00    +0.000 HD
ENDBRANCH  32  33
ENDBRANCH  31  32
BRANCH  31  35
ATOM     35  C   SER A   1       0.794   2.155  18.980  0.00  0.00    +0.000 C 
BRANCH  35  36
ATOM     36  O   SER A   1       1.080   3.111  17.959  0.00  0.00    +0.000 OA
ATOM     37  H   SER A   1       0.767   2.713  17.124  0.00  0.00    +0.000 HD
ENDBRANCH  35  36
ENDBRANCH  31  35
ENDBRANCH  29  31
ENDBRANCH  26  28
ENDBRANCH   1  26
TORSDOF 9
ENDMDL
MODEL 8
REMARK VINA RESULT:      -7.4      5.237     10.314
REMARK  Name = 
REMARK  9 active torsions:
REMARK  status: ('A' for Active; 'I' for Inactive)
REMARK    1  A    between atoms: C_2  and  C_3
REMARK    2  A    between atoms: C_3  and  N_4
REMARK    3  A    between atoms: C_7  and  N_8
REMARK    4  A    between atoms: C_9  and  C_11
REMARK    5  A    between atoms: N_27  and  CA_28
REMARK    6  A    between atoms: CA_28  and  CB_29
REMARK    7  A    between atoms: CA_28  and  C_31
REMARK    8  A    between atoms: CB_29  and  OG_30
REMARK    9  A    between atoms: C_31  and  O_32
REMARK                            x       y       z     vdW  Elec       q    Type
REMARK                         _______ _______ _______ _____ _____    ______ ____
ROOT
ATOM      1  N   UNK A   0      -1.766  11.452  19.155  0.00  0.00    +0.000 N 
ATOM      2  C   UNK A   0      -0.797  10.536  18.739  0.00  0.00    +0.000 C 
ATOM      3  O   UNK A   0      -0.636  10.209  17.560  0.00  0.00    +0.000 OA
ATOM      4  C   UNK A   0      -0.018   9.846  19.864  0.00  0.00    +0.000 C 
ATOM      5  C   UNK A   0       0.465  10.895  20.853  0.00  0.00    +0.000 C 
ATOM      6  C   UNK A   0      -0.708  11.698  21.345  0.00  0.00    +0.000 A 
ATOM      7  C   UNK A   0      -0.681  12.250  22.634  0.00  0.00    +0.000 A 
ATOM      8  C   UNK A   0      -1.750  13.013  23.095  0.00  0.00    +0.000 A 
ATOM      9  C   UNK A   0      -2.850  13.230  22.273  0.00  0.00    +0.000 A 
ATOM     10  C   UNK A   0      -2.874  12.707  20.979  0.00  0.00    +0.000 A 
ATOM     11  C   UNK A   0      -1.799  11.951  20.492  0.00  0.00    +0.000 A 
ENDROOT
BRANCH   4  12
ATOM     12  N   UNK A   0       1.081   9.072  19.303  0.00  0.00    +0.000 N 
ATOM     13  C   UNK A   0       1.573   7.956  19.934  0.00  0.00    +0.000 C 
ATOM     14  O   UNK A   0       1.153   7.579  21.023  0.00  0.00    +0.000 OA
ATOM     15  H   UNK A   0       1.289   9.216  18.321  0.00  0.00    +0.000 HD
BRANCH  13  16
ATOM     16  C   UNK A   0       2.610   7.248  19.216  0.00  0.00    +0.000 A 
ATOM     17  C   UNK A   0       3.144   7.438  17.934  0.00  0.00    +0.000 A 
ATOM     18  C   UNK A   0       4.125   6.464  17.801  0.00  0.00    +0.000 A 
ATOM     19  C   UNK A   0       5.008   6.122  16.786  0.00  0.00    +0.000 A 
ATOM     20  C   UNK A   0       5.756   5.045  17.230  0.00  0.00    +0.000 A 
ATOM     21 CL   UNK A   0       6.985   4.219  16.357  0.00  0.00    +0.000 Cl
ATOM     22  S   UNK A   0       5.363   4.527  18.828  0.00  0.00    +0.000 S 
ATOM     23  C   UNK A   0       4.207   5.720  18.914  0.00  0.00    +0.000 A 
ATOM     24  N   UNK A   0       3.297   6.181  19.802  0.00  0.00    +0.000 N 
ATOM     25  H   UNK A   0       3.123   5.831  20.736  0.00  0.00    +0.000 HD
ENDBRANCH  13  16
ENDBRANCH   4  12
BRANCH   1  26
ATOM     26  C   UNK A   0      -2.695  11.969  18.142  0.00  0.00    +0.000 C 
BRANCH  26  28
ATOM     27  O   UNK A   0      -4.099  10.021  17.868  0.00  0.00    +0.000 OA
ATOM     28  C   UNK A   0      -4.041  11.231  18.076  0.00  0.00    +0.000 C 
ATOM     29  N   SER A   1      -5.162  12.004  18.284  0.00  0.00    +0.000 N 
ATOM     30  H   SER A   1      -5.047  13.008  18.223  0.00  0.00    +0.000 HD
BRANCH  29  31
ATOM     31  CA  SER A   1      -6.537  11.485  18.253  0.00  0.00    +0.000 C 
BRANCH  31  32
ATOM     32  CB  SER A   1      -6.878  10.599  19.462  0.00  0.00    +0.000 C 
BRANCH  32  33
ATOM     33  OG  SER A   1      -7.452   9.359  19.041  0.00  0.00    +0.000 OA
ATOM     34  H   SER A   1      -6.764   8.676  19.118  0.00  0.00    +0.000 HD
ENDBRANCH  32  33
ENDBRANCH  31  32
BRANCH  31  35
ATOM     35  C   SER A   1      -7.573  12.606  18.080  0.00  0.00    +0.000 C 
BRANCH  35  36
ATOM     36  O   SER A   1      -7.916  13.152  19.354  0.00  0.00    +0.000 OA
ATOM     37  H   SER A   1      -7.438  14.000  19.420  0.00  0.00    +0.000 HD
ENDBRANCH  35  36
ENDBRANCH  31  35
ENDBRANCH  29  31
ENDBRANCH  26  28
ENDBRANCH   1  26
TORSDOF 9
ENDMDL
MODEL 9
REMARK VINA RESULT:      -7.4      1.800      2.314
REMARK  Name = 
REMARK  9 active torsions:
REMARK  status: ('A' for Active; 'I' for Inactive)
REMARK    1  A    between atoms: C_2  and  C_3
REMARK    2  A    between atoms: C_3  and  N_4
REMARK    3  A    between atoms: C_7  and  N_8
REMARK    4  A    between atoms: C_9  and  C_11
REMARK    5  A    between atoms: N_27  and  CA_28
REMARK    6  A    between atoms: CA_28  and  CB_29
REMARK    7  A    between atoms: CA_28  and  C_31
REMARK    8  A    between atoms: CB_29  and  OG_30
REMARK    9  A    between atoms: C_31  and  O_32
REMARK                            x       y       z     vdW  Elec       q    Type
REMARK                         _______ _______ _______ _____ _____    ______ ____
ROOT
ATOM      1  N   UNK A   0       2.694   6.408  18.641  0.00  0.00    +0.000 N 
ATOM      2  C   UNK A   0       2.020   7.556  19.063  0.00  0.00    +0.000 C 
ATOM      3  O   UNK A   0       1.781   8.513  18.322  0.00  0.00    +0.000 OA
ATOM      4  C   UNK A   0       1.703   7.618  20.562  0.00  0.00    +0.000 C 
ATOM      5  C   UNK A   0       1.077   6.302  20.996  0.00  0.00    +0.000 C 
ATOM      6  C   UNK A   0       1.991   5.165  20.625  0.00  0.00    +0.000 A 
ATOM      7  C   UNK A   0       2.000   3.999  21.403  0.00  0.00    +0.000 A 
ATOM      8  C   UNK A   0       2.825   2.931  21.061  0.00  0.00    +0.000 A 
ATOM      9  C   UNK A   0       3.643   3.021  19.940  0.00  0.00    +0.000 A 
ATOM     10  C   UNK A   0       3.621   4.169  19.145  0.00  0.00    +0.000 A 
ATOM     11  C   UNK A   0       2.784   5.246  19.465  0.00  0.00    +0.000 A 
ENDROOT
BRANCH   4  12
ATOM     12  N   UNK A   0       0.837   8.756  20.839  0.00  0.00    +0.000 N 
ATOM     13  C   UNK A   0       1.012   9.541  21.952  0.00  0.00    +0.000 C 
ATOM     14  O   UNK A   0       1.867   9.300  22.797  0.00  0.00    +0.000 OA
ATOM     15  H   UNK A   0       0.286   9.111  20.065  0.00  0.00    +0.000 HD
BRANCH  13  16
ATOM     16  C   UNK A   0       0.126  10.681  22.048  0.00  0.00    +0.000 A 
ATOM     17  C   UNK A   0       0.106  11.899  21.356  0.00  0.00    +0.000 A 
ATOM     18  C   UNK A   0      -0.986  12.588  21.866  0.00  0.00    +0.000 A 
ATOM     19  C   UNK A   0      -1.544  13.833  21.606  0.00  0.00    +0.000 A 
ATOM     20  C   UNK A   0      -2.639  13.982  22.441  0.00  0.00    +0.000 A 
ATOM     21 CL   UNK A   0      -3.678  15.348  22.537  0.00  0.00    +0.000 Cl
ATOM     22  S   UNK A   0      -2.931  12.625  23.465  0.00  0.00    +0.000 S 
ATOM     23  C   UNK A   0      -1.610  11.861  22.803  0.00  0.00    +0.000 A 
ATOM     24  N   UNK A   0      -0.956  10.683  22.932  0.00  0.00    +0.000 N 
ATOM     25  H   UNK A   0      -1.190   9.919  23.555  0.00  0.00    +0.000 HD
ENDBRANCH  13  16
ENDBRANCH   4  12
BRANCH   1  26
ATOM     26  C   UNK A   0       3.225   6.395  17.271  0.00  0.00    +0.000 C 
BRANCH  26  28
ATOM     27  O   UNK A   0       5.360   7.440  17.704  0.00  0.00    +0.000 OA
ATOM     28  C   UNK A   0       4.754   6.508  17.179  0.00  0.00    +0.000 C 
ATOM     29  N   SER A   1       5.393   5.496  16.497  0.00  0.00    +0.000 N 
ATOM     30  H   SER A   1       4.818   4.902  15.912  0.00  0.00    +0.000 HD
BRANCH  29  31
ATOM     31  CA  SER A   1       6.847   5.430  16.294  0.00  0.00    +0.000 C 
BRANCH  31  32
ATOM     32  CB  SER A   1       7.597   4.803  17.481  0.00  0.00    +0.000 C 
BRANCH  32  33
ATOM     33  OG  SER A   1       6.746   3.914  18.208  0.00  0.00    +0.000 OA
ATOM     34  H   SER A   1       5.836   4.057  17.898  0.00  0.00    +0.000 HD
ENDBRANCH  32  33
ENDBRANCH  31  32
BRANCH  31  35
ATOM     35  C   SER A   1       7.215   4.730  14.976  0.00  0.00    +0.000 C 
BRANCH  35  36
ATOM     36  O   SER A   1       8.041   5.585  14.185  0.00  0.00    +0.000 OA
ATOM     37  H   SER A   1       8.875   5.096  14.045  0.00  0.00    +0.000 HD
ENDBRANCH  35  36
ENDBRANCH  31  35
ENDBRANCH  29  31
ENDBRANCH  26  28
ENDBRANCH   1  26
TORSDOF 9
ENDMDL
