MODEL 1
REMARK VINA RESULT:      -8.0      0.000      0.000
REMARK  Name = 
REMARK  8 active torsions:
REMARK  status: ('A' for Active; 'I' for Inactive)
REMARK    1  A    between atoms: C_1  and  C_2
REMARK    2  A    between atoms: C_8  and  C_9
REMARK    3  A    between atoms: C_16  and  N_17
REMARK    4  A    between atoms: C_18  and  O_20
REMARK    5  A    between atoms: O_20  and  C_21
REMARK    6  A    between atoms: C_21  and  C_22
REMARK    7  A    between atoms: C_21  and  C_23
REMARK    8  A    between atoms: C_25  and  C_26
REMARK                            x       y       z     vdW  Elec       q    Type
REMARK                         _______ _______ _______ _____ _____    ______ ____
ROOT
ATOM      1  C   UNL     1       0.449  10.912  19.891  0.00  0.00    +0.000 C 
ATOM      2  C   UNL     1       1.102   9.846  19.056  0.00  0.00    +0.000 C 
ATOM      3  O   UNL     1       1.139  10.080  17.842  0.00  0.00    +0.000 OA
ATOM      4  N   UNL     1       1.586   8.665  19.652  0.00  0.00    +0.000 N 
ATOM      5  C   UNL     1       2.452   7.778  18.866  0.00  0.00    +0.000 A 
ATOM      6  C   UNL     1       3.145   8.248  17.737  0.00  0.00    +0.000 A 
ATOM      7  C   UNL     1       3.949   7.417  16.952  0.00  0.00    +0.000 A 
ATOM      8  C   UNL     1       4.124   6.081  17.288  0.00  0.00    +0.000 A 
ATOM      9  C   UNL     1       3.495   5.601  18.440  0.00  0.00    +0.000 A 
ATOM     10  C   UNL     1       2.649   6.423  19.227  0.00  0.00    +0.000 A 
ATOM     11  C   UNL     1       2.052   5.839  20.488  0.00  0.00    +0.000 C 
ATOM     12  C   UNL     1       0.892   6.690  20.978  0.00  0.00    +0.000 C 
ATOM     13  C   UNL     1       1.302   8.166  21.040  0.00  0.00    +0.000 C 
ATOM     14  C   UNL     1       0.226   8.863  21.879  0.00  0.00    +0.000 C 
ENDROOT
BRANCH   8  15
ATOM     15  C   UNL     1       4.962   5.235  16.452  0.00  0.00    +0.000 A 
ATOM     16  C   UNL     1       5.602   5.541  15.218  0.00  0.00    +0.000 A 
ATOM     17  C   UNL     1       6.228   4.399  14.771  0.00  0.00    +0.000 A 
ATOM     18  N   UNL     1       5.989   3.407  15.683  0.00  0.00    +0.000 N 
ATOM     19  C   UNL     1       5.220   3.901  16.706  0.00  0.00    +0.000 A 
ATOM     20  H   UNL     1       6.315   2.452  15.608  0.00  0.00    +0.000 HD
ENDBRANCH   8  15
BRANCH  11  21
ATOM     21  N   UNL     1       1.610   4.456  20.337  0.00  0.00    +0.000 N 
ATOM     22  C   UNL     1       1.905   3.503  21.271  0.00  0.00    +0.000 C 
ATOM     23  O   UNL     1       2.624   3.683  22.237  0.00  0.00    +0.000 OA
ATOM     24  H   UNL     1       0.893   4.226  19.661  0.00  0.00    +0.000 HD
BRANCH  22  25
ATOM     25  O   UNL     1       1.266   2.339  20.968  0.00  0.00    +0.000 OA
BRANCH  25  26
ATOM     26  C   UNL     1       1.574   1.783  19.670  0.00  0.00    +0.000 C 
ATOM     27  C   UNL     1       0.690   2.424  18.604  0.00  0.00    +0.000 C 
ATOM     28  C   UNL     1       3.043   2.063  19.365  0.00  0.00    +0.000 C 
ENDBRANCH  25  26
ENDBRANCH  22  25
ENDBRANCH  11  21
TORSDOF 4
ENDMDL
MODEL 2
REMARK VINA RESULT:      -7.7      1.128      1.299
REMARK  Name = 
REMARK  8 active torsions:
REMARK  status: ('A' for Active; 'I' for Inactive)
REMARK    1  A    between atoms: C_1  and  C_2
REMARK    2  A    between atoms: C_8  and  C_9
REMARK    3  A    between atoms: C_16  and  N_17
REMARK    4  A    between atoms: C_18  and  O_20
REMARK    5  A    between atoms: O_20  and  C_21
REMARK    6  A    between atoms: C_21  and  C_22
REMARK    7  A    between atoms: C_21  and  C_23
REMARK    8  A    between atoms: C_25  and  C_26
REMARK                            x       y       z     vdW  Elec       q    Type
REMARK                         _______ _______ _______ _____ _____    ______ ____
ROOT
ATOM      1  C   UNL     1      -0.007  10.343  19.518  0.00  0.00    +0.000 C 
ATOM      2  C   UNL     1       0.872   9.366  18.788  0.00  0.00    +0.000 C 
ATOM      3  O   UNL     1       0.894   9.496  17.559  0.00  0.00    +0.000 OA
ATOM      4  N   UNL     1       1.572   8.366  19.493  0.00  0.00    +0.000 N 
ATOM      5  C   UNL     1       2.622   7.612  18.798  0.00  0.00    +0.000 A 
ATOM      6  C   UNL     1       3.234   8.115  17.637  0.00  0.00    +0.000 A 
ATOM      7  C   UNL     1       4.212   7.402  16.937  0.00  0.00    +0.000 A 
ATOM      8  C   UNL     1       4.648   6.165  17.394  0.00  0.00    +0.000 A 
ATOM      9  C   UNL     1       4.100   5.668  18.580  0.00  0.00    +0.000 A 
ATOM     10  C   UNL     1       3.083   6.363  19.282  0.00  0.00    +0.000 A 
ATOM     11  C   UNL     1       2.583   5.781  20.585  0.00  0.00    +0.000 C 
ATOM     12  C   UNL     1       1.262   6.413  20.987  0.00  0.00    +0.000 C 
ATOM     13  C   UNL     1       1.359   7.942  20.918  0.00  0.00    +0.000 C 
ATOM     14  C   UNL     1       0.141   8.473  21.682  0.00  0.00    +0.000 C 
ENDROOT
BRANCH   8  15
ATOM     15  C   UNL     1       5.663   5.441  16.645  0.00  0.00    +0.000 A 
ATOM     16  C   UNL     1       5.532   4.697  15.439  0.00  0.00    +0.000 A 
ATOM     17  C   UNL     1       6.756   4.134  15.153  0.00  0.00    +0.000 A 
ATOM     18  N   UNL     1       7.626   4.503  16.144  0.00  0.00    +0.000 N 
ATOM     19  C   UNL     1       6.975   5.293  17.055  0.00  0.00    +0.000 A 
ATOM     20  H   UNL     1       8.597   4.223  16.203  0.00  0.00    +0.000 HD
ENDBRANCH   8  15
BRANCH  11  21
ATOM     21  N   UNL     1       2.438   4.329  20.557  0.00  0.00    +0.000 N 
ATOM     22  C   UNL     1       1.660   3.704  19.622  0.00  0.00    +0.000 C 
ATOM     23  O   UNL     1       0.958   4.282  18.811  0.00  0.00    +0.000 OA
ATOM     24  H   UNL     1       3.079   3.747  21.079  0.00  0.00    +0.000 HD
BRANCH  22  25
ATOM     25  O   UNL     1       1.802   2.353  19.724  0.00  0.00    +0.000 OA
BRANCH  25  26
ATOM     26  C   UNL     1       2.840   1.776  18.901  0.00  0.00    +0.000 C 
ATOM     27  C   UNL     1       2.758   2.340  17.485  0.00  0.00    +0.000 C 
ATOM     28  C   UNL     1       4.192   2.122  19.520  0.00  0.00    +0.000 C 
ENDBRANCH  25  26
ENDBRANCH  22  25
ENDBRANCH  11  21
TORSDOF 4
ENDMDL
MODEL 3
REMARK VINA RESULT:      -7.5      0.827      1.044
REMARK  Name = 
REMARK  8 active torsions:
REMARK  status: ('A' for Active; 'I' for Inactive)
REMARK    1  A    between atoms: C_1  and  C_2
REMARK    2  A    between atoms: C_8  and  C_9
REMARK    3  A    between atoms: C_16  and  N_17
REMARK    4  A    between atoms: C_18  and  O_20
REMARK    5  A    between atoms: O_20  and  C_21
REMARK    6  A    between atoms: C_21  and  C_22
REMARK    7  A    between atoms: C_21  and  C_23
REMARK    8  A    between atoms: C_25  and  C_26
REMARK                            x       y       z     vdW  Elec       q    Type
REMARK                         _______ _______ _______ _____ _____    ______ ____
ROOT
ATOM      1  C   UNL     1      -0.150  11.369  20.317  0.00  0.00    +0.000 C 
ATOM      2  C   UNL     1       0.537  10.350  19.451  0.00  0.00    +0.000 C 
ATOM      3  O   UNL     1       0.570  10.622  18.245  0.00  0.00    +0.000 OA
ATOM      4  N   UNL     1       1.057   9.166  20.011  0.00  0.00    +0.000 N 
ATOM      5  C   UNL     1       1.951   8.331  19.201  0.00  0.00    +0.000 A 
ATOM      6  C   UNL     1       2.631   8.857  18.089  0.00  0.00    +0.000 A 
ATOM      7  C   UNL     1       3.462   8.076  17.281  0.00  0.00    +0.000 A 
ATOM      8  C   UNL     1       3.678   6.736  17.576  0.00  0.00    +0.000 A 
ATOM      9  C   UNL     1       3.062   6.201  18.711  0.00  0.00    +0.000 A 
ATOM     10  C   UNL     1       2.190   6.972  19.521  0.00  0.00    +0.000 A 
ATOM     11  C   UNL     1       1.608   6.332  20.761  0.00  0.00    +0.000 C 
ATOM     12  C   UNL     1       0.422   7.131  21.274  0.00  0.00    +0.000 C 
ATOM     13  C   UNL     1       0.786   8.616  21.383  0.00  0.00    +0.000 C 
ATOM     14  C   UNL     1      -0.313   9.253  22.240  0.00  0.00    +0.000 C 
ENDROOT
BRANCH   8  15
ATOM     15  C   UNL     1       4.544   5.942  16.717  0.00  0.00    +0.000 A 
ATOM     16  C   UNL     1       4.714   4.530  16.670  0.00  0.00    +0.000 A 
ATOM     17  C   UNL     1       5.692   4.253  15.742  0.00  0.00    +0.000 A 
ATOM     18  N   UNL     1       6.129   5.443  15.227  0.00  0.00    +0.000 N 
ATOM     19  C   UNL     1       5.442   6.475  15.812  0.00  0.00    +0.000 A 
ATOM     20  H   UNL     1       6.859   5.547  14.533  0.00  0.00    +0.000 HD
ENDBRANCH   8  15
BRANCH  11  21
ATOM     21  N   UNL     1       1.209   4.941  20.566  0.00  0.00    +0.000 N 
ATOM     22  C   UNL     1       1.828   3.918  21.229  0.00  0.00    +0.000 C 
ATOM     23  O   UNL     1       2.804   4.050  21.946  0.00  0.00    +0.000 OA
ATOM     24  H   UNL     1       0.329   4.727  20.115  0.00  0.00    +0.000 HD
BRANCH  22  25
ATOM     25  O   UNL     1       1.184   2.744  20.980  0.00  0.00    +0.000 OA
BRANCH  25  26
ATOM     26  C   UNL     1       1.666   2.004  19.836  0.00  0.00    +0.000 C 
ATOM     27  C   UNL     1       0.879   2.398  18.589  0.00  0.00    +0.000 C 
ATOM     28  C   UNL     1       3.145   2.328  19.642  0.00  0.00    +0.000 C 
ENDBRANCH  25  26
ENDBRANCH  22  25
ENDBRANCH  11  21
TORSDOF 4
ENDMDL
MODEL 4
REMARK VINA RESULT:      -7.5      2.490      6.553
REMARK  Name = 
REMARK  8 active torsions:
REMARK  status: ('A' for Active; 'I' for Inactive)
REMARK    1  A    between atoms: C_1  and  C_2
REMARK    2  A    between atoms: C_8  and  C_9
REMARK    3  A    between atoms: C_16  and  N_17
REMARK    4  A    between atoms: C_18  and  O_20
REMARK    5  A    between atoms: O_20  and  C_21
REMARK    6  A    between atoms: C_21  and  C_22
REMARK    7  A    between atoms: C_21  and  C_23
REMARK    8  A    between atoms: C_25  and  C_26
REMARK                            x       y       z     vdW  Elec       q    Type
REMARK                         _______ _______ _______ _____ _____    ______ ____
ROOT
ATOM      1  C   UNL     1       2.326   1.669  21.633  0.00  0.00    +0.000 C 
ATOM      2  C   UNL     1       2.028   2.988  20.975  0.00  0.00    +0.000 C 
ATOM      3  O   UNL     1       0.843   3.339  21.018  0.00  0.00    +0.000 OA
ATOM      4  N   UNL     1       3.049   3.717  20.333  0.00  0.00    +0.000 N 
ATOM      5  C   UNL     1       2.790   5.108  19.945  0.00  0.00    +0.000 A 
ATOM      6  C   UNL     1       1.762   5.854  20.547  0.00  0.00    +0.000 A 
ATOM      7  C   UNL     1       1.474   7.169  20.172  0.00  0.00    +0.000 A 
ATOM      8  C   UNL     1       2.231   7.809  19.199  0.00  0.00    +0.000 A 
ATOM      9  C   UNL     1       3.298   7.112  18.626  0.00  0.00    +0.000 A 
ATOM     10  C   UNL     1       3.582   5.766  18.972  0.00  0.00    +0.000 A 
ATOM     11  C   UNL     1       4.788   5.103  18.345  0.00  0.00    +0.000 C 
ATOM     12  C   UNL     1       4.717   3.594  18.505  0.00  0.00    +0.000 C 
ATOM     13  C   UNL     1       4.419   3.225  19.963  0.00  0.00    +0.000 C 
ATOM     14  C   UNL     1       4.737   1.731  20.088  0.00  0.00    +0.000 C 
ENDROOT
BRANCH   8  15
ATOM     15  C   UNL     1       1.907   9.177  18.823  0.00  0.00    +0.000 A 
ATOM     16  C   UNL     1       0.892  10.034  19.333  0.00  0.00    +0.000 A 
ATOM     17  C   UNL     1       0.931  11.209  18.618  0.00  0.00    +0.000 A 
ATOM     18  N   UNL     1       1.927  11.098  17.685  0.00  0.00    +0.000 N 
ATOM     19  C   UNL     1       2.525   9.869  17.799  0.00  0.00    +0.000 A 
ATOM     20  H   UNL     1       2.175  11.807  17.007  0.00  0.00    +0.000 HD
ENDBRANCH   8  15
BRANCH  11  21
ATOM     21  N   UNL     1       4.968   5.434  16.935  0.00  0.00    +0.000 N 
ATOM     22  C   UNL     1       6.211   5.555  16.379  0.00  0.00    +0.000 C 
ATOM     23  O   UNL     1       7.255   5.498  17.004  0.00  0.00    +0.000 OA
ATOM     24  H   UNL     1       4.187   5.360  16.295  0.00  0.00    +0.000 HD
BRANCH  22  25
ATOM     25  O   UNL     1       6.105   5.730  15.033  0.00  0.00    +0.000 OA
BRANCH  25  26
ATOM     26  C   UNL     1       6.723   4.703  14.225  0.00  0.00    +0.000 C 
ATOM     27  C   UNL     1       5.652   3.902  13.490  0.00  0.00    +0.000 C 
ATOM     28  C   UNL     1       7.650   5.378  13.217  0.00  0.00    +0.000 C 
ENDBRANCH  25  26
ENDBRANCH  22  25
ENDBRANCH  11  21
TORSDOF 4
ENDMDL
MODEL 5
REMARK VINA RESULT:      -7.3      4.573      9.961
REMARK  Name = 
REMARK  8 active torsions:
REMARK  status: ('A' for Active; 'I' for Inactive)
REMARK    1  A    between atoms: C_1  and  C_2
REMARK    2  A    between atoms: C_8  and  C_9
REMARK    3  A    between atoms: C_16  and  N_17
REMARK    4  A    between atoms: C_18  and  O_20
REMARK    5  A    between atoms: O_20  and  C_21
REMARK    6  A    between atoms: C_21  and  C_22
REMARK    7  A    between atoms: C_21  and  C_23
REMARK    8  A    between atoms: C_25  and  C_26
REMARK                            x       y       z     vdW  Elec       q    Type
REMARK                         _______ _______ _______ _____ _____    ______ ____
ROOT
ATOM      1  C   UNL     1       2.065   7.566  20.087  0.00  0.00    +0.000 C 
ATOM      2  C   UNL     1       0.956   8.370  20.707  0.00  0.00    +0.000 C 
ATOM      3  O   UNL     1       0.440   7.865  21.711  0.00  0.00    +0.000 OA
ATOM      4  N   UNL     1       0.541   9.586  20.128  0.00  0.00    +0.000 N 
ATOM      5  C   UNL     1      -0.342  10.472  20.895  0.00  0.00    +0.000 A 
ATOM      6  C   UNL     1      -0.441  10.370  22.294  0.00  0.00    +0.000 A 
ATOM      7  C   UNL     1      -1.299  11.179  23.045  0.00  0.00    +0.000 A 
ATOM      8  C   UNL     1      -2.072  12.154  22.427  0.00  0.00    +0.000 A 
ATOM      9  C   UNL     1      -1.949  12.318  21.045  0.00  0.00    +0.000 A 
ATOM     10  C   UNL     1      -1.108  11.483  20.265  0.00  0.00    +0.000 A 
ATOM     11  C   UNL     1      -0.992  11.764  18.784  0.00  0.00    +0.000 C 
ATOM     12  C   UNL     1      -0.392  10.573  18.055  0.00  0.00    +0.000 C 
ATOM     13  C   UNL     1       0.886  10.104  18.761  0.00  0.00    +0.000 C 
ATOM     14  C   UNL     1       1.596   9.178  17.767  0.00  0.00    +0.000 C 
ENDROOT
BRANCH   8  15
ATOM     15  C   UNL     1      -2.961  12.980  23.230  0.00  0.00    +0.000 A 
ATOM     16  C   UNL     1      -3.074  14.398  23.276  0.00  0.00    +0.000 A 
ATOM     17  C   UNL     1      -4.006  14.717  24.238  0.00  0.00    +0.000 A 
ATOM     18  N   UNL     1      -4.460  13.547  24.784  0.00  0.00    +0.000 N 
ATOM     19  C   UNL     1      -3.832  12.486  24.182  0.00  0.00    +0.000 A 
ATOM     20  H   UNL     1      -5.142  13.475  25.527  0.00  0.00    +0.000 HD
ENDBRANCH   8  15
BRANCH  11  21
ATOM     21  N   UNL     1      -2.260  12.127  18.159  0.00  0.00    +0.000 N 
ATOM     22  C   UNL     1      -3.222  11.193  17.894  0.00  0.00    +0.000 C 
ATOM     23  O   UNL     1      -3.084   9.994  18.056  0.00  0.00    +0.000 OA
ATOM     24  H   UNL     1      -2.541  13.098  18.115  0.00  0.00    +0.000 HD
BRANCH  22  25
ATOM     25  O   UNL     1      -4.353  11.804  17.442  0.00  0.00    +0.000 OA
BRANCH  25  26
ATOM     26  C   UNL     1      -5.535  11.589  18.243  0.00  0.00    +0.000 C 
ATOM     27  C   UNL     1      -5.356  12.222  19.620  0.00  0.00    +0.000 C 
ATOM     28  C   UNL     1      -6.723  12.228  17.528  0.00  0.00    +0.000 C 
ENDBRANCH  25  26
ENDBRANCH  22  25
ENDBRANCH  11  21
TORSDOF 4
ENDMDL
MODEL 6
REMARK VINA RESULT:      -7.2      3.526      9.010
REMARK  Name = 
REMARK  8 active torsions:
REMARK  status: ('A' for Active; 'I' for Inactive)
REMARK    1  A    between atoms: C_1  and  C_2
REMARK    2  A    between atoms: C_8  and  C_9
REMARK    3  A    between atoms: C_16  and  N_17
REMARK    4  A    between atoms: C_18  and  O_20
REMARK    5  A    between atoms: O_20  and  C_21
REMARK    6  A    between atoms: C_21  and  C_22
REMARK    7  A    between atoms: C_21  and  C_23
REMARK    8  A    between atoms: C_25  and  C_26
REMARK                            x       y       z     vdW  Elec       q    Type
REMARK                         _______ _______ _______ _____ _____    ______ ____
ROOT
ATOM      1  C   UNL     1       2.761   6.117  19.819  0.00  0.00    +0.000 C 
ATOM      2  C   UNL     1       1.750   7.058  20.414  0.00  0.00    +0.000 C 
ATOM      3  O   UNL     1       1.085   6.591  21.346  0.00  0.00    +0.000 OA
ATOM      4  N   UNL     1       1.580   8.354  19.888  0.00  0.00    +0.000 N 
ATOM      5  C   UNL     1       0.794   9.331  20.651  0.00  0.00    +0.000 A 
ATOM      6  C   UNL     1       0.574   9.172  22.031  0.00  0.00    +0.000 A 
ATOM      7  C   UNL     1      -0.199  10.070  22.773  0.00  0.00    +0.000 A 
ATOM      8  C   UNL     1      -0.756  11.190  22.171  0.00  0.00    +0.000 A 
ATOM      9  C   UNL     1      -0.504  11.404  20.813  0.00  0.00    +0.000 A 
ATOM     10  C   UNL     1       0.250  10.486  20.038  0.00  0.00    +0.000 A 
ATOM     11  C   UNL     1       0.522  10.822  18.589  0.00  0.00    +0.000 C 
ATOM     12  C   UNL     1       0.977   9.589  17.827  0.00  0.00    +0.000 C 
ATOM     13  C   UNL     1       2.106   8.881  18.584  0.00  0.00    +0.000 C 
ATOM     14  C   UNL     1       2.733   7.905  17.582  0.00  0.00    +0.000 C 
ENDROOT
BRANCH   8  15
ATOM     15  C   UNL     1      -1.561  12.106  22.964  0.00  0.00    +0.000 A 
ATOM     16  C   UNL     1      -2.868  11.925  23.497  0.00  0.00    +0.000 A 
ATOM     17  C   UNL     1      -3.238  13.097  24.118  0.00  0.00    +0.000 A 
ATOM     18  N   UNL     1      -2.207  13.987  23.978  0.00  0.00    +0.000 N 
ATOM     19  C   UNL     1      -1.186  13.399  23.278  0.00  0.00    +0.000 A 
ATOM     20  H   UNL     1      -2.206  14.938  24.323  0.00  0.00    +0.000 HD
ENDBRANCH   8  15
BRANCH  11  21
ATOM     21  N   UNL     1      -0.621  11.421  17.906  0.00  0.00    +0.000 N 
ATOM     22  C   UNL     1      -1.668  10.663  17.460  0.00  0.00    +0.000 C 
ATOM     23  O   UNL     1      -1.705   9.447  17.500  0.00  0.00    +0.000 OA
ATOM     24  H   UNL     1      -0.766  12.421  17.947  0.00  0.00    +0.000 HD
BRANCH  22  25
ATOM     25  O   UNL     1      -2.659  11.470  16.988  0.00  0.00    +0.000 OA
BRANCH  25  26
ATOM     26  C   UNL     1      -3.955  11.280  17.597  0.00  0.00    +0.000 C 
ATOM     27  C   UNL     1      -3.974  11.903  18.990  0.00  0.00    +0.000 C 
ATOM     28  C   UNL     1      -5.004  11.951  16.714  0.00  0.00    +0.000 C 
ENDBRANCH  25  26
ENDBRANCH  22  25
ENDBRANCH  11  21
TORSDOF 4
ENDMDL
MODEL 7
REMARK VINA RESULT:      -7.1      6.184      9.218
REMARK  Name = 
REMARK  8 active torsions:
REMARK  status: ('A' for Active; 'I' for Inactive)
REMARK    1  A    between atoms: C_1  and  C_2
REMARK    2  A    between atoms: C_8  and  C_9
REMARK    3  A    between atoms: C_16  and  N_17
REMARK    4  A    between atoms: C_18  and  O_20
REMARK    5  A    between atoms: O_20  and  C_21
REMARK    6  A    between atoms: C_21  and  C_22
REMARK    7  A    between atoms: C_21  and  C_23
REMARK    8  A    between atoms: C_25  and  C_26
REMARK                            x       y       z     vdW  Elec       q    Type
REMARK                         _______ _______ _______ _____ _____    ______ ____
ROOT
ATOM      1  C   UNL     1      -7.379  13.488  23.258  0.00  0.00    +0.000 C 
ATOM      2  C   UNL     1      -6.756  12.741  22.111  0.00  0.00    +0.000 C 
ATOM      3  O   UNL     1      -7.489  11.906  21.569  0.00  0.00    +0.000 OA
ATOM      4  N   UNL     1      -5.417  12.980  21.742  0.00  0.00    +0.000 N 
ATOM      5  C   UNL     1      -4.927  12.446  20.467  0.00  0.00    +0.000 A 
ATOM      6  C   UNL     1      -5.814  12.092  19.435  0.00  0.00    +0.000 A 
ATOM      7  C   UNL     1      -5.376  11.550  18.224  0.00  0.00    +0.000 A 
ATOM      8  C   UNL     1      -4.020  11.374  17.977  0.00  0.00    +0.000 A 
ATOM      9  C   UNL     1      -3.112  11.774  18.961  0.00  0.00    +0.000 A 
ATOM     10  C   UNL     1      -3.543  12.294  20.209  0.00  0.00    +0.000 A 
ATOM     11  C   UNL     1      -2.493  12.754  21.196  0.00  0.00    +0.000 C 
ATOM     12  C   UNL     1      -3.089  12.899  22.586  0.00  0.00    +0.000 C 
ATOM     13  C   UNL     1      -4.378  13.727  22.530  0.00  0.00    +0.000 C 
ATOM     14  C   UNL     1      -4.682  14.125  23.979  0.00  0.00    +0.000 C 
ENDROOT
BRANCH   8  15
ATOM     15  C   UNL     1      -3.589  10.804  16.710  0.00  0.00    +0.000 A 
ATOM     16  C   UNL     1      -2.535   9.883  16.450  0.00  0.00    +0.000 A 
ATOM     17  C   UNL     1      -2.467   9.691  15.089  0.00  0.00    +0.000 A 
ATOM     18  N   UNL     1      -3.436  10.465  14.509  0.00  0.00    +0.000 N 
ATOM     19  C   UNL     1      -4.121  11.146  15.482  0.00  0.00    +0.000 A 
ATOM     20  H   UNL     1      -3.609  10.536  13.515  0.00  0.00    +0.000 HD
ENDBRANCH   8  15
BRANCH  11  21
ATOM     21  N   UNL     1      -1.327  11.878  21.256  0.00  0.00    +0.000 N 
ATOM     22  C   UNL     1      -0.150  12.289  21.818  0.00  0.00    +0.000 C 
ATOM     23  O   UNL     1       0.066  13.418  22.220  0.00  0.00    +0.000 OA
ATOM     24  H   UNL     1      -1.432  10.886  21.090  0.00  0.00    +0.000 HD
BRANCH  22  25
ATOM     25  O   UNL     1       0.728  11.249  21.874  0.00  0.00    +0.000 OA
BRANCH  25  26
ATOM     26  C   UNL     1       0.130   9.934  21.884  0.00  0.00    +0.000 C 
ATOM     27  C   UNL     1       1.011   8.953  21.116  0.00  0.00    +0.000 C 
ATOM     28  C   UNL     1      -0.011   9.481  23.335  0.00  0.00    +0.000 C 
ENDBRANCH  25  26
ENDBRANCH  22  25
ENDBRANCH  11  21
TORSDOF 4
ENDMDL
MODEL 8
REMARK VINA RESULT:      -7.1      3.695      7.563
REMARK  Name = 
REMARK  8 active torsions:
REMARK  status: ('A' for Active; 'I' for Inactive)
REMARK    1  A    between atoms: C_1  and  C_2
REMARK    2  A    between atoms: C_8  and  C_9
REMARK    3  A    between atoms: C_16  and  N_17
REMARK    4  A    between atoms: C_18  and  O_20
REMARK    5  A    between atoms: O_20  and  C_21
REMARK    6  A    between atoms: C_21  and  C_22
REMARK    7  A    between atoms: C_21  and  C_23
REMARK    8  A    between atoms: C_25  and  C_26
REMARK                            x       y       z     vdW  Elec       q    Type
REMARK                         _______ _______ _______ _____ _____    ______ ____
ROOT
ATOM      1  C   UNL     1      -2.639  12.397  23.235  0.00  0.00    +0.000 C 
ATOM      2  C   UNL     1      -1.534  11.569  22.640  0.00  0.00    +0.000 C 
ATOM      3  O   UNL     1      -0.952  10.822  23.436  0.00  0.00    +0.000 OA
ATOM      4  N   UNL     1      -1.196  11.696  21.278  0.00  0.00    +0.000 N 
ATOM      5  C   UNL     1      -0.314  10.694  20.670  0.00  0.00    +0.000 A 
ATOM      6  C   UNL     1      -0.146   9.423  21.248  0.00  0.00    +0.000 A 
ATOM      7  C   UNL     1       0.714   8.462  20.708  0.00  0.00    +0.000 A 
ATOM      8  C   UNL     1       1.417   8.721  19.539  0.00  0.00    +0.000 A 
ATOM      9  C   UNL     1       1.224   9.953  18.910  0.00  0.00    +0.000 A 
ATOM     10  C   UNL     1       0.381  10.951  19.463  0.00  0.00    +0.000 A 
ATOM     11  C   UNL     1       0.185  12.236  18.690  0.00  0.00    +0.000 C 
ATOM     12  C   UNL     1      -0.400  13.317  19.582  0.00  0.00    +0.000 C 
ATOM     13  C   UNL     1      -1.625  12.783  20.335  0.00  0.00    +0.000 C 
ATOM     14  C   UNL     1      -2.343  14.017  20.892  0.00  0.00    +0.000 C 
ENDROOT
BRANCH   8  15
ATOM     15  C   UNL     1       2.309   7.706  18.999  0.00  0.00    +0.000 A 
ATOM     16  C   UNL     1       2.691   6.454  19.559  0.00  0.00    +0.000 A 
ATOM     17  C   UNL     1       3.608   5.874  18.712  0.00  0.00    +0.000 A 
ATOM     18  N   UNL     1       3.804   6.728  17.660  0.00  0.00    +0.000 N 
ATOM     19  C   UNL     1       3.024   7.844  17.825  0.00  0.00    +0.000 A 
ATOM     20  H   UNL     1       4.439   6.569  16.888  0.00  0.00    +0.000 HD
ENDBRANCH   8  15
BRANCH  11  21
ATOM     21  N   UNL     1       1.407  12.731  18.063  0.00  0.00    +0.000 N 
ATOM     22  C   UNL     1       2.386  13.349  18.791  0.00  0.00    +0.000 C 
ATOM     23  O   UNL     1       2.296  13.626  19.973  0.00  0.00    +0.000 OA
ATOM     24  H   UNL     1       1.653  12.431  17.130  0.00  0.00    +0.000 HD
BRANCH  22  25
ATOM     25  O   UNL     1       3.471  13.589  18.003  0.00  0.00    +0.000 OA
BRANCH  25  26
ATOM     26  C   UNL     1       4.148  14.842  18.247  0.00  0.00    +0.000 C 
ATOM     27  C   UNL     1       5.607  14.741  17.810  0.00  0.00    +0.000 C 
ATOM     28  C   UNL     1       3.440  15.933  17.448  0.00  0.00    +0.000 C 
ENDBRANCH  25  26
ENDBRANCH  22  25
ENDBRANCH  11  21
TORSDOF 4
ENDMDL
MODEL 9
REMARK VINA RESULT:      -7.0      5.892      9.181
REMARK  Name = 
REMARK  8 active torsions:
REMARK  status: ('A' for Active; 'I' for Inactive)
REMARK    1  A    between atoms: C_1  and  C_2
REMARK    2  A    between atoms: C_8  and  C_9
REMARK    3  A    between atoms: C_16  and  N_17
REMARK    4  A    between atoms: C_18  and  O_20
REMARK    5  A    between atoms: O_20  and  C_21
REMARK    6  A    between atoms: C_21  and  C_22
REMARK    7  A    between atoms: C_21  and  C_23
REMARK    8  A    between atoms: C_25  and  C_26
REMARK                            x       y       z     vdW  Elec       q    Type
REMARK                         _______ _______ _______ _____ _____    ______ ____
ROOT
ATOM      1  C   UNL     1      -6.767  13.622  24.189  0.00  0.00    +0.000 C 
ATOM      2  C   UNL     1      -6.275  12.952  22.936  0.00  0.00    +0.000 C 
ATOM      3  O   UNL     1      -7.115  12.265  22.344  0.00  0.00    +0.000 OA
ATOM      4  N   UNL     1      -4.934  13.094  22.526  0.00  0.00    +0.000 N 
ATOM      5  C   UNL     1      -4.557  12.664  21.175  0.00  0.00    +0.000 A 
ATOM      6  C   UNL     1      -5.519  12.523  20.159  0.00  0.00    +0.000 A 
ATOM      7  C   UNL     1      -5.191  12.082  18.873  0.00  0.00    +0.000 A 
ATOM      8  C   UNL     1      -3.873  11.799  18.538  0.00  0.00    +0.000 A 
ATOM      9  C   UNL     1      -2.888  11.988  19.511  0.00  0.00    +0.000 A 
ATOM     10  C   UNL     1      -3.209  12.402  20.829  0.00  0.00    +0.000 A 
ATOM     11  C   UNL     1      -2.077  12.635  21.804  0.00  0.00    +0.000 C 
ATOM     12  C   UNL     1      -2.596  12.679  23.231  0.00  0.00    +0.000 C 
ATOM     13  C   UNL     1      -3.790  13.635  23.335  0.00  0.00    +0.000 C 
ATOM     14  C   UNL     1      -3.990  13.892  24.833  0.00  0.00    +0.000 C 
ENDROOT
BRANCH   8  15
ATOM     15  C   UNL     1      -3.558  11.337  17.195  0.00  0.00    +0.000 A 
ATOM     16  C   UNL     1      -4.439  11.026  16.121  0.00  0.00    +0.000 A 
ATOM     17  C   UNL     1      -3.679  10.565  15.070  0.00  0.00    +0.000 A 
ATOM     18  N   UNL     1      -2.369  10.577  15.465  0.00  0.00    +0.000 N 
ATOM     19  C   UNL     1      -2.283  11.041  16.753  0.00  0.00    +0.000 A 
ATOM     20  H   UNL     1      -1.585  10.275  14.901  0.00  0.00    +0.000 HD
ENDBRANCH   8  15
BRANCH  11  21
ATOM     21  N   UNL     1      -1.010  11.643  21.706  0.00  0.00    +0.000 N 
ATOM     22  C   UNL     1       0.306  12.010  21.640  0.00  0.00    +0.000 C 
ATOM     23  O   UNL     1       0.699  13.160  21.559  0.00  0.00    +0.000 OA
ATOM     24  H   UNL     1      -1.203  10.672  21.909  0.00  0.00    +0.000 HD
BRANCH  22  25
ATOM     25  O   UNL     1       1.101  10.905  21.694  0.00  0.00    +0.000 OA
BRANCH  25  26
ATOM     26  C   UNL     1       0.406   9.651  21.878  0.00  0.00    +0.000 C 
ATOM     27  C   UNL     1       1.189   8.519  21.220  0.00  0.00    +0.000 C 
ATOM     28  C   UNL     1       0.275   9.390  23.377  0.00  0.00    +0.000 C 
ENDBRANCH  25  26
ENDBRANCH  22  25
ENDBRANCH  11  21
TORSDOF 4
ENDMDL
