MODEL 1
REMARK VINA RESULT:      -7.9      0.000      0.000
REMARK  Name = 
REMARK  7 active torsions:
REMARK  status: ('A' for Active; 'I' for Inactive)
REMARK    1  A    between atoms: C_1  and  O_2
REMARK    2  A    between atoms: O_2  and  C_3
REMARK    3  A    between atoms: C_8  and  C_9
REMARK    4  A    between atoms: N_10  and  N_11
REMARK    5  A    between atoms: C_12  and  C_14
REMARK    6  A    between atoms: C_14  and  N_15
REMARK    7  A    between atoms: N_15  and  C_27
REMARK                            x       y       z     vdW  Elec       q    Type
REMARK                         _______ _______ _______ _____ _____    ______ ____
ROOT
ATOM      1  N   UNL     1      -0.941  11.197  21.888  0.00  0.00    +0.000 N 
ATOM      2  C   UNL     1      -0.542  11.256  20.539  0.00  0.00    +0.000 C 
ATOM      3  N   UNL     1       0.730  11.067  20.226  0.00  0.00    +0.000 NA
ATOM      4  S   UNL     1       0.898  10.713  18.645  0.00  0.00    +0.000 S 
ATOM      5  O   UNL     1       1.304  11.891  17.924  0.00  0.00    +0.000 OA
ATOM      6  O   UNL     1       1.558   9.436  18.460  0.00  0.00    +0.000 OA
ATOM      7  C   UNL     1      -0.792  10.493  18.342  0.00  0.00    +0.000 A 
ATOM      8  C   UNL     1      -1.330  10.048  17.147  0.00  0.00    +0.000 A 
ATOM      9  C   UNL     1      -2.578  10.545  16.825  0.00  0.00    +0.000 A 
ATOM     10  C   UNL     1      -3.192  11.475  17.687  0.00  0.00    +0.000 A 
ATOM     11  C   UNL     1      -2.661  11.774  18.971  0.00  0.00    +0.000 A 
ATOM     12  C   UNL     1      -1.458  11.193  19.340  0.00  0.00    +0.000 A 
ENDROOT
BRANCH   1  13
ATOM     13  C   UNL     1      -1.513  12.288  22.632  0.00  0.00    +0.000 A 
ATOM     14  C   UNL     1      -0.819  13.481  22.866  0.00  0.00    +0.000 A 
ATOM     15  C   UNL     1      -1.375  14.508  23.648  0.00  0.00    +0.000 A 
ATOM     16  C   UNL     1      -2.642  14.371  24.223  0.00  0.00    +0.000 A 
ATOM     17  C   UNL     1      -3.360  13.208  24.002  0.00  0.00    +0.000 A 
ATOM     18  C   UNL     1      -2.807  12.200  23.198  0.00  0.00    +0.000 A 
ENDBRANCH   1  13
BRANCH   1  19
ATOM     19  C   UNL     1      -0.041  10.376  22.781  0.00  0.00    +0.000 C 
BRANCH  19  21
ATOM     20  N   UNL     1       1.190   8.526  21.708  0.00  0.00    +0.000 N 
ATOM     21  C   UNL     1       0.016   8.910  22.364  0.00  0.00    +0.000 C 
ATOM     22  O   UNL     1      -0.927   8.153  22.605  0.00  0.00    +0.000 OA
ATOM     23  H   UNL     1       1.719   9.241  21.214  0.00  0.00    +0.000 HD
BRANCH  20  25
ATOM     24  C   UNL     1       2.220   6.786  20.612  0.00  0.00    +0.000 C 
ATOM     25  N   UNL     1       1.164   7.272  21.185  0.00  0.00    +0.000 NA
BRANCH  24  31
ATOM     26  C   UNL     1       2.441   5.492  18.440  0.00  0.00    +0.000 A 
ATOM     27  C   UNL     1       2.054   4.370  17.690  0.00  0.00    +0.000 A 
ATOM     28  C   UNL     1       1.349   3.316  18.278  0.00  0.00    +0.000 A 
ATOM     29  C   UNL     1       1.015   3.367  19.622  0.00  0.00    +0.000 A 
ATOM     30  C   UNL     1       1.355   4.488  20.372  0.00  0.00    +0.000 A 
ATOM     31  C   UNL     1       2.052   5.564  19.784  0.00  0.00    +0.000 A 
BRANCH  26  33
ATOM     32  C   UNL     1       4.354   6.163  17.237  0.00  0.00    +0.000 C 
ATOM     33  O   UNL     1       3.146   6.538  17.899  0.00  0.00    +0.000 OA
ENDBRANCH  26  33
ENDBRANCH  24  31
ENDBRANCH  20  25
ENDBRANCH  19  21
ENDBRANCH   1  19
TORSDOF 6
ENDMDL
MODEL 2
REMARK VINA RESULT:      -7.8      2.868      8.854
REMARK  Name = 
REMARK  7 active torsions:
REMARK  status: ('A' for Active; 'I' for Inactive)
REMARK    1  A    between atoms: C_1  and  O_2
REMARK    2  A    between atoms: O_2  and  C_3
REMARK    3  A    between atoms: C_8  and  C_9
REMARK    4  A    between atoms: N_10  and  N_11
REMARK    5  A    between atoms: C_12  and  C_14
REMARK    6  A    between atoms: C_14  and  N_15
REMARK    7  A    between atoms: N_15  and  C_27
REMARK                            x       y       z     vdW  Elec       q    Type
REMARK                         _______ _______ _______ _____ _____    ______ ____
ROOT
ATOM      1  N   UNL     1       2.890   5.802  18.641  0.00  0.00    +0.000 N 
ATOM      2  C   UNL     1       4.057   5.635  17.872  0.00  0.00    +0.000 C 
ATOM      3  N   UNL     1       3.978   5.659  16.551  0.00  0.00    +0.000 NA
ATOM      4  S   UNL     1       5.441   5.918  15.881  0.00  0.00    +0.000 S 
ATOM      5  O   UNL     1       5.996   4.668  15.431  0.00  0.00    +0.000 OA
ATOM      6  O   UNL     1       5.432   7.099  15.041  0.00  0.00    +0.000 OA
ATOM      7  C   UNL     1       6.236   6.319  17.365  0.00  0.00    +0.000 A 
ATOM      8  C   UNL     1       7.541   6.767  17.466  0.00  0.00    +0.000 A 
ATOM      9  C   UNL     1       8.217   6.404  18.615  0.00  0.00    +0.000 A 
ATOM     10  C   UNL     1       7.569   5.593  19.567  0.00  0.00    +0.000 A 
ATOM     11  C   UNL     1       6.183   5.294  19.481  0.00  0.00    +0.000 A 
ATOM     12  C   UNL     1       5.476   5.748  18.378  0.00  0.00    +0.000 A 
ENDROOT
BRANCH   1  13
ATOM     13  C   UNL     1       2.340   4.820  19.538  0.00  0.00    +0.000 A 
ATOM     14  C   UNL     1       2.690   4.762  20.893  0.00  0.00    +0.000 A 
ATOM     15  C   UNL     1       2.186   3.757  21.734  0.00  0.00    +0.000 A 
ATOM     16  C   UNL     1       1.319   2.774  21.246  0.00  0.00    +0.000 A 
ATOM     17  C   UNL     1       0.946   2.808  19.913  0.00  0.00    +0.000 A 
ATOM     18  C   UNL     1       1.433   3.833  19.087  0.00  0.00    +0.000 A 
ENDBRANCH   1  13
BRANCH   1  19
ATOM     19  C   UNL     1       1.777   6.553  17.949  0.00  0.00    +0.000 C 
BRANCH  19  21
ATOM     20  N   UNL     1       1.449   8.467  19.473  0.00  0.00    +0.000 N 
ATOM     21  C   UNL     1       1.846   8.057  18.196  0.00  0.00    +0.000 C 
ATOM     22  O   UNL     1       2.227   8.821  17.306  0.00  0.00    +0.000 OA
ATOM     23  H   UNL     1       0.805   7.871  19.989  0.00  0.00    +0.000 HD
BRANCH  20  25
ATOM     24  C   UNL     1       0.269  10.323  20.141  0.00  0.00    +0.000 C 
ATOM     25  N   UNL     1       1.344   9.812  19.630  0.00  0.00    +0.000 NA
BRANCH  24  31
ATOM     26  C   UNL     1      -0.231  12.629  21.077  0.00  0.00    +0.000 A 
ATOM     27  C   UNL     1      -0.605  13.956  20.809  0.00  0.00    +0.000 A 
ATOM     28  C   UNL     1      -0.619  14.453  19.502  0.00  0.00    +0.000 A 
ATOM     29  C   UNL     1      -0.268  13.632  18.442  0.00  0.00    +0.000 A 
ATOM     30  C   UNL     1       0.066  12.304  18.684  0.00  0.00    +0.000 A 
ATOM     31  C   UNL     1       0.068  11.788  19.997  0.00  0.00    +0.000 A 
BRANCH  26  33
ATOM     32  C   UNL     1      -1.399  12.276  23.094  0.00  0.00    +0.000 C 
ATOM     33  O   UNL     1      -0.192  12.113  22.347  0.00  0.00    +0.000 OA
ENDBRANCH  26  33
ENDBRANCH  24  31
ENDBRANCH  20  25
ENDBRANCH  19  21
ENDBRANCH   1  19
TORSDOF 6
ENDMDL
MODEL 3
REMARK VINA RESULT:      -7.8      2.910      4.292
REMARK  Name = 
REMARK  7 active torsions:
REMARK  status: ('A' for Active; 'I' for Inactive)
REMARK    1  A    between atoms: C_1  and  O_2
REMARK    2  A    between atoms: O_2  and  C_3
REMARK    3  A    between atoms: C_8  and  C_9
REMARK    4  A    between atoms: N_10  and  N_11
REMARK    5  A    between atoms: C_12  and  C_14
REMARK    6  A    between atoms: C_14  and  N_15
REMARK    7  A    between atoms: N_15  and  C_27
REMARK                            x       y       z     vdW  Elec       q    Type
REMARK                         _______ _______ _______ _____ _____    ______ ____
ROOT
ATOM      1  N   UNL     1       0.370  11.702  20.368  0.00  0.00    +0.000 N 
ATOM      2  C   UNL     1       1.007  12.956  20.421  0.00  0.00    +0.000 C 
ATOM      3  N   UNL     1       0.916  13.689  21.519  0.00  0.00    +0.000 NA
ATOM      4  S   UNL     1       2.071  14.839  21.553  0.00  0.00    +0.000 S 
ATOM      5  O   UNL     1       1.512  16.100  21.139  0.00  0.00    +0.000 OA
ATOM      6  O   UNL     1       2.896  14.719  22.738  0.00  0.00    +0.000 OA
ATOM      7  C   UNL     1       2.966  14.217  20.209  0.00  0.00    +0.000 A 
ATOM      8  C   UNL     1       4.185  14.708  19.776  0.00  0.00    +0.000 A 
ATOM      9  C   UNL     1       4.426  14.616  18.419  0.00  0.00    +0.000 A 
ATOM     10  C   UNL     1       3.431  14.077  17.579  0.00  0.00    +0.000 A 
ATOM     11  C   UNL     1       2.267  13.449  18.099  0.00  0.00    +0.000 A 
ATOM     12  C   UNL     1       2.074  13.448  19.472  0.00  0.00    +0.000 A 
ENDROOT
BRANCH   1  13
ATOM     13  C   UNL     1      -0.685  11.345  19.458  0.00  0.00    +0.000 A 
ATOM     14  C   UNL     1      -1.981  11.864  19.570  0.00  0.00    +0.000 A 
ATOM     15  C   UNL     1      -3.009  11.453  18.706  0.00  0.00    +0.000 A 
ATOM     16  C   UNL     1      -2.774  10.507  17.703  0.00  0.00    +0.000 A 
ATOM     17  C   UNL     1      -1.502   9.982  17.558  0.00  0.00    +0.000 A 
ATOM     18  C   UNL     1      -0.475  10.418  18.409  0.00  0.00    +0.000 A 
ENDBRANCH   1  13
BRANCH   1  19
ATOM     19  C   UNL     1       0.137  11.052  21.713  0.00  0.00    +0.000 C 
BRANCH  19  21
ATOM     20  N   UNL     1       1.365   9.017  21.051  0.00  0.00    +0.000 N 
ATOM     21  C   UNL     1       0.209   9.530  21.647  0.00  0.00    +0.000 C 
ATOM     22  O   UNL     1      -0.709   8.839  22.097  0.00  0.00    +0.000 OA
ATOM     23  H   UNL     1       1.860   9.603  20.382  0.00  0.00    +0.000 HD
BRANCH  20  25
ATOM     24  C   UNL     1       2.297   7.113  20.159  0.00  0.00    +0.000 C 
ATOM     25  N   UNL     1       1.345   7.676  20.836  0.00  0.00    +0.000 NA
BRANCH  24  31
ATOM     26  C   UNL     1       2.430   5.292  18.397  0.00  0.00    +0.000 A 
ATOM     27  C   UNL     1       1.990   4.028  17.969  0.00  0.00    +0.000 A 
ATOM     28  C   UNL     1       1.265   3.189  18.822  0.00  0.00    +0.000 A 
ATOM     29  C   UNL     1       0.962   3.601  20.110  0.00  0.00    +0.000 A 
ATOM     30  C   UNL     1       1.354   4.864  20.537  0.00  0.00    +0.000 A 
ATOM     31  C   UNL     1       2.072   5.725  19.680  0.00  0.00    +0.000 A 
BRANCH  26  33
ATOM     32  C   UNL     1       4.382   5.587  17.109  0.00  0.00    +0.000 C 
ATOM     33  O   UNL     1       3.155   6.134  17.593  0.00  0.00    +0.000 OA
ENDBRANCH  26  33
ENDBRANCH  24  31
ENDBRANCH  20  25
ENDBRANCH  19  21
ENDBRANCH   1  19
TORSDOF 6
ENDMDL
MODEL 4
REMARK VINA RESULT:      -7.7      3.135      8.793
REMARK  Name = 
REMARK  7 active torsions:
REMARK  status: ('A' for Active; 'I' for Inactive)
REMARK    1  A    between atoms: C_1  and  O_2
REMARK    2  A    between atoms: O_2  and  C_3
REMARK    3  A    between atoms: C_8  and  C_9
REMARK    4  A    between atoms: N_10  and  N_11
REMARK    5  A    between atoms: C_12  and  C_14
REMARK    6  A    between atoms: C_14  and  N_15
REMARK    7  A    between atoms: N_15  and  C_27
REMARK                            x       y       z     vdW  Elec       q    Type
REMARK                         _______ _______ _______ _____ _____    ______ ____
ROOT
ATOM      1  N   UNL     1       2.870   5.771  18.652  0.00  0.00    +0.000 N 
ATOM      2  C   UNL     1       4.043   5.618  17.888  0.00  0.00    +0.000 C 
ATOM      3  N   UNL     1       3.974   5.670  16.568  0.00  0.00    +0.000 NA
ATOM      4  S   UNL     1       5.442   5.941  15.914  0.00  0.00    +0.000 S 
ATOM      5  O   UNL     1       5.999   4.700  15.442  0.00  0.00    +0.000 OA
ATOM      6  O   UNL     1       5.441   7.139  15.099  0.00  0.00    +0.000 OA
ATOM      7  C   UNL     1       6.226   6.310  17.412  0.00  0.00    +0.000 A 
ATOM      8  C   UNL     1       7.531   6.756  17.533  0.00  0.00    +0.000 A 
ATOM      9  C   UNL     1       8.198   6.369  18.678  0.00  0.00    +0.000 A 
ATOM     10  C   UNL     1       7.542   5.538  19.609  0.00  0.00    +0.000 A 
ATOM     11  C   UNL     1       6.156   5.243  19.506  0.00  0.00    +0.000 A 
ATOM     12  C   UNL     1       5.458   5.720  18.407  0.00  0.00    +0.000 A 
ENDROOT
BRANCH   1  13
ATOM     13  C   UNL     1       2.313   4.772  19.525  0.00  0.00    +0.000 A 
ATOM     14  C   UNL     1       2.659   4.679  20.878  0.00  0.00    +0.000 A 
ATOM     15  C   UNL     1       2.149   3.657  21.694  0.00  0.00    +0.000 A 
ATOM     16  C   UNL     1       1.277   2.691  21.181  0.00  0.00    +0.000 A 
ATOM     17  C   UNL     1       0.905   2.760  19.850  0.00  0.00    +0.000 A 
ATOM     18  C   UNL     1       1.400   3.800  19.048  0.00  0.00    +0.000 A 
ENDBRANCH   1  13
BRANCH   1  19
ATOM     19  C   UNL     1       1.763   6.538  17.968  0.00  0.00    +0.000 C 
BRANCH  19  21
ATOM     20  N   UNL     1       1.502   8.428  19.531  0.00  0.00    +0.000 N 
ATOM     21  C   UNL     1       1.841   8.038  18.232  0.00  0.00    +0.000 C 
ATOM     22  O   UNL     1       2.180   8.815  17.337  0.00  0.00    +0.000 OA
ATOM     23  H   UNL     1       0.882   7.824  20.068  0.00  0.00    +0.000 HD
BRANCH  20  25
ATOM     24  C   UNL     1       0.251  10.356  19.605  0.00  0.00    +0.000 C 
ATOM     25  N   UNL     1       1.402   9.771  19.712  0.00  0.00    +0.000 NA
BRANCH  24  31
ATOM     26  C   UNL     1      -0.690  12.538  18.713  0.00  0.00    +0.000 A 
ATOM     27  C   UNL     1      -0.490  13.913  18.505  0.00  0.00    +0.000 A 
ATOM     28  C   UNL     1       0.575  14.587  19.110  0.00  0.00    +0.000 A 
ATOM     29  C   UNL     1       1.461  13.899  19.924  0.00  0.00    +0.000 A 
ATOM     30  C   UNL     1       1.303  12.531  20.109  0.00  0.00    +0.000 A 
ATOM     31  C   UNL     1       0.241  11.837  19.491  0.00  0.00    +0.000 A 
BRANCH  26  33
ATOM     32  C   UNL     1      -2.967  11.946  18.858  0.00  0.00    +0.000 C 
ATOM     33  O   UNL     1      -1.732  11.848  18.147  0.00  0.00    +0.000 OA
ENDBRANCH  26  33
ENDBRANCH  24  31
ENDBRANCH  20  25
ENDBRANCH  19  21
ENDBRANCH   1  19
TORSDOF 6
ENDMDL
MODEL 5
REMARK VINA RESULT:      -7.7      0.787      1.187
REMARK  Name = 
REMARK  7 active torsions:
REMARK  status: ('A' for Active; 'I' for Inactive)
REMARK    1  A    between atoms: C_1  and  O_2
REMARK    2  A    between atoms: O_2  and  C_3
REMARK    3  A    between atoms: C_8  and  C_9
REMARK    4  A    between atoms: N_10  and  N_11
REMARK    5  A    between atoms: C_12  and  C_14
REMARK    6  A    between atoms: C_14  and  N_15
REMARK    7  A    between atoms: N_15  and  C_27
REMARK                            x       y       z     vdW  Elec       q    Type
REMARK                         _______ _______ _______ _____ _____    ______ ____
ROOT
ATOM      1  N   UNL     1      -1.372  11.540  22.129  0.00  0.00    +0.000 N 
ATOM      2  C   UNL     1      -1.129  11.802  20.767  0.00  0.00    +0.000 C 
ATOM      3  N   UNL     1       0.116  11.827  20.319  0.00  0.00    +0.000 NA
ATOM      4  S   UNL     1       0.157  11.677  18.697  0.00  0.00    +0.000 S 
ATOM      5  O   UNL     1       0.333  12.973  18.094  0.00  0.00    +0.000 OA
ATOM      6  O   UNL     1       0.950  10.532  18.295  0.00  0.00    +0.000 OA
ATOM      7  C   UNL     1      -1.513  11.261  18.524  0.00  0.00    +0.000 A 
ATOM      8  C   UNL     1      -2.115  10.882  17.337  0.00  0.00    +0.000 A 
ATOM      9  C   UNL     1      -3.443  11.235  17.193  0.00  0.00    +0.000 A 
ATOM     10  C   UNL     1      -4.074  11.970  18.216  0.00  0.00    +0.000 A 
ATOM     11  C   UNL     1      -3.451  12.195  19.474  0.00  0.00    +0.000 A 
ATOM     12  C   UNL     1      -2.152  11.747  19.657  0.00  0.00    +0.000 A 
ENDROOT
BRANCH   1  13
ATOM     13  C   UNL     1      -1.994  12.452  23.051  0.00  0.00    +0.000 A 
ATOM     14  C   UNL     1      -3.254  12.211  23.611  0.00  0.00    +0.000 A 
ATOM     15  C   UNL     1      -3.866  13.146  24.461  0.00  0.00    +0.000 A 
ATOM     16  C   UNL     1      -3.238  14.355  24.776  0.00  0.00    +0.000 A 
ATOM     17  C   UNL     1      -1.986  14.620  24.248  0.00  0.00    +0.000 A 
ATOM     18  C   UNL     1      -1.371  13.668  23.421  0.00  0.00    +0.000 A 
ENDBRANCH   1  13
BRANCH   1  19
ATOM     19  C   UNL     1      -0.285  10.756  22.827  0.00  0.00    +0.000 C 
BRANCH  19  21
ATOM     20  N   UNL     1       0.852   9.111  21.381  0.00  0.00    +0.000 N 
ATOM     21  C   UNL     1      -0.172   9.325  22.310  0.00  0.00    +0.000 C 
ATOM     22  O   UNL     1      -0.947   8.452  22.707  0.00  0.00    +0.000 OA
ATOM     23  H   UNL     1       1.173   9.904  20.829  0.00  0.00    +0.000 HD
BRANCH  20  25
ATOM     24  C   UNL     1       1.844   7.083  20.944  0.00  0.00    +0.000 C 
ATOM     25  N   UNL     1       0.838   7.886  20.795  0.00  0.00    +0.000 NA
BRANCH  24  31
ATOM     26  C   UNL     1       2.484   5.973  18.753  0.00  0.00    +0.000 A 
ATOM     27  C   UNL     1       2.331   4.867  17.900  0.00  0.00    +0.000 A 
ATOM     28  C   UNL     1       1.693   3.702  18.337  0.00  0.00    +0.000 A 
ATOM     29  C   UNL     1       1.193   3.624  19.628  0.00  0.00    +0.000 A 
ATOM     30  C   UNL     1       1.301   4.723  20.473  0.00  0.00    +0.000 A 
ATOM     31  C   UNL     1       1.928   5.909  20.037  0.00  0.00    +0.000 A 
BRANCH  26  33
ATOM     32  C   UNL     1       4.164   6.939  17.410  0.00  0.00    +0.000 C 
ATOM     33  O   UNL     1       3.116   7.126  18.363  0.00  0.00    +0.000 OA
ENDBRANCH  26  33
ENDBRANCH  24  31
ENDBRANCH  20  25
ENDBRANCH  19  21
ENDBRANCH   1  19
TORSDOF 6
ENDMDL
MODEL 6
REMARK VINA RESULT:      -7.7      2.878      8.798
REMARK  Name = 
REMARK  7 active torsions:
REMARK  status: ('A' for Active; 'I' for Inactive)
REMARK    1  A    between atoms: C_1  and  O_2
REMARK    2  A    between atoms: O_2  and  C_3
REMARK    3  A    between atoms: C_8  and  C_9
REMARK    4  A    between atoms: N_10  and  N_11
REMARK    5  A    between atoms: C_12  and  C_14
REMARK    6  A    between atoms: C_14  and  N_15
REMARK    7  A    between atoms: N_15  and  C_27
REMARK                            x       y       z     vdW  Elec       q    Type
REMARK                         _______ _______ _______ _____ _____    ______ ____
ROOT
ATOM      1  N   UNL     1       3.140   5.425  18.871  0.00  0.00    +0.000 N 
ATOM      2  C   UNL     1       4.263   5.440  18.022  0.00  0.00    +0.000 C 
ATOM      3  N   UNL     1       4.089   5.484  16.711  0.00  0.00    +0.000 NA
ATOM      4  S   UNL     1       5.452   5.959  15.955  0.00  0.00    +0.000 S 
ATOM      5  O   UNL     1       6.141   4.810  15.428  0.00  0.00    +0.000 OA
ATOM      6  O   UNL     1       5.224   7.147  15.157  0.00  0.00    +0.000 OA
ATOM      7  C   UNL     1       6.287   6.431  17.395  0.00  0.00    +0.000 A 
ATOM      8  C   UNL     1       7.522   7.055  17.426  0.00  0.00    +0.000 A 
ATOM      9  C   UNL     1       8.320   6.762  18.515  0.00  0.00    +0.000 A 
ATOM     10  C   UNL     1       7.856   5.846  19.480  0.00  0.00    +0.000 A 
ATOM     11  C   UNL     1       6.521   5.360  19.475  0.00  0.00    +0.000 A 
ATOM     12  C   UNL     1       5.684   5.737  18.437  0.00  0.00    +0.000 A 
ENDROOT
BRANCH   1  13
ATOM     13  C   UNL     1       2.794   4.356  19.770  0.00  0.00    +0.000 A 
ATOM     14  C   UNL     1       1.561   4.301  20.431  0.00  0.00    +0.000 A 
ATOM     15  C   UNL     1       1.271   3.279  21.350  0.00  0.00    +0.000 A 
ATOM     16  C   UNL     1       2.207   2.281  21.640  0.00  0.00    +0.000 A 
ATOM     17  C   UNL     1       3.432   2.301  20.995  0.00  0.00    +0.000 A 
ATOM     18  C   UNL     1       3.703   3.310  20.059  0.00  0.00    +0.000 A 
ENDBRANCH   1  13
BRANCH   1  19
ATOM     19  C   UNL     1       1.889   6.031  18.279  0.00  0.00    +0.000 C 
BRANCH  19  21
ATOM     20  N   UNL     1       1.629   7.937  19.824  0.00  0.00    +0.000 N 
ATOM     21  C   UNL     1       1.810   7.539  18.496  0.00  0.00    +0.000 C 
ATOM     22  O   UNL     1       1.903   8.315  17.542  0.00  0.00    +0.000 OA
ATOM     23  H   UNL     1       1.184   7.283  20.465  0.00  0.00    +0.000 HD
BRANCH  20  25
ATOM     24  C   UNL     1       0.183   9.673  20.252  0.00  0.00    +0.000 C 
ATOM     25  N   UNL     1       1.384   9.263  19.991  0.00  0.00    +0.000 NA
BRANCH  24  31
ATOM     26  C   UNL     1      -0.945  11.647  19.123  0.00  0.00    +0.000 A 
ATOM     27  C   UNL     1      -0.980  13.038  18.936  0.00  0.00    +0.000 A 
ATOM     28  C   UNL     1      -0.234  13.895  19.751  0.00  0.00    +0.000 A 
ATOM     29  C   UNL     1       0.564  13.377  20.759  0.00  0.00    +0.000 A 
ATOM     30  C   UNL     1       0.642  12.000  20.933  0.00  0.00    +0.000 A 
ATOM     31  C   UNL     1      -0.094  11.126  20.107  0.00  0.00    +0.000 A 
BRANCH  26  33
ATOM     32  C   UNL     1      -2.327  11.378  17.233  0.00  0.00    +0.000 C 
ATOM     33  O   UNL     1      -1.675  10.778  18.352  0.00  0.00    +0.000 OA
ENDBRANCH  26  33
ENDBRANCH  24  31
ENDBRANCH  20  25
ENDBRANCH  19  21
ENDBRANCH   1  19
TORSDOF 6
ENDMDL
MODEL 7
REMARK VINA RESULT:      -7.5      1.214      1.468
REMARK  Name = 
REMARK  7 active torsions:
REMARK  status: ('A' for Active; 'I' for Inactive)
REMARK    1  A    between atoms: C_1  and  O_2
REMARK    2  A    between atoms: O_2  and  C_3
REMARK    3  A    between atoms: C_8  and  C_9
REMARK    4  A    between atoms: N_10  and  N_11
REMARK    5  A    between atoms: C_12  and  C_14
REMARK    6  A    between atoms: C_14  and  N_15
REMARK    7  A    between atoms: N_15  and  C_27
REMARK                            x       y       z     vdW  Elec       q    Type
REMARK                         _______ _______ _______ _____ _____    ______ ____
ROOT
ATOM      1  N   UNL     1      -1.910  11.780  21.780  0.00  0.00    +0.000 N 
ATOM      2  C   UNL     1      -1.504  11.961  20.444  0.00  0.00    +0.000 C 
ATOM      3  N   UNL     1      -0.264  12.342  20.183  0.00  0.00    +0.000 NA
ATOM      4  S   UNL     1       0.126  12.043  18.630  0.00  0.00    +0.000 S 
ATOM      5  O   UNL     1       0.013  13.254  17.859  0.00  0.00    +0.000 OA
ATOM      6  O   UNL     1       1.288  11.181  18.536  0.00  0.00    +0.000 OA
ATOM      7  C   UNL     1      -1.277  11.091  18.285  0.00  0.00    +0.000 A 
ATOM      8  C   UNL     1      -1.502  10.413  17.099  0.00  0.00    +0.000 A 
ATOM      9  C   UNL     1      -2.821  10.299  16.709  0.00  0.00    +0.000 A 
ATOM     10  C   UNL     1      -3.826  10.893  17.499  0.00  0.00    +0.000 A 
ATOM     11  C   UNL     1      -3.550  11.439  18.781  0.00  0.00    +0.000 A 
ATOM     12  C   UNL     1      -2.235  11.460  19.221  0.00  0.00    +0.000 A 
ENDROOT
BRANCH   1  13
ATOM     13  C   UNL     1      -2.940  12.533  22.444  0.00  0.00    +0.000 A 
ATOM     14  C   UNL     1      -3.538  13.658  21.866  0.00  0.00    +0.000 A 
ATOM     15  C   UNL     1      -4.498  14.413  22.559  0.00  0.00    +0.000 A 
ATOM     16  C   UNL     1      -4.888  14.067  23.858  0.00  0.00    +0.000 A 
ATOM     17  C   UNL     1      -4.324  12.953  24.455  0.00  0.00    +0.000 A 
ATOM     18  C   UNL     1      -3.385  12.190  23.744  0.00  0.00    +0.000 A 
ENDBRANCH   1  13
BRANCH   1  19
ATOM     19  C   UNL     1      -0.789  11.470  22.746  0.00  0.00    +0.000 C 
BRANCH  19  21
ATOM     20  N   UNL     1       0.748   9.877  21.656  0.00  0.00    +0.000 N 
ATOM     21  C   UNL     1      -0.270  10.043  22.600  0.00  0.00    +0.000 C 
ATOM     22  O   UNL     1      -0.742   9.132  23.284  0.00  0.00    +0.000 OA
ATOM     23  H   UNL     1       0.806  10.545  20.891  0.00  0.00    +0.000 HD
BRANCH  20  25
ATOM     24  C   UNL     1       1.883   8.300  20.426  0.00  0.00    +0.000 C 
ATOM     25  N   UNL     1       1.083   8.585  21.405  0.00  0.00    +0.000 NA
BRANCH  24  31
ATOM     26  C   UNL     1       2.485   6.489  18.753  0.00  0.00    +0.000 A 
ATOM     27  C   UNL     1       2.328   5.152  18.353  0.00  0.00    +0.000 A 
ATOM     28  C   UNL     1       1.719   4.213  19.193  0.00  0.00    +0.000 A 
ATOM     29  C   UNL     1       1.254   4.596  20.441  0.00  0.00    +0.000 A 
ATOM     30  C   UNL     1       1.365   5.923  20.838  0.00  0.00    +0.000 A 
ATOM     31  C   UNL     1       1.962   6.881  19.992  0.00  0.00    +0.000 A 
BRANCH  26  33
ATOM     32  C   UNL     1       4.246   6.971  17.262  0.00  0.00    +0.000 C 
ATOM     33  O   UNL     1       3.089   7.432  17.961  0.00  0.00    +0.000 OA
ENDBRANCH  26  33
ENDBRANCH  24  31
ENDBRANCH  20  25
ENDBRANCH  19  21
ENDBRANCH   1  19
TORSDOF 6
ENDMDL
MODEL 8
REMARK VINA RESULT:      -7.5      3.173      8.937
REMARK  Name = 
REMARK  7 active torsions:
REMARK  status: ('A' for Active; 'I' for Inactive)
REMARK    1  A    between atoms: C_1  and  O_2
REMARK    2  A    between atoms: O_2  and  C_3
REMARK    3  A    between atoms: C_8  and  C_9
REMARK    4  A    between atoms: N_10  and  N_11
REMARK    5  A    between atoms: C_12  and  C_14
REMARK    6  A    between atoms: C_14  and  N_15
REMARK    7  A    between atoms: N_15  and  C_27
REMARK                            x       y       z     vdW  Elec       q    Type
REMARK                         _______ _______ _______ _____ _____    ______ ____
ROOT
ATOM      1  N   UNL     1       2.897   5.757  18.788  0.00  0.00    +0.000 N 
ATOM      2  C   UNL     1       4.041   5.677  17.972  0.00  0.00    +0.000 C 
ATOM      3  N   UNL     1       3.921   5.822  16.662  0.00  0.00    +0.000 NA
ATOM      4  S   UNL     1       5.359   6.160  15.975  0.00  0.00    +0.000 S 
ATOM      5  O   UNL     1       5.913   4.965  15.395  0.00  0.00    +0.000 OA
ATOM      6  O   UNL     1       5.313   7.414  15.249  0.00  0.00    +0.000 OA
ATOM      7  C   UNL     1       6.196   6.433  17.465  0.00  0.00    +0.000 A 
ATOM      8  C   UNL     1       7.499   6.888  17.569  0.00  0.00    +0.000 A 
ATOM      9  C   UNL     1       8.214   6.429  18.658  0.00  0.00    +0.000 A 
ATOM     10  C   UNL     1       7.604   5.525  19.550  0.00  0.00    +0.000 A 
ATOM     11  C   UNL     1       6.218   5.217  19.478  0.00  0.00    +0.000 A 
ATOM     12  C   UNL     1       5.474   5.762  18.443  0.00  0.00    +0.000 A 
ENDROOT
BRANCH   1  13
ATOM     13  C   UNL     1       2.385   4.690  19.606  0.00  0.00    +0.000 A 
ATOM     14  C   UNL     1       1.453   3.760  19.131  0.00  0.00    +0.000 A 
ATOM     15  C   UNL     1       0.923   2.765  19.968  0.00  0.00    +0.000 A 
ATOM     16  C   UNL     1       1.306   2.670  21.310  0.00  0.00    +0.000 A 
ATOM     17  C   UNL     1       2.234   3.568  21.809  0.00  0.00    +0.000 A 
ATOM     18  C   UNL     1       2.778   4.542  20.958  0.00  0.00    +0.000 A 
ENDBRANCH   1  13
BRANCH   1  19
ATOM     19  C   UNL     1       1.755   6.555  18.202  0.00  0.00    +0.000 C 
BRANCH  19  21
ATOM     20  N   UNL     1       1.659   8.986  17.791  0.00  0.00    +0.000 N 
ATOM     21  C   UNL     1       1.688   7.974  18.756  0.00  0.00    +0.000 C 
ATOM     22  O   UNL     1       1.666   8.171  19.974  0.00  0.00    +0.000 OA
ATOM     23  H   UNL     1       2.063   8.789  16.878  0.00  0.00    +0.000 HD
BRANCH  20  25
ATOM     24  C   UNL     1       0.726  10.989  18.426  0.00  0.00    +0.000 C 
ATOM     25  N   UNL     1       1.778  10.245  18.286  0.00  0.00    +0.000 NA
BRANCH  24  31
ATOM     26  C   UNL     1      -0.114  13.338  18.897  0.00  0.00    +0.000 A 
ATOM     27  C   UNL     1       0.167  14.714  18.899  0.00  0.00    +0.000 A 
ATOM     28  C   UNL     1       1.472  15.185  18.729  0.00  0.00    +0.000 A 
ATOM     29  C   UNL     1       2.516  14.291  18.548  0.00  0.00    +0.000 A 
ATOM     30  C   UNL     1       2.252  12.926  18.504  0.00  0.00    +0.000 A 
ATOM     31  C   UNL     1       0.936  12.441  18.659  0.00  0.00    +0.000 A 
BRANCH  26  33
ATOM     32  C   UNL     1      -1.979  13.170  20.329  0.00  0.00    +0.000 C 
ATOM     33  O   UNL     1      -1.380  12.840  19.075  0.00  0.00    +0.000 OA
ENDBRANCH  26  33
ENDBRANCH  24  31
ENDBRANCH  20  25
ENDBRANCH  19  21
ENDBRANCH   1  19
TORSDOF 6
ENDMDL
MODEL 9
REMARK VINA RESULT:      -7.5      1.107      1.958
REMARK  Name = 
REMARK  7 active torsions:
REMARK  status: ('A' for Active; 'I' for Inactive)
REMARK    1  A    between atoms: C_1  and  O_2
REMARK    2  A    between atoms: O_2  and  C_3
REMARK    3  A    between atoms: C_8  and  C_9
REMARK    4  A    between atoms: N_10  and  N_11
REMARK    5  A    between atoms: C_12  and  C_14
REMARK    6  A    between atoms: C_14  and  N_15
REMARK    7  A    between atoms: N_15  and  C_27
REMARK                            x       y       z     vdW  Elec       q    Type
REMARK                         _______ _______ _______ _____ _____    ______ ____
ROOT
ATOM      1  N   UNL     1      -1.290  11.341  21.980  0.00  0.00    +0.000 N 
ATOM      2  C   UNL     1      -1.021  11.612  20.625  0.00  0.00    +0.000 C 
ATOM      3  N   UNL     1       0.229  11.590  20.190  0.00  0.00    +0.000 NA
ATOM      4  S   UNL     1       0.282  11.462  18.567  0.00  0.00    +0.000 S 
ATOM      5  O   UNL     1       0.519  12.758  17.985  0.00  0.00    +0.000 OA
ATOM      6  O   UNL     1       1.030  10.290  18.157  0.00  0.00    +0.000 OA
ATOM      7  C   UNL     1      -1.403  11.120  18.370  0.00  0.00    +0.000 A 
ATOM      8  C   UNL     1      -2.007  10.784  17.171  0.00  0.00    +0.000 A 
ATOM      9  C   UNL     1      -3.316  11.196  17.019  0.00  0.00    +0.000 A 
ATOM     10  C   UNL     1      -3.927  11.942  18.046  0.00  0.00    +0.000 A 
ATOM     11  C   UNL     1      -3.310  12.122  19.313  0.00  0.00    +0.000 A 
ATOM     12  C   UNL     1      -2.033  11.617  19.504  0.00  0.00    +0.000 A 
ENDROOT
BRANCH   1  13
ATOM     13  C   UNL     1      -1.883  12.265  22.909  0.00  0.00    +0.000 A 
ATOM     14  C   UNL     1      -3.131  12.038  23.501  0.00  0.00    +0.000 A 
ATOM     15  C   UNL     1      -3.716  12.985  24.358  0.00  0.00    +0.000 A 
ATOM     16  C   UNL     1      -3.072  14.192  24.647  0.00  0.00    +0.000 A 
ATOM     17  C   UNL     1      -1.831  14.444  24.087  0.00  0.00    +0.000 A 
ATOM     18  C   UNL     1      -1.243  13.480  23.253  0.00  0.00    +0.000 A 
ENDBRANCH   1  13
BRANCH   1  19
ATOM     19  C   UNL     1      -0.246  10.501  22.678  0.00  0.00    +0.000 C 
BRANCH  19  21
ATOM     20  N   UNL     1       1.121   9.028  21.245  0.00  0.00    +0.000 N 
ATOM     21  C   UNL     1      -0.044   9.145  22.011  0.00  0.00    +0.000 C 
ATOM     22  O   UNL     1      -0.873   8.244  22.159  0.00  0.00    +0.000 OA
ATOM     23  H   UNL     1       1.528   9.878  20.859  0.00  0.00    +0.000 HD
BRANCH  20  25
ATOM     24  C   UNL     1       2.229   7.102  20.656  0.00  0.00    +0.000 C 
ATOM     25  N   UNL     1       1.208   7.887  20.514  0.00  0.00    +0.000 NA
BRANCH  24  31
ATOM     26  C   UNL     1       2.038   4.722  19.794  0.00  0.00    +0.000 A 
ATOM     27  C   UNL     1       2.464   3.769  18.855  0.00  0.00    +0.000 A 
ATOM     28  C   UNL     1       3.220   4.143  17.739  0.00  0.00    +0.000 A 
ATOM     29  C   UNL     1       3.568   5.471  17.547  0.00  0.00    +0.000 A 
ATOM     30  C   UNL     1       3.188   6.422  18.487  0.00  0.00    +0.000 A 
ATOM     31  C   UNL     1       2.440   6.054  19.625  0.00  0.00    +0.000 A 
BRANCH  26  33
ATOM     32  C   UNL     1       1.702   3.207  21.569  0.00  0.00    +0.000 C 
ATOM     33  O   UNL     1       1.284   4.393  20.892  0.00  0.00    +0.000 OA
ENDBRANCH  26  33
ENDBRANCH  24  31
ENDBRANCH  20  25
ENDBRANCH  19  21
ENDBRANCH   1  19
TORSDOF 6
ENDMDL
