MODEL 1
REMARK VINA RESULT:      -8.1      0.000      0.000
REMARK  Name = 
REMARK  16 active torsions:
REMARK  status: ('A' for Active; 'I' for Inactive)
REMARK    1  A    between atoms: CD1_1  and  CG_2
REMARK    2  A    between atoms: CG_2  and  CD2_3
REMARK    3  A    between atoms: CG_2  and  CB_4
REMARK    4  A    between atoms: CB_4  and  CA_5
REMARK    5  A    between atoms: CA_5  and  N_6
REMARK    6  A    between atoms: CA_5  and  C_20
REMARK    7  A    between atoms: C_7  and  O_9
REMARK    8  A    between atoms: O_9  and  C_10
REMARK    9  A    between atoms: C_10  and  C_11
REMARK   10  A    between atoms: C_11  and  C_12
REMARK   11  A    between atoms: C_11  and  C_13
REMARK   12  A    between atoms: C_11  and  C_14
REMARK   13  A    between atoms: N_22  and  C_23
REMARK   14  A    between atoms: C_23  and  C_24
REMARK   15  A    between atoms: C_23  and  C_26
REMARK   16  A    between atoms: C_26  and  C_27
REMARK                            x       y       z     vdW  Elec       q    Type
REMARK                         _______ _______ _______ _____ _____    ______ ____
ROOT
ATOM      1  CA  LEU A   1       2.344   5.652  19.658  0.00  0.00    +0.000 C 
ENDROOT
BRANCH   1   2
ATOM      2  N   LEU A   1       3.759   5.423  19.915  0.00  0.00    +0.000 N 
ATOM      3  C   UNK A   0       4.516   4.684  19.051  0.00  0.00    +0.000 C 
ATOM      4  O   UNK A   0       5.233   3.776  19.447  0.00  0.00    +0.000 OA
ATOM      5  H   LEU A   1       3.959   5.151  20.866  0.00  0.00    +0.000 HD
BRANCH   3   6
ATOM      6  O   UNK A   0       4.507   5.194  17.798  0.00  0.00    +0.000 OA
BRANCH   6   7
ATOM      7  C   UNK A   0       5.134   4.354  16.801  0.00  0.00    +0.000 C 
BRANCH   7   8
ATOM      8  C   UNK A   0       6.392   5.058  16.187  0.00  0.00    +0.000 C 
ATOM      9  C   UNK A   0       6.319   6.580  16.471  0.00  0.00    +0.000 C 
ATOM     10  C   UNK A   0       7.657   4.539  16.903  0.00  0.00    +0.000 C 
BRANCH   8  11
ATOM     11  C   UNK A   0       6.570   4.761  14.684  0.00  0.00    +0.000 A 
ATOM     12  C   UNK A   0       7.565   5.411  13.932  0.00  0.00    +0.000 A 
ATOM     13  C   UNK A   0       7.803   5.070  12.601  0.00  0.00    +0.000 A 
ATOM     14  C   UNK A   0       7.024   4.101  11.977  0.00  0.00    +0.000 A 
ATOM     15  C   UNK A   0       6.011   3.469  12.682  0.00  0.00    +0.000 A 
ATOM     16  C   UNK A   0       5.803   3.778  14.027  0.00  0.00    +0.000 A 
ENDBRANCH   8  11
ENDBRANCH   7   8
ENDBRANCH   6   7
ENDBRANCH   3   6
ENDBRANCH   1   2
BRANCH   1  17
ATOM     17  C   LEU A   1       2.084   7.171  19.746  0.00  0.00    +0.000 C 
ATOM     18  O   LEU A   1       2.426   7.963  18.865  0.00  0.00    +0.000 OA
ATOM     19  N   UNK A   2       1.452   7.600  20.903  0.00  0.00    +0.000 N 
ATOM     20  H   UNK A   2       1.038   6.906  21.517  0.00  0.00    +0.000 HD
BRANCH  19  21
ATOM     21  C   UNK A   2       1.311   9.030  21.163  0.00  0.00    +0.000 C 
BRANCH  21  22
ATOM     22  C   UNK A   2       0.548   9.222  22.482  0.00  0.00    +0.000 C 
ATOM     23  O   UNK A   2      -0.642   8.952  22.647  0.00  0.00    +0.000 OA
ENDBRANCH  21  22
BRANCH  21  24
ATOM     24  C   UNK A   2       0.495   9.813  20.131  0.00  0.00    +0.000 C 
BRANCH  24  25
ATOM     25  C   UNK A   2       0.643  11.326  20.103  0.00  0.00    +0.000 C 
ATOM     26  C   UNK A   2      -0.597  12.214  20.241  0.00  0.00    +0.000 C 
ATOM     27  C   UNK A   2      -0.811  12.843  18.875  0.00  0.00    +0.000 C 
ATOM     28  N   UNK A   2       0.462  12.762  18.237  0.00  0.00    +0.000 N 
ATOM     29  C   UNK A   2       1.220  11.733  18.746  0.00  0.00    +0.000 C 
ATOM     30  O   UNK A   2       2.163  11.233  18.176  0.00  0.00    +0.000 OA
ATOM     31  H   UNK A   2       0.641  13.042  17.279  0.00  0.00    +0.000 HD
ENDBRANCH  24  25
ENDBRANCH  21  24
ENDBRANCH  19  21
ENDBRANCH   1  17
BRANCH   1  32
ATOM     32  CB  LEU A   1       1.552   4.836  20.702  0.00  0.00    +0.000 C 
BRANCH  32  34
ATOM     33  CD1 LEU A   1       1.388   2.625  21.938  0.00  0.00    +0.000 C 
ATOM     34  CG  LEU A   1       1.686   3.308  20.605  0.00  0.00    +0.000 C 
ATOM     35  CD2 LEU A   1       0.732   2.777  19.527  0.00  0.00    +0.000 C 
ENDBRANCH  32  34
ENDBRANCH   1  32
TORSDOF 12
ENDMDL
MODEL 2
REMARK VINA RESULT:      -7.8      0.817      1.178
REMARK  Name = 
REMARK  16 active torsions:
REMARK  status: ('A' for Active; 'I' for Inactive)
REMARK    1  A    between atoms: CD1_1  and  CG_2
REMARK    2  A    between atoms: CG_2  and  CD2_3
REMARK    3  A    between atoms: CG_2  and  CB_4
REMARK    4  A    between atoms: CB_4  and  CA_5
REMARK    5  A    between atoms: CA_5  and  N_6
REMARK    6  A    between atoms: CA_5  and  C_20
REMARK    7  A    between atoms: C_7  and  O_9
REMARK    8  A    between atoms: O_9  and  C_10
REMARK    9  A    between atoms: C_10  and  C_11
REMARK   10  A    between atoms: C_11  and  C_12
REMARK   11  A    between atoms: C_11  and  C_13
REMARK   12  A    between atoms: C_11  and  C_14
REMARK   13  A    between atoms: N_22  and  C_23
REMARK   14  A    between atoms: C_23  and  C_24
REMARK   15  A    between atoms: C_23  and  C_26
REMARK   16  A    between atoms: C_26  and  C_27
REMARK                            x       y       z     vdW  Elec       q    Type
REMARK                         _______ _______ _______ _____ _____    ______ ____
ROOT
ATOM      1  CA  LEU A   1       2.351   5.716  19.585  0.00  0.00    +0.000 C 
ENDROOT
BRANCH   1   2
ATOM      2  N   LEU A   1       3.788   5.488  19.656  0.00  0.00    +0.000 N 
ATOM      3  C   UNK A   0       4.384   4.537  18.877  0.00  0.00    +0.000 C 
ATOM      4  O   UNK A   0       5.151   3.711  19.352  0.00  0.00    +0.000 OA
ATOM      5  H   LEU A   1       4.143   5.432  20.599  0.00  0.00    +0.000 HD
BRANCH   3   6
ATOM      6  O   UNK A   0       4.167   4.747  17.558  0.00  0.00    +0.000 OA
BRANCH   6   7
ATOM      7  C   UNK A   0       5.051   4.012  16.679  0.00  0.00    +0.000 C 
BRANCH   7   8
ATOM      8  C   UNK A   0       6.137   4.956  16.060  0.00  0.00    +0.000 C 
ATOM      9  C   UNK A   0       5.684   6.431  16.214  0.00  0.00    +0.000 C 
ATOM     10  C   UNK A   0       7.445   4.813  16.866  0.00  0.00    +0.000 C 
BRANCH   8  11
ATOM     11  C   UNK A   0       6.469   4.607  14.595  0.00  0.00    +0.000 A 
ATOM     12  C   UNK A   0       5.680   3.694  13.872  0.00  0.00    +0.000 A 
ATOM     13  C   UNK A   0       5.909   3.456  12.517  0.00  0.00    +0.000 A 
ATOM     14  C   UNK A   0       6.959   4.092  11.862  0.00  0.00    +0.000 A 
ATOM     15  C   UNK A   0       7.777   4.970  12.558  0.00  0.00    +0.000 A 
ATOM     16  C   UNK A   0       7.519   5.243  13.903  0.00  0.00    +0.000 A 
ENDBRANCH   8  11
ENDBRANCH   7   8
ENDBRANCH   6   7
ENDBRANCH   3   6
ENDBRANCH   1   2
BRANCH   1  17
ATOM     17  C   LEU A   1       2.104   7.233  19.726  0.00  0.00    +0.000 C 
ATOM     18  O   LEU A   1       2.494   8.057  18.895  0.00  0.00    +0.000 OA
ATOM     19  N   UNK A   2       1.424   7.621  20.869  0.00  0.00    +0.000 N 
ATOM     20  H   UNK A   2       0.974   6.908  21.434  0.00  0.00    +0.000 HD
BRANCH  19  21
ATOM     21  C   UNK A   2       1.285   9.041  21.183  0.00  0.00    +0.000 C 
BRANCH  21  22
ATOM     22  C   UNK A   2       0.522   9.185  22.508  0.00  0.00    +0.000 C 
ATOM     23  O   UNK A   2      -0.645   8.832  22.685  0.00  0.00    +0.000 OA
ENDBRANCH  21  22
BRANCH  21  24
ATOM     24  C   UNK A   2       0.472   9.864  20.181  0.00  0.00    +0.000 C 
BRANCH  24  25
ATOM     25  C   UNK A   2      -0.249  11.101  20.692  0.00  0.00    +0.000 C 
ATOM     26  C   UNK A   2      -1.497  11.609  19.964  0.00  0.00    +0.000 C 
ATOM     27  C   UNK A   2      -1.083  12.904  19.286  0.00  0.00    +0.000 C 
ATOM     28  N   UNK A   2       0.064  13.341  20.014  0.00  0.00    +0.000 N 
ATOM     29  C   UNK A   2       0.711  12.289  20.620  0.00  0.00    +0.000 C 
ATOM     30  O   UNK A   2       1.862  12.320  20.994  0.00  0.00    +0.000 OA
ATOM     31  H   UNK A   2       0.621  14.153  19.770  0.00  0.00    +0.000 HD
ENDBRANCH  24  25
ENDBRANCH  21  24
ENDBRANCH  19  21
ENDBRANCH   1  17
BRANCH   1  32
ATOM     32  CB  LEU A   1       1.701   4.884  20.711  0.00  0.00    +0.000 C 
BRANCH  32  34
ATOM     33  CD1 LEU A   1       1.457   2.624  21.840  0.00  0.00    +0.000 C 
ATOM     34  CG  LEU A   1       1.743   3.359  20.532  0.00  0.00    +0.000 C 
ATOM     35  CD2 LEU A   1       0.721   2.938  19.468  0.00  0.00    +0.000 C 
ENDBRANCH  32  34
ENDBRANCH   1  32
TORSDOF 12
ENDMDL
MODEL 3
REMARK VINA RESULT:      -7.8      1.405      1.506
REMARK  Name = 
REMARK  16 active torsions:
REMARK  status: ('A' for Active; 'I' for Inactive)
REMARK    1  A    between atoms: CD1_1  and  CG_2
REMARK    2  A    between atoms: CG_2  and  CD2_3
REMARK    3  A    between atoms: CG_2  and  CB_4
REMARK    4  A    between atoms: CB_4  and  CA_5
REMARK    5  A    between atoms: CA_5  and  N_6
REMARK    6  A    between atoms: CA_5  and  C_20
REMARK    7  A    between atoms: C_7  and  O_9
REMARK    8  A    between atoms: O_9  and  C_10
REMARK    9  A    between atoms: C_10  and  C_11
REMARK   10  A    between atoms: C_11  and  C_12
REMARK   11  A    between atoms: C_11  and  C_13
REMARK   12  A    between atoms: C_11  and  C_14
REMARK   13  A    between atoms: N_22  and  C_23
REMARK   14  A    between atoms: C_23  and  C_24
REMARK   15  A    between atoms: C_23  and  C_26
REMARK   16  A    between atoms: C_26  and  C_27
REMARK                            x       y       z     vdW  Elec       q    Type
REMARK                         _______ _______ _______ _____ _____    ______ ____
ROOT
ATOM      1  CA  LEU A   1       2.602   5.736  18.956  0.00  0.00    +0.000 C 
ENDROOT
BRANCH   1   2
ATOM      2  N   LEU A   1       3.992   5.367  19.185  0.00  0.00    +0.000 N 
ATOM      3  C   UNK A   0       4.493   4.193  18.697  0.00  0.00    +0.000 C 
ATOM      4  O   UNK A   0       5.124   3.424  19.409  0.00  0.00    +0.000 OA
ATOM      5  H   LEU A   1       4.295   5.500  20.138  0.00  0.00    +0.000 HD
BRANCH   3   6
ATOM      6  O   UNK A   0       4.365   4.101  17.354  0.00  0.00    +0.000 OA
BRANCH   6   7
ATOM      7  C   UNK A   0       5.589   3.781  16.653  0.00  0.00    +0.000 C 
BRANCH   7   8
ATOM      8  C   UNK A   0       6.107   5.016  15.839  0.00  0.00    +0.000 C 
ATOM      9  C   UNK A   0       5.098   6.184  15.979  0.00  0.00    +0.000 C 
ATOM     10  C   UNK A   0       7.432   5.506  16.459  0.00  0.00    +0.000 C 
BRANCH   8  11
ATOM     11  C   UNK A   0       6.397   4.680  14.362  0.00  0.00    +0.000 A 
ATOM     12  C   UNK A   0       7.407   5.355  13.652  0.00  0.00    +0.000 A 
ATOM     13  C   UNK A   0       7.747   4.984  12.352  0.00  0.00    +0.000 A 
ATOM     14  C   UNK A   0       7.058   3.957  11.714  0.00  0.00    +0.000 A 
ATOM     15  C   UNK A   0       6.033   3.298  12.375  0.00  0.00    +0.000 A 
ATOM     16  C   UNK A   0       5.723   3.639  13.693  0.00  0.00    +0.000 A 
ENDBRANCH   8  11
ENDBRANCH   7   8
ENDBRANCH   6   7
ENDBRANCH   3   6
ENDBRANCH   1   2
BRANCH   1  17
ATOM     17  C   LEU A   1       2.535   7.271  18.813  0.00  0.00    +0.000 C 
ATOM     18  O   LEU A   1       3.344   7.919  18.144  0.00  0.00    +0.000 OA
ATOM     19  N   UNK A   2       1.509   7.889  19.510  0.00  0.00    +0.000 N 
ATOM     20  H   UNK A   2       0.772   7.313  19.903  0.00  0.00    +0.000 HD
BRANCH  19  21
ATOM     21  C   UNK A   2       1.456   9.348  19.580  0.00  0.00    +0.000 C 
BRANCH  21  22
ATOM     22  C   UNK A   2       0.668   9.757  20.832  0.00  0.00    +0.000 C 
ATOM     23  O   UNK A   2       1.170   9.961  21.939  0.00  0.00    +0.000 OA
ENDBRANCH  21  22
BRANCH  21  24
ATOM     24  C   UNK A   2       0.727  10.040  18.426  0.00  0.00    +0.000 C 
BRANCH  24  25
ATOM     25  C   UNK A   2      -0.699  10.509  18.662  0.00  0.00    +0.000 C 
ATOM     26  C   UNK A   2      -1.846   9.887  17.860  0.00  0.00    +0.000 C 
ATOM     27  C   UNK A   2      -2.320  10.971  16.906  0.00  0.00    +0.000 C 
ATOM     28  N   UNK A   2      -1.880  12.191  17.499  0.00  0.00    +0.000 N 
ATOM     29  C   UNK A   2      -0.787  11.995  18.312  0.00  0.00    +0.000 C 
ATOM     30  O   UNK A   2      -0.022  12.870  18.650  0.00  0.00    +0.000 OA
ATOM     31  H   UNK A   2      -1.984  13.105  17.071  0.00  0.00    +0.000 HD
ENDBRANCH  24  25
ENDBRANCH  21  24
ENDBRANCH  19  21
ENDBRANCH   1  17
BRANCH   1  32
ATOM     32  CB  LEU A   1       1.784   5.198  20.149  0.00  0.00    +0.000 C 
BRANCH  32  34
ATOM     33  CD1 LEU A   1       2.040   3.319  21.837  0.00  0.00    +0.000 C 
ATOM     34  CG  LEU A   1       1.831   3.677  20.367  0.00  0.00    +0.000 C 
ATOM     35  CD2 LEU A   1       0.527   3.046  19.861  0.00  0.00    +0.000 C 
ENDBRANCH  32  34
ENDBRANCH   1  32
TORSDOF 12
ENDMDL
MODEL 4
REMARK VINA RESULT:      -7.8      0.952      1.169
REMARK  Name = 
REMARK  16 active torsions:
REMARK  status: ('A' for Active; 'I' for Inactive)
REMARK    1  A    between atoms: CD1_1  and  CG_2
REMARK    2  A    between atoms: CG_2  and  CD2_3
REMARK    3  A    between atoms: CG_2  and  CB_4
REMARK    4  A    between atoms: CB_4  and  CA_5
REMARK    5  A    between atoms: CA_5  and  N_6
REMARK    6  A    between atoms: CA_5  and  C_20
REMARK    7  A    between atoms: C_7  and  O_9
REMARK    8  A    between atoms: O_9  and  C_10
REMARK    9  A    between atoms: C_10  and  C_11
REMARK   10  A    between atoms: C_11  and  C_12
REMARK   11  A    between atoms: C_11  and  C_13
REMARK   12  A    between atoms: C_11  and  C_14
REMARK   13  A    between atoms: N_22  and  C_23
REMARK   14  A    between atoms: C_23  and  C_24
REMARK   15  A    between atoms: C_23  and  C_26
REMARK   16  A    between atoms: C_26  and  C_27
REMARK                            x       y       z     vdW  Elec       q    Type
REMARK                         _______ _______ _______ _____ _____    ______ ____
ROOT
ATOM      1  CA  LEU A   1       2.331   5.824  19.716  0.00  0.00    +0.000 C 
ENDROOT
BRANCH   1   2
ATOM      2  N   LEU A   1       3.779   5.676  19.764  0.00  0.00    +0.000 N 
ATOM      3  C   UNK A   0       4.408   4.709  19.032  0.00  0.00    +0.000 C 
ATOM      4  O   UNK A   0       5.229   3.957  19.538  0.00  0.00    +0.000 OA
ATOM      5  H   LEU A   1       4.158   5.700  20.699  0.00  0.00    +0.000 HD
BRANCH   3   6
ATOM      6  O   UNK A   0       4.151   4.822  17.708  0.00  0.00    +0.000 OA
BRANCH   6   7
ATOM      7  C   UNK A   0       5.127   4.187  16.849  0.00  0.00    +0.000 C 
BRANCH   7   8
ATOM      8  C   UNK A   0       5.907   5.252  16.005  0.00  0.00    +0.000 C 
ATOM      9  C   UNK A   0       5.138   6.598  16.038  0.00  0.00    +0.000 C 
ATOM     10  C   UNK A   0       7.275   5.514  16.668  0.00  0.00    +0.000 C 
BRANCH   8  11
ATOM     11  C   UNK A   0       6.186   4.785  14.562  0.00  0.00    +0.000 A 
ATOM     12  C   UNK A   0       7.327   5.226  13.867  0.00  0.00    +0.000 A 
ATOM     13  C   UNK A   0       7.642   4.725  12.605  0.00  0.00    +0.000 A 
ATOM     14  C   UNK A   0       6.803   3.802  11.988  0.00  0.00    +0.000 A 
ATOM     15  C   UNK A   0       5.652   3.377  12.633  0.00  0.00    +0.000 A 
ATOM     16  C   UNK A   0       5.360   3.844  13.916  0.00  0.00    +0.000 A 
ENDBRANCH   8  11
ENDBRANCH   7   8
ENDBRANCH   6   7
ENDBRANCH   3   6
ENDBRANCH   1   2
BRANCH   1  17
ATOM     17  C   LEU A   1       2.000   7.319  19.906  0.00  0.00    +0.000 C 
ATOM     18  O   LEU A   1       2.192   8.166  19.031  0.00  0.00    +0.000 OA
ATOM     19  N   UNK A   2       1.484   7.661  21.147  0.00  0.00    +0.000 N 
ATOM     20  H   UNK A   2       1.184   6.918  21.770  0.00  0.00    +0.000 HD
BRANCH  19  21
ATOM     21  C   UNK A   2       1.295   9.068  21.490  0.00  0.00    +0.000 C 
BRANCH  21  22
ATOM     22  C   UNK A   2       0.005   9.210  22.310  0.00  0.00    +0.000 C 
ATOM     23  O   UNK A   2      -0.939   8.419  22.273  0.00  0.00    +0.000 OA
ENDBRANCH  21  22
BRANCH  21  24
ATOM     24  C   UNK A   2       1.102  10.018  20.306  0.00  0.00    +0.000 C 
BRANCH  24  25
ATOM     25  C   UNK A   2      -0.082  10.971  20.340  0.00  0.00    +0.000 C 
ATOM     26  C   UNK A   2      -1.004  11.081  19.123  0.00  0.00    +0.000 C 
ATOM     27  C   UNK A   2      -0.731  12.448  18.518  0.00  0.00    +0.000 C 
ATOM     28  N   UNK A   2      -0.161  13.206  19.584  0.00  0.00    +0.000 N 
ATOM     29  C   UNK A   2       0.445  12.396  20.515  0.00  0.00    +0.000 C 
ATOM     30  O   UNK A   2       1.279  12.772  21.309  0.00  0.00    +0.000 OA
ATOM     31  H   UNK A   2       0.193  14.152  19.488  0.00  0.00    +0.000 HD
ENDBRANCH  24  25
ENDBRANCH  21  24
ENDBRANCH  19  21
ENDBRANCH   1  17
BRANCH   1  32
ATOM     32  CB  LEU A   1       1.743   4.923  20.823  0.00  0.00    +0.000 C 
BRANCH  32  34
ATOM     33  CD1 LEU A   1       1.048   3.519  18.824  0.00  0.00    +0.000 C 
ATOM     34  CG  LEU A   1       1.050   3.636  20.347  0.00  0.00    +0.000 C 
ATOM     35  CD2 LEU A   1       1.755   2.418  20.959  0.00  0.00    +0.000 C 
ENDBRANCH  32  34
ENDBRANCH   1  32
TORSDOF 12
ENDMDL
MODEL 5
REMARK VINA RESULT:      -7.8      2.347      9.133
REMARK  Name = 
REMARK  16 active torsions:
REMARK  status: ('A' for Active; 'I' for Inactive)
REMARK    1  A    between atoms: CD1_1  and  CG_2
REMARK    2  A    between atoms: CG_2  and  CD2_3
REMARK    3  A    between atoms: CG_2  and  CB_4
REMARK    4  A    between atoms: CB_4  and  CA_5
REMARK    5  A    between atoms: CA_5  and  N_6
REMARK    6  A    between atoms: CA_5  and  C_20
REMARK    7  A    between atoms: C_7  and  O_9
REMARK    8  A    between atoms: O_9  and  C_10
REMARK    9  A    between atoms: C_10  and  C_11
REMARK   10  A    between atoms: C_11  and  C_12
REMARK   11  A    between atoms: C_11  and  C_13
REMARK   12  A    between atoms: C_11  and  C_14
REMARK   13  A    between atoms: N_22  and  C_23
REMARK   14  A    between atoms: C_23  and  C_24
REMARK   15  A    between atoms: C_23  and  C_26
REMARK   16  A    between atoms: C_26  and  C_27
REMARK                            x       y       z     vdW  Elec       q    Type
REMARK                         _______ _______ _______ _____ _____    ______ ____
ROOT
ATOM      1  CA  LEU A   1       3.342   5.445  18.699  0.00  0.00    +0.000 C 
ENDROOT
BRANCH   1   2
ATOM      2  N   LEU A   1       3.485   6.808  18.206  0.00  0.00    +0.000 N 
ATOM      3  C   UNK A   0       2.443   7.689  18.276  0.00  0.00    +0.000 C 
ATOM      4  O   UNK A   0       2.097   8.346  17.304  0.00  0.00    +0.000 OA
ATOM      5  H   LEU A   1       3.926   6.868  17.301  0.00  0.00    +0.000 HD
BRANCH   3   6
ATOM      6  O   UNK A   0       2.003   7.861  19.544  0.00  0.00    +0.000 OA
BRANCH   6   7
ATOM      7  C   UNK A   0       1.327   9.118  19.781  0.00  0.00    +0.000 C 
BRANCH   7   8
ATOM      8  C   UNK A   0       0.563   9.094  21.148  0.00  0.00    +0.000 C 
ATOM      9  C   UNK A   0      -0.239   7.773  21.265  0.00  0.00    +0.000 C 
ATOM     10  C   UNK A   0       1.592   9.085  22.298  0.00  0.00    +0.000 C 
BRANCH   8  11
ATOM     11  C   UNK A   0      -0.334  10.332  21.355  0.00  0.00    +0.000 A 
ATOM     12  C   UNK A   0      -0.678  10.767  22.648  0.00  0.00    +0.000 A 
ATOM     13  C   UNK A   0      -1.397  11.946  22.845  0.00  0.00    +0.000 A 
ATOM     14  C   UNK A   0      -1.827  12.694  21.755  0.00  0.00    +0.000 A 
ATOM     15  C   UNK A   0      -1.535  12.270  20.467  0.00  0.00    +0.000 A 
ATOM     16  C   UNK A   0      -0.776  11.115  20.270  0.00  0.00    +0.000 A 
ENDBRANCH   8  11
ENDBRANCH   7   8
ENDBRANCH   6   7
ENDBRANCH   3   6
ENDBRANCH   1   2
BRANCH   1  17
ATOM     17  C   LEU A   1       4.433   4.581  18.032  0.00  0.00    +0.000 C 
ATOM     18  O   LEU A   1       4.380   3.350  17.987  0.00  0.00    +0.000 OA
ATOM     19  N   UNK A   2       5.501   5.283  17.495  0.00  0.00    +0.000 N 
ATOM     20  H   UNK A   2       5.424   6.290  17.401  0.00  0.00    +0.000 HD
BRANCH  19  21
ATOM     21  C   UNK A   2       6.665   4.557  16.993  0.00  0.00    +0.000 C 
BRANCH  21  22
ATOM     22  C   UNK A   2       7.753   4.551  18.076  0.00  0.00    +0.000 C 
ATOM     23  O   UNK A   2       7.610   5.001  19.214  0.00  0.00    +0.000 OA
ENDBRANCH  21  22
BRANCH  21  24
ATOM     24  C   UNK A   2       7.348   5.168  15.767  0.00  0.00    +0.000 C 
BRANCH  24  25
ATOM     25  C   UNK A   2       6.552   5.257  14.476  0.00  0.00    +0.000 C 
ATOM     26  C   UNK A   2       5.516   4.178  14.146  0.00  0.00    +0.000 C 
ATOM     27  C   UNK A   2       6.099   3.383  12.990  0.00  0.00    +0.000 C 
ATOM     28  N   UNK A   2       7.054   4.260  12.395  0.00  0.00    +0.000 N 
ATOM     29  C   UNK A   2       7.525   5.185  13.298  0.00  0.00    +0.000 C 
ATOM     30  O   UNK A   2       8.558   5.801  13.168  0.00  0.00    +0.000 OA
ATOM     31  H   UNK A   2       7.668   4.002  11.630  0.00  0.00    +0.000 HD
ENDBRANCH  24  25
ENDBRANCH  21  24
ENDBRANCH  19  21
ENDBRANCH   1  17
BRANCH   1  32
ATOM     32  CB  LEU A   1       1.907   4.985  18.360  0.00  0.00    +0.000 C 
BRANCH  32  34
ATOM     33  CD1 LEU A   1       1.055   2.758  19.228  0.00  0.00    +0.000 C 
ATOM     34  CG  LEU A   1       1.148   4.260  19.482  0.00  0.00    +0.000 C 
ATOM     35  CD2 LEU A   1       1.849   4.516  20.823  0.00  0.00    +0.000 C 
ENDBRANCH  32  34
ENDBRANCH   1  32
TORSDOF 12
ENDMDL
MODEL 6
REMARK VINA RESULT:      -7.7      1.430      2.806
REMARK  Name = 
REMARK  16 active torsions:
REMARK  status: ('A' for Active; 'I' for Inactive)
REMARK    1  A    between atoms: CD1_1  and  CG_2
REMARK    2  A    between atoms: CG_2  and  CD2_3
REMARK    3  A    between atoms: CG_2  and  CB_4
REMARK    4  A    between atoms: CB_4  and  CA_5
REMARK    5  A    between atoms: CA_5  and  N_6
REMARK    6  A    between atoms: CA_5  and  C_20
REMARK    7  A    between atoms: C_7  and  O_9
REMARK    8  A    between atoms: O_9  and  C_10
REMARK    9  A    between atoms: C_10  and  C_11
REMARK   10  A    between atoms: C_11  and  C_12
REMARK   11  A    between atoms: C_11  and  C_13
REMARK   12  A    between atoms: C_11  and  C_14
REMARK   13  A    between atoms: N_22  and  C_23
REMARK   14  A    between atoms: C_23  and  C_24
REMARK   15  A    between atoms: C_23  and  C_26
REMARK   16  A    between atoms: C_26  and  C_27
REMARK                            x       y       z     vdW  Elec       q    Type
REMARK                         _______ _______ _______ _____ _____    ______ ____
ROOT
ATOM      1  CA  LEU A   1       2.255   5.588  19.763  0.00  0.00    +0.000 C 
ENDROOT
BRANCH   1   2
ATOM      2  N   LEU A   1       3.675   5.343  19.970  0.00  0.00    +0.000 N 
ATOM      3  C   UNK A   0       4.394   4.599  19.079  0.00  0.00    +0.000 C 
ATOM      4  O   UNK A   0       5.115   3.682  19.448  0.00  0.00    +0.000 OA
ATOM      5  H   LEU A   1       3.906   5.067  20.913  0.00  0.00    +0.000 HD
BRANCH   3   6
ATOM      6  O   UNK A   0       4.347   5.112  17.828  0.00  0.00    +0.000 OA
BRANCH   6   7
ATOM      7  C   UNK A   0       5.116   4.378  16.847  0.00  0.00    +0.000 C 
BRANCH   7   8
ATOM      8  C   UNK A   0       6.079   5.333  16.062  0.00  0.00    +0.000 C 
ATOM      9  C   UNK A   0       6.925   4.503  15.064  0.00  0.00    +0.000 C 
ATOM     10  C   UNK A   0       5.237   6.311  15.216  0.00  0.00    +0.000 C 
BRANCH   8  11
ATOM     11  C   UNK A   0       6.963   6.189  16.993  0.00  0.00    +0.000 A 
ATOM     12  C   UNK A   0       7.181   7.553  16.729  0.00  0.00    +0.000 A 
ATOM     13  C   UNK A   0       7.889   8.357  17.622  0.00  0.00    +0.000 A 
ATOM     14  C   UNK A   0       8.432   7.808  18.779  0.00  0.00    +0.000 A 
ATOM     15  C   UNK A   0       8.265   6.458  19.047  0.00  0.00    +0.000 A 
ATOM     16  C   UNK A   0       7.518   5.663  18.177  0.00  0.00    +0.000 A 
ENDBRANCH   8  11
ENDBRANCH   7   8
ENDBRANCH   6   7
ENDBRANCH   3   6
ENDBRANCH   1   2
BRANCH   1  17
ATOM     17  C   LEU A   1       2.020   7.111  19.827  0.00  0.00    +0.000 C 
ATOM     18  O   LEU A   1       2.452   7.893  18.977  0.00  0.00    +0.000 OA
ATOM     19  N   UNK A   2       1.300   7.557  20.925  0.00  0.00    +0.000 N 
ATOM     20  H   UNK A   2       0.821   6.874  21.501  0.00  0.00    +0.000 HD
BRANCH  19  21
ATOM     21  C   UNK A   2       1.167   8.991  21.170  0.00  0.00    +0.000 C 
BRANCH  21  22
ATOM     22  C   UNK A   2       0.849   9.212  22.656  0.00  0.00    +0.000 C 
ATOM     23  O   UNK A   2      -0.255   9.540  23.094  0.00  0.00    +0.000 OA
ENDBRANCH  21  22
BRANCH  21  24
ATOM     24  C   UNK A   2       0.024   9.686  20.426  0.00  0.00    +0.000 C 
BRANCH  24  25
ATOM     25  C   UNK A   2       0.331  10.319  19.078  0.00  0.00    +0.000 C 
ATOM     26  C   UNK A   2       1.200  11.579  19.010  0.00  0.00    +0.000 C 
ATOM     27  C   UNK A   2       0.263  12.708  18.617  0.00  0.00    +0.000 C 
ATOM     28  N   UNK A   2      -0.845  12.057  17.996  0.00  0.00    +0.000 N 
ATOM     29  C   UNK A   2      -0.985  10.762  18.438  0.00  0.00    +0.000 C 
ATOM     30  O   UNK A   2      -2.006  10.117  18.348  0.00  0.00    +0.000 OA
ATOM     31  H   UNK A   2      -1.682  12.533  17.675  0.00  0.00    +0.000 HD
ENDBRANCH  24  25
ENDBRANCH  21  24
ENDBRANCH  19  21
ENDBRANCH   1  17
BRANCH   1  32
ATOM     32  CB  LEU A   1       1.493   4.806  20.854  0.00  0.00    +0.000 C 
BRANCH  32  34
ATOM     33  CD1 LEU A   1       1.345   2.637  22.165  0.00  0.00    +0.000 C 
ATOM     34  CG  LEU A   1       1.629   3.276  20.807  0.00  0.00    +0.000 C 
ATOM     35  CD2 LEU A   1       0.666   2.708  19.756  0.00  0.00    +0.000 C 
ENDBRANCH  32  34
ENDBRANCH   1  32
TORSDOF 12
ENDMDL
MODEL 7
REMARK VINA RESULT:      -7.6      2.436      9.223
REMARK  Name = 
REMARK  16 active torsions:
REMARK  status: ('A' for Active; 'I' for Inactive)
REMARK    1  A    between atoms: CD1_1  and  CG_2
REMARK    2  A    between atoms: CG_2  and  CD2_3
REMARK    3  A    between atoms: CG_2  and  CB_4
REMARK    4  A    between atoms: CB_4  and  CA_5
REMARK    5  A    between atoms: CA_5  and  N_6
REMARK    6  A    between atoms: CA_5  and  C_20
REMARK    7  A    between atoms: C_7  and  O_9
REMARK    8  A    between atoms: O_9  and  C_10
REMARK    9  A    between atoms: C_10  and  C_11
REMARK   10  A    between atoms: C_11  and  C_12
REMARK   11  A    between atoms: C_11  and  C_13
REMARK   12  A    between atoms: C_11  and  C_14
REMARK   13  A    between atoms: N_22  and  C_23
REMARK   14  A    between atoms: C_23  and  C_24
REMARK   15  A    between atoms: C_23  and  C_26
REMARK   16  A    between atoms: C_26  and  C_27
REMARK                            x       y       z     vdW  Elec       q    Type
REMARK                         _______ _______ _______ _____ _____    ______ ____
ROOT
ATOM      1  CA  LEU A   1       3.274   6.062  18.972  0.00  0.00    +0.000 C 
ENDROOT
BRANCH   1   2
ATOM      2  N   LEU A   1       3.184   7.349  18.297  0.00  0.00    +0.000 N 
ATOM      3  C   UNK A   0       2.053   8.109  18.390  0.00  0.00    +0.000 C 
ATOM      4  O   UNK A   0       1.517   8.580  17.397  0.00  0.00    +0.000 OA
ATOM      5  H   LEU A   1       3.507   7.329  17.341  0.00  0.00    +0.000 HD
BRANCH   3   6
ATOM      6  O   UNK A   0       1.743   8.409  19.672  0.00  0.00    +0.000 OA
BRANCH   6   7
ATOM      7  C   UNK A   0       1.462   9.808  19.913  0.00  0.00    +0.000 C 
BRANCH   7   8
ATOM      8  C   UNK A   0       0.006  10.000  20.457  0.00  0.00    +0.000 C 
ATOM      9  C   UNK A   0      -0.997   9.946  19.276  0.00  0.00    +0.000 C 
ATOM     10  C   UNK A   0      -0.345   8.817  21.384  0.00  0.00    +0.000 C 
BRANCH   8  11
ATOM     11  C   UNK A   0      -0.157  11.288  21.290  0.00  0.00    +0.000 A 
ATOM     12  C   UNK A   0       0.557  12.455  20.964  0.00  0.00    +0.000 A 
ATOM     13  C   UNK A   0       0.335  13.652  21.644  0.00  0.00    +0.000 A 
ATOM     14  C   UNK A   0      -0.576  13.702  22.695  0.00  0.00    +0.000 A 
ATOM     15  C   UNK A   0      -1.268  12.558  23.063  0.00  0.00    +0.000 A 
ATOM     16  C   UNK A   0      -1.079  11.371  22.353  0.00  0.00    +0.000 A 
ENDBRANCH   8  11
ENDBRANCH   7   8
ENDBRANCH   6   7
ENDBRANCH   3   6
ENDBRANCH   1   2
BRANCH   1  17
ATOM     17  C   LEU A   1       4.724   5.551  18.832  0.00  0.00    +0.000 C 
ATOM     18  O   LEU A   1       5.374   5.107  19.781  0.00  0.00    +0.000 OA
ATOM     19  N   UNK A   2       5.266   5.644  17.560  0.00  0.00    +0.000 N 
ATOM     20  H   UNK A   2       4.649   5.851  16.781  0.00  0.00    +0.000 HD
BRANCH  19  21
ATOM     21  C   UNK A   2       6.682   5.347  17.353  0.00  0.00    +0.000 C 
BRANCH  21  22
ATOM     22  C   UNK A   2       7.444   6.667  17.168  0.00  0.00    +0.000 C 
ATOM     23  O   UNK A   2       6.915   7.777  17.102  0.00  0.00    +0.000 OA
ENDBRANCH  21  22
BRANCH  21  24
ATOM     24  C   UNK A   2       7.012   4.535  16.098  0.00  0.00    +0.000 C 
BRANCH  24  25
ATOM     25  C   UNK A   2       6.340   4.933  14.794  0.00  0.00    +0.000 C 
ATOM     26  C   UNK A   2       5.364   3.966  14.116  0.00  0.00    +0.000 C 
ATOM     27  C   UNK A   2       6.072   3.471  12.866  0.00  0.00    +0.000 C 
ATOM     28  N   UNK A   2       7.060   4.464  12.595  0.00  0.00    +0.000 N 
ATOM     29  C   UNK A   2       7.421   5.144  13.734  0.00  0.00    +0.000 C 
ATOM     30  O   UNK A   2       8.449   5.773  13.856  0.00  0.00    +0.000 OA
ATOM     31  H   UNK A   2       7.749   4.397  11.853  0.00  0.00    +0.000 HD
ENDBRANCH  24  25
ENDBRANCH  21  24
ENDBRANCH  19  21
ENDBRANCH   1  17
BRANCH   1  32
ATOM     32  CB  LEU A   1       2.233   5.129  18.317  0.00  0.00    +0.000 C 
BRANCH  32  34
ATOM     33  CD1 LEU A   1       0.879   3.395  19.583  0.00  0.00    +0.000 C 
ATOM     34  CG  LEU A   1       2.186   3.689  18.852  0.00  0.00    +0.000 C 
ATOM     35  CD2 LEU A   1       2.362   2.704  17.688  0.00  0.00    +0.000 C 
ENDBRANCH  32  34
ENDBRANCH   1  32
TORSDOF 12
ENDMDL
MODEL 8
REMARK VINA RESULT:      -7.4      1.827      3.088
REMARK  Name = 
REMARK  16 active torsions:
REMARK  status: ('A' for Active; 'I' for Inactive)
REMARK    1  A    between atoms: CD1_1  and  CG_2
REMARK    2  A    between atoms: CG_2  and  CD2_3
REMARK    3  A    between atoms: CG_2  and  CB_4
REMARK    4  A    between atoms: CB_4  and  CA_5
REMARK    5  A    between atoms: CA_5  and  N_6
REMARK    6  A    between atoms: CA_5  and  C_20
REMARK    7  A    between atoms: C_7  and  O_9
REMARK    8  A    between atoms: O_9  and  C_10
REMARK    9  A    between atoms: C_10  and  C_11
REMARK   10  A    between atoms: C_11  and  C_12
REMARK   11  A    between atoms: C_11  and  C_13
REMARK   12  A    between atoms: C_11  and  C_14
REMARK   13  A    between atoms: N_22  and  C_23
REMARK   14  A    between atoms: C_23  and  C_24
REMARK   15  A    between atoms: C_23  and  C_26
REMARK   16  A    between atoms: C_26  and  C_27
REMARK                            x       y       z     vdW  Elec       q    Type
REMARK                         _______ _______ _______ _____ _____    ______ ____
ROOT
ATOM      1  CA  LEU A   1       2.342   4.947  18.248  0.00  0.00    +0.000 C 
ENDROOT
BRANCH   1   2
ATOM      2  N   LEU A   1       3.532   4.128  18.434  0.00  0.00    +0.000 N 
ATOM      3  C   UNK A   0       3.954   3.276  17.454  0.00  0.00    +0.000 C 
ATOM      4  O   UNK A   0       4.226   2.109  17.696  0.00  0.00    +0.000 OA
ATOM      5  H   LEU A   1       3.570   3.666  19.331  0.00  0.00    +0.000 HD
BRANCH   3   6
ATOM      6  O   UNK A   0       4.199   3.918  16.289  0.00  0.00    +0.000 OA
BRANCH   6   7
ATOM      7  C   UNK A   0       5.552   3.777  15.796  0.00  0.00    +0.000 C 
BRANCH   7   8
ATOM      8  C   UNK A   0       6.214   5.178  15.569  0.00  0.00    +0.000 C 
ATOM      9  C   UNK A   0       7.198   5.094  14.374  0.00  0.00    +0.000 C 
ATOM     10  C   UNK A   0       5.122   6.191  15.166  0.00  0.00    +0.000 C 
BRANCH   8  11
ATOM     11  C   UNK A   0       6.896   5.731  16.838  0.00  0.00    +0.000 A 
ATOM     12  C   UNK A   0       7.332   4.867  17.859  0.00  0.00    +0.000 A 
ATOM     13  C   UNK A   0       8.045   5.349  18.956  0.00  0.00    +0.000 A 
ATOM     14  C   UNK A   0       8.301   6.710  19.082  0.00  0.00    +0.000 A 
ATOM     15  C   UNK A   0       7.851   7.591  18.109  0.00  0.00    +0.000 A 
ATOM     16  C   UNK A   0       7.177   7.103  16.988  0.00  0.00    +0.000 A 
ENDBRANCH   8  11
ENDBRANCH   7   8
ENDBRANCH   6   7
ENDBRANCH   3   6
ENDBRANCH   1   2
BRANCH   1  17
ATOM     17  C   LEU A   1       2.717   6.410  18.567  0.00  0.00    +0.000 C 
ATOM     18  O   LEU A   1       3.827   6.741  18.990  0.00  0.00    +0.000 OA
ATOM     19  N   UNK A   2       1.709   7.340  18.366  0.00  0.00    +0.000 N 
ATOM     20  H   UNK A   2       0.878   7.054  17.860  0.00  0.00    +0.000 HD
BRANCH  19  21
ATOM     21  C   UNK A   2       1.904   8.723  18.796  0.00  0.00    +0.000 C 
BRANCH  21  22
ATOM     22  C   UNK A   2       1.370   8.877  20.227  0.00  0.00    +0.000 C 
ATOM     23  O   UNK A   2       1.360   7.980  21.071  0.00  0.00    +0.000 OA
ENDBRANCH  21  22
BRANCH  21  24
ATOM     24  C   UNK A   2       1.146   9.779  17.988  0.00  0.00    +0.000 C 
BRANCH  24  25
ATOM     25  C   UNK A   2      -0.091  10.404  18.613  0.00  0.00    +0.000 C 
ATOM     26  C   UNK A   2      -1.472  10.112  18.020  0.00  0.00    +0.000 C 
ATOM     27  C   UNK A   2      -1.924  11.406  17.365  0.00  0.00    +0.000 C 
ATOM     28  N   UNK A   2      -1.155  12.422  18.007  0.00  0.00    +0.000 N 
ATOM     29  C   UNK A   2       0.025  11.925  18.507  0.00  0.00    +0.000 C 
ATOM     30  O   UNK A   2       0.991  12.603  18.780  0.00  0.00    +0.000 OA
ATOM     31  H   UNK A   2      -1.176  13.403  17.749  0.00  0.00    +0.000 HD
ENDBRANCH  24  25
ENDBRANCH  21  24
ENDBRANCH  19  21
ENDBRANCH   1  17
BRANCH   1  32
ATOM     32  CB  LEU A   1       1.248   4.381  19.178  0.00  0.00    +0.000 C 
BRANCH  32  34
ATOM     33  CD1 LEU A   1       1.193   2.892  21.233  0.00  0.00    +0.000 C 
ATOM     34  CG  LEU A   1       1.503   2.973  19.741  0.00  0.00    +0.000 C 
ATOM     35  CD2 LEU A   1       0.648   1.954  18.977  0.00  0.00    +0.000 C 
ENDBRANCH  32  34
ENDBRANCH   1  32
TORSDOF 12
ENDMDL
MODEL 9
REMARK VINA RESULT:      -7.4      1.799      2.995
REMARK  Name = 
REMARK  16 active torsions:
REMARK  status: ('A' for Active; 'I' for Inactive)
REMARK    1  A    between atoms: CD1_1  and  CG_2
REMARK    2  A    between atoms: CG_2  and  CD2_3
REMARK    3  A    between atoms: CG_2  and  CB_4
REMARK    4  A    between atoms: CB_4  and  CA_5
REMARK    5  A    between atoms: CA_5  and  N_6
REMARK    6  A    between atoms: CA_5  and  C_20
REMARK    7  A    between atoms: C_7  and  O_9
REMARK    8  A    between atoms: O_9  and  C_10
REMARK    9  A    between atoms: C_10  and  C_11
REMARK   10  A    between atoms: C_11  and  C_12
REMARK   11  A    between atoms: C_11  and  C_13
REMARK   12  A    between atoms: C_11  and  C_14
REMARK   13  A    between atoms: N_22  and  C_23
REMARK   14  A    between atoms: C_23  and  C_24
REMARK   15  A    between atoms: C_23  and  C_26
REMARK   16  A    between atoms: C_26  and  C_27
REMARK                            x       y       z     vdW  Elec       q    Type
REMARK                         _______ _______ _______ _____ _____    ______ ____
ROOT
ATOM      1  CA  LEU A   1       2.535   5.503  17.788  0.00  0.00    +0.000 C 
ENDROOT
BRANCH   1   2
ATOM      2  N   LEU A   1       3.738   4.830  18.258  0.00  0.00    +0.000 N 
ATOM      3  C   UNK A   0       4.164   3.671  17.675  0.00  0.00    +0.000 C 
ATOM      4  O   UNK A   0       4.455   2.689  18.344  0.00  0.00    +0.000 OA
ATOM      5  H   LEU A   1       3.792   4.750  19.263  0.00  0.00    +0.000 HD
BRANCH   3   6
ATOM      6  O   UNK A   0       4.388   3.817  16.349  0.00  0.00    +0.000 OA
BRANCH   6   7
ATOM      7  C   UNK A   0       5.777   3.707  15.957  0.00  0.00    +0.000 C 
BRANCH   7   8
ATOM      8  C   UNK A   0       6.373   5.113  15.610  0.00  0.00    +0.000 C 
ATOM      9  C   UNK A   0       7.296   4.988  14.371  0.00  0.00    +0.000 C 
ATOM     10  C   UNK A   0       5.224   6.060  15.205  0.00  0.00    +0.000 C 
BRANCH   8  11
ATOM     11  C   UNK A   0       7.098   5.768  16.803  0.00  0.00    +0.000 A 
ATOM     12  C   UNK A   0       7.338   7.154  16.832  0.00  0.00    +0.000 A 
ATOM     13  C   UNK A   0       7.894   7.767  17.954  0.00  0.00    +0.000 A 
ATOM     14  C   UNK A   0       8.265   7.005  19.057  0.00  0.00    +0.000 A 
ATOM     15  C   UNK A   0       8.074   5.632  19.043  0.00  0.00    +0.000 A 
ATOM     16  C   UNK A   0       7.476   5.024  17.939  0.00  0.00    +0.000 A 
ENDBRANCH   8  11
ENDBRANCH   7   8
ENDBRANCH   6   7
ENDBRANCH   3   6
ENDBRANCH   1   2
BRANCH   1  17
ATOM     17  C   LEU A   1       2.673   7.005  18.111  0.00  0.00    +0.000 C 
ATOM     18  O   LEU A   1       3.674   7.665  17.822  0.00  0.00    +0.000 OA
ATOM     19  N   UNK A   2       1.596   7.572  18.774  0.00  0.00    +0.000 N 
ATOM     20  H   UNK A   2       0.732   7.045  18.839  0.00  0.00    +0.000 HD
BRANCH  19  21
ATOM     21  C   UNK A   2       1.693   8.941  19.275  0.00  0.00    +0.000 C 
BRANCH  21  22
ATOM     22  C   UNK A   2       0.893   9.051  20.581  0.00  0.00    +0.000 C 
ATOM     23  O   UNK A   2       1.382   9.299  21.683  0.00  0.00    +0.000 OA
ENDBRANCH  21  22
BRANCH  21  24
ATOM     24  C   UNK A   2       1.097  10.022  18.369  0.00  0.00    +0.000 C 
BRANCH  24  25
ATOM     25  C   UNK A   2      -0.251  10.610  18.752  0.00  0.00    +0.000 C 
ATOM     26  C   UNK A   2      -1.513  10.168  18.004  0.00  0.00    +0.000 C 
ATOM     27  C   UNK A   2      -1.939  11.363  17.168  0.00  0.00    +0.000 C 
ATOM     28  N   UNK A   2      -1.331  12.485  17.807  0.00  0.00    +0.000 N 
ATOM     29  C   UNK A   2      -0.209  12.120  18.513  0.00  0.00    +0.000 C 
ATOM     30  O   UNK A   2       0.666  12.886  18.848  0.00  0.00    +0.000 OA
ATOM     31  H   UNK A   2      -1.371  13.435  17.453  0.00  0.00    +0.000 HD
ENDBRANCH  24  25
ENDBRANCH  21  24
ENDBRANCH  19  21
ENDBRANCH   1  17
BRANCH   1  32
ATOM     32  CB  LEU A   1       1.335   4.834  18.493  0.00  0.00    +0.000 C 
BRANCH  32  34
ATOM     33  CD1 LEU A   1       1.370   4.014  20.895  0.00  0.00    +0.000 C 
ATOM     34  CG  LEU A   1       1.670   3.670  19.438  0.00  0.00    +0.000 C 
ATOM     35  CD2 LEU A   1       0.871   2.427  19.024  0.00  0.00    +0.000 C 
ENDBRANCH  32  34
ENDBRANCH   1  32
TORSDOF 12
ENDMDL
