MODEL 1
REMARK VINA RESULT:      -8.3      0.000      0.000
REMARK  Name = 
REMARK  4 active torsions:
REMARK  status: ('A' for Active; 'I' for Inactive)
REMARK    1  A    between atoms: C_2  and  O_3
REMARK    2  A    between atoms: C_2  and  C_4
REMARK    3  A    between atoms: N_6  and  C_7
REMARK    4  A    between atoms: C_7  and  C_8
REMARK                            x       y       z     vdW  Elec       q    Type
REMARK                         _______ _______ _______ _____ _____    ______ ____
ROOT
ATOM      1  C   UNL     1      -0.649  16.189  23.318  0.00  0.00    +0.000 A 
ATOM      2  C   UNL     1       0.080  16.093  22.196  0.00  0.00    +0.000 A 
ATOM      3  N   UNL     1       0.394  14.919  21.520  0.00  0.00    +0.000 N 
ATOM      4  C   UNL     1      -0.159  13.681  21.950  0.00  0.00    +0.000 A 
ATOM      5  N   UNL     1       0.098  12.522  21.281  0.00  0.00    +0.000 NA
ATOM      6  C   UNL     1      -0.503  11.371  21.670  0.00  0.00    +0.000 A 
ATOM      7  N   UNL     1      -0.213  10.191  21.021  0.00  0.00    +0.000 N 
ATOM      8  C   UNL     1       0.245  10.173  19.625  0.00  0.00    +0.000 C 
ATOM      9  C   UNL     1       1.603   9.448  19.456  0.00  0.00    +0.000 C 
ATOM     10  N   UNL     1       1.610   8.158  20.167  0.00  0.00    +0.000 N 
ATOM     11  C   UNL     1       2.013   6.966  19.653  0.00  0.00    +0.000 A 
ATOM     12  N   UNL     1       1.954   5.860  20.360  0.00  0.00    +0.000 NA
ATOM     13  C   UNL     1       2.281   4.750  19.607  0.00  0.00    +0.000 A 
ATOM     14  C   UNL     1       2.201   3.414  20.042  0.00  0.00    +0.000 A 
ATOM     15  C   UNL     1       2.499   2.377  19.155  0.00  0.00    +0.000 A 
ATOM     16  C   UNL     1       2.948   2.662  17.870  0.00  0.00    +0.000 A 
ATOM     17  C   UNL     1       3.080   3.986  17.430  0.00  0.00    +0.000 A 
ATOM     18  C   UNL     1       2.698   5.016  18.307  0.00  0.00    +0.000 A 
ATOM     19  S   UNL     1       2.615   6.720  18.049  0.00  0.00    +0.000 S 
ATOM     20  C   UNL     1       1.225   8.245  21.580  0.00  0.00    +0.000 C 
ATOM     21  C   UNL     1      -0.162   8.904  21.730  0.00  0.00    +0.000 C 
ATOM     22  C   UNL     1      -1.429  11.376  22.715  0.00  0.00    +0.000 A 
ATOM     23  C   UNL     1      -1.665  12.535  23.439  0.00  0.00    +0.000 A 
ATOM     24  C   UNL     1      -0.996  13.691  23.070  0.00  0.00    +0.000 A 
ATOM     25  C   UNL     1      -1.178  14.922  23.855  0.00  0.00    +0.000 A 
ATOM     26  O   UNL     1      -1.765  14.914  24.943  0.00  0.00    +0.000 OA
ENDROOT
BRANCH   1  28
ATOM     27  O   UNL     1       0.050  18.213  24.349  0.00  0.00    +0.000 OA
ATOM     28  C   UNL     1      -0.863  17.505  23.954  0.00  0.00    +0.000 C 
BRANCH  28  29
ATOM     29  O   UNL     1      -2.160  17.870  24.066  0.00  0.00    +0.000 OA
ATOM     30  H   UNL     1      -2.590  17.587  24.909  0.00  0.00    +0.000 HD
ENDBRANCH  28  29
ENDBRANCH   1  28
BRANCH   3  31
ATOM     31  C   UNL     1       1.330  14.862  20.395  0.00  0.00    +0.000 C 
BRANCH  31  32
ATOM     32  C   UNL     1       1.004  15.818  19.265  0.00  0.00    +0.000 A 
ATOM     33  C   UNL     1      -0.322  16.111  18.910  0.00  0.00    +0.000 A 
ATOM     34  C   UNL     1      -0.607  17.114  17.982  0.00  0.00    +0.000 A 
ATOM     35  C   UNL     1       0.427  17.837  17.394  0.00  0.00    +0.000 A 
ATOM     36  C   UNL     1       1.750  17.537  17.708  0.00  0.00    +0.000 A 
ATOM     37  C   UNL     1       2.037  16.531  18.634  0.00  0.00    +0.000 A 
ENDBRANCH  31  32
ENDBRANCH   3  31
TORSDOF 4
ENDMDL
MODEL 2
REMARK VINA RESULT:      -7.9      1.202      1.892
REMARK  Name = 
REMARK  4 active torsions:
REMARK  status: ('A' for Active; 'I' for Inactive)
REMARK    1  A    between atoms: C_2  and  O_3
REMARK    2  A    between atoms: C_2  and  C_4
REMARK    3  A    between atoms: N_6  and  C_7
REMARK    4  A    between atoms: C_7  and  C_8
REMARK                            x       y       z     vdW  Elec       q    Type
REMARK                         _______ _______ _______ _____ _____    ______ ____
ROOT
ATOM      1  C   UNL     1      -0.490  16.143  22.623  0.00  0.00    +0.000 A 
ATOM      2  C   UNL     1       0.143  15.976  21.452  0.00  0.00    +0.000 A 
ATOM      3  N   UNL     1       0.439  14.761  20.846  0.00  0.00    +0.000 N 
ATOM      4  C   UNL     1      -0.032  13.547  21.419  0.00  0.00    +0.000 A 
ATOM      5  N   UNL     1       0.208  12.344  20.823  0.00  0.00    +0.000 NA
ATOM      6  C   UNL     1      -0.318  11.212  21.352  0.00  0.00    +0.000 A 
ATOM      7  N   UNL     1      -0.043   9.993  20.776  0.00  0.00    +0.000 N 
ATOM      8  C   UNL     1       0.294   9.873  19.350  0.00  0.00    +0.000 C 
ATOM      9  C   UNL     1       1.658   9.175  19.121  0.00  0.00    +0.000 C 
ATOM     10  N   UNL     1       1.770   7.948  19.928  0.00  0.00    +0.000 N 
ATOM     11  C   UNL     1       2.169   6.730  19.476  0.00  0.00    +0.000 A 
ATOM     12  N   UNL     1       2.209   5.684  20.271  0.00  0.00    +0.000 NA
ATOM     13  C   UNL     1       2.509   4.525  19.581  0.00  0.00    +0.000 A 
ATOM     14  C   UNL     1       2.513   3.228  20.125  0.00  0.00    +0.000 A 
ATOM     15  C   UNL     1       2.770   2.130  19.301  0.00  0.00    +0.000 A 
ATOM     16  C   UNL     1       3.098   2.323  17.963  0.00  0.00    +0.000 A 
ATOM     17  C   UNL     1       3.146   3.610  17.410  0.00  0.00    +0.000 A 
ATOM     18  C   UNL     1       2.804   4.697  18.233  0.00  0.00    +0.000 A 
ATOM     19  S   UNL     1       2.641   6.371  17.850  0.00  0.00    +0.000 S 
ATOM     20  C   UNL     1       1.504   8.139  21.358  0.00  0.00    +0.000 C 
ATOM     21  C   UNL     1       0.113   8.769  21.577  0.00  0.00    +0.000 C 
ATOM     22  C   UNL     1      -1.151  11.277  22.471  0.00  0.00    +0.000 A 
ATOM     23  C   UNL     1      -1.365  12.484  23.120  0.00  0.00    +0.000 A 
ATOM     24  C   UNL     1      -0.770  13.624  22.604  0.00  0.00    +0.000 A 
ATOM     25  C   UNL     1      -0.927  14.910  23.302  0.00  0.00    +0.000 A 
ATOM     26  O   UNL     1      -1.418  14.974  24.434  0.00  0.00    +0.000 OA
ENDROOT
BRANCH   1  28
ATOM     27  O   UNL     1      -1.262  18.390  22.555  0.00  0.00    +0.000 OA
ATOM     28  C   UNL     1      -0.695  17.500  23.169  0.00  0.00    +0.000 C 
BRANCH  28  29
ATOM     29  O   UNL     1      -0.204  17.683  24.415  0.00  0.00    +0.000 OA
ATOM     30  H   UNL     1       0.745  17.428  24.519  0.00  0.00    +0.000 HD
ENDBRANCH  28  29
ENDBRANCH   1  28
BRANCH   3  31
ATOM     31  C   UNL     1       1.278  14.638  19.651  0.00  0.00    +0.000 C 
BRANCH  31  32
ATOM     32  C   UNL     1       2.686  15.172  19.821  0.00  0.00    +0.000 A 
ATOM     33  C   UNL     1       3.607  14.552  20.680  0.00  0.00    +0.000 A 
ATOM     34  C   UNL     1       4.944  14.954  20.703  0.00  0.00    +0.000 A 
ATOM     35  C   UNL     1       5.379  15.981  19.869  0.00  0.00    +0.000 A 
ATOM     36  C   UNL     1       4.472  16.630  19.037  0.00  0.00    +0.000 A 
ATOM     37  C   UNL     1       3.133  16.231  19.015  0.00  0.00    +0.000 A 
ENDBRANCH  31  32
ENDBRANCH   3  31
TORSDOF 4
ENDMDL
MODEL 3
REMARK VINA RESULT:      -7.7      0.779      1.047
REMARK  Name = 
REMARK  4 active torsions:
REMARK  status: ('A' for Active; 'I' for Inactive)
REMARK    1  A    between atoms: C_2  and  O_3
REMARK    2  A    between atoms: C_2  and  C_4
REMARK    3  A    between atoms: N_6  and  C_7
REMARK    4  A    between atoms: C_7  and  C_8
REMARK                            x       y       z     vdW  Elec       q    Type
REMARK                         _______ _______ _______ _____ _____    ______ ____
ROOT
ATOM      1  C   UNL     1      -1.444  16.181  23.864  0.00  0.00    +0.000 A 
ATOM      2  C   UNL     1      -0.655  16.200  22.779  0.00  0.00    +0.000 A 
ATOM      3  N   UNL     1      -0.235  15.092  22.051  0.00  0.00    +0.000 N 
ATOM      4  C   UNL     1      -0.732  13.799  22.374  0.00  0.00    +0.000 A 
ATOM      5  N   UNL     1      -0.369  12.702  21.651  0.00  0.00    +0.000 NA
ATOM      6  C   UNL     1      -0.918  11.495  21.935  0.00  0.00    +0.000 A 
ATOM      7  N   UNL     1      -0.523  10.379  21.233  0.00  0.00    +0.000 N 
ATOM      8  C   UNL     1       0.005  10.477  19.864  0.00  0.00    +0.000 C 
ATOM      9  C   UNL     1       1.413   9.845  19.726  0.00  0.00    +0.000 C 
ATOM     10  N   UNL     1       1.464   8.515  20.356  0.00  0.00    +0.000 N 
ATOM     11  C   UNL     1       1.965   7.384  19.792  0.00  0.00    +0.000 A 
ATOM     12  N   UNL     1       1.939   6.233  20.427  0.00  0.00    +0.000 NA
ATOM     13  C   UNL     1       2.372   5.195  19.626  0.00  0.00    +0.000 A 
ATOM     14  C   UNL     1       2.352   3.831  19.973  0.00  0.00    +0.000 A 
ATOM     15  C   UNL     1       2.758   2.872  19.043  0.00  0.00    +0.000 A 
ATOM     16  C   UNL     1       3.253   3.265  17.804  0.00  0.00    +0.000 A 
ATOM     17  C   UNL     1       3.325   4.620  17.453  0.00  0.00    +0.000 A 
ATOM     18  C   UNL     1       2.836   5.568  18.369  0.00  0.00    +0.000 A 
ATOM     19  S   UNL     1       2.662   7.277  18.212  0.00  0.00    +0.000 S 
ATOM     20  C   UNL     1       1.003   8.488  21.749  0.00  0.00    +0.000 C 
ATOM     21  C   UNL     1      -0.428   9.054  21.863  0.00  0.00    +0.000 C 
ATOM     22  C   UNL     1      -1.893  11.379  22.927  0.00  0.00    +0.000 A 
ATOM     23  C   UNL     1      -2.237  12.473  23.707  0.00  0.00    +0.000 A 
ATOM     24  C   UNL     1      -1.622  13.688  23.446  0.00  0.00    +0.000 A 
ATOM     25  C   UNL     1      -1.920  14.854  24.293  0.00  0.00    +0.000 A 
ATOM     26  O   UNL     1      -2.559  14.741  25.345  0.00  0.00    +0.000 OA
ENDROOT
BRANCH   1  28
ATOM     27  O   UNL     1      -1.039  17.948  25.400  0.00  0.00    +0.000 OA
ATOM     28  C   UNL     1      -1.770  17.438  24.566  0.00  0.00    +0.000 C 
BRANCH  28  29
ATOM     29  O   UNL     1      -2.953  17.989  24.211  0.00  0.00    +0.000 OA
ATOM     30  H   UNL     1      -3.687  17.338  24.102  0.00  0.00    +0.000 HD
ENDBRANCH  28  29
ENDBRANCH   1  28
BRANCH   3  31
ATOM     31  C   UNL     1       0.759  15.162  20.977  0.00  0.00    +0.000 C 
BRANCH  31  32
ATOM     32  C   UNL     1       0.515  16.273  19.975  0.00  0.00    +0.000 A 
ATOM     33  C   UNL     1       1.277  17.451  19.985  0.00  0.00    +0.000 A 
ATOM     34  C   UNL     1       1.153  18.391  18.959  0.00  0.00    +0.000 A 
ATOM     35  C   UNL     1       0.265  18.166  17.910  0.00  0.00    +0.000 A 
ATOM     36  C   UNL     1      -0.524  17.020  17.902  0.00  0.00    +0.000 A 
ATOM     37  C   UNL     1      -0.403  16.081  18.930  0.00  0.00    +0.000 A 
ENDBRANCH  31  32
ENDBRANCH   3  31
TORSDOF 4
ENDMDL
MODEL 4
REMARK VINA RESULT:      -7.5      3.160      4.865
REMARK  Name = 
REMARK  4 active torsions:
REMARK  status: ('A' for Active; 'I' for Inactive)
REMARK    1  A    between atoms: C_2  and  O_3
REMARK    2  A    between atoms: C_2  and  C_4
REMARK    3  A    between atoms: N_6  and  C_7
REMARK    4  A    between atoms: C_7  and  C_8
REMARK                            x       y       z     vdW  Elec       q    Type
REMARK                         _______ _______ _______ _____ _____    ______ ____
ROOT
ATOM      1  C   UNL     1      -3.279  16.768  20.504  0.00  0.00    +0.000 A 
ATOM      2  C   UNL     1      -3.576  15.645  21.174  0.00  0.00    +0.000 A 
ATOM      3  N   UNL     1      -2.849  14.460  21.151  0.00  0.00    +0.000 N 
ATOM      4  C   UNL     1      -1.613  14.396  20.449  0.00  0.00    +0.000 A 
ATOM      5  N   UNL     1      -0.860  13.260  20.445  0.00  0.00    +0.000 NA
ATOM      6  C   UNL     1       0.348  13.253  19.831  0.00  0.00    +0.000 A 
ATOM      7  N   UNL     1       1.092  12.096  19.790  0.00  0.00    +0.000 N 
ATOM      8  C   UNL     1       0.948  11.051  20.814  0.00  0.00    +0.000 C 
ATOM      9  C   UNL     1       0.592   9.671  20.208  0.00  0.00    +0.000 C 
ATOM     10  N   UNL     1       1.462   9.353  19.062  0.00  0.00    +0.000 N 
ATOM     11  C   UNL     1       2.125   8.183  18.866  0.00  0.00    +0.000 A 
ATOM     12  N   UNL     1       2.904   8.004  17.822  0.00  0.00    +0.000 NA
ATOM     13  C   UNL     1       3.583   6.804  17.887  0.00  0.00    +0.000 A 
ATOM     14  C   UNL     1       4.575   6.375  16.985  0.00  0.00    +0.000 A 
ATOM     15  C   UNL     1       5.234   5.163  17.203  0.00  0.00    +0.000 A 
ATOM     16  C   UNL     1       4.860   4.344  18.263  0.00  0.00    +0.000 A 
ATOM     17  C   UNL     1       3.843   4.729  19.148  0.00  0.00    +0.000 A 
ATOM     18  C   UNL     1       3.247   5.989  18.963  0.00  0.00    +0.000 A 
ATOM     19  S   UNL     1       2.074   6.814  19.922  0.00  0.00    +0.000 S 
ATOM     20  C   UNL     1       1.506  10.393  18.029  0.00  0.00    +0.000 C 
ATOM     21  C   UNL     1       1.930  11.748  18.633  0.00  0.00    +0.000 C 
ATOM     22  C   UNL     1       0.852  14.420  19.251  0.00  0.00    +0.000 A 
ATOM     23  C   UNL     1       0.079  15.571  19.202  0.00  0.00    +0.000 A 
ATOM     24  C   UNL     1      -1.181  15.544  19.779  0.00  0.00    +0.000 A 
ATOM     25  C   UNL     1      -2.049  16.729  19.691  0.00  0.00    +0.000 A 
ATOM     26  O   UNL     1      -1.767  17.684  18.959  0.00  0.00    +0.000 OA
ENDROOT
BRANCH   1  28
ATOM     27  O   UNL     1      -4.669  18.330  21.632  0.00  0.00    +0.000 OA
ATOM     28  C   UNL     1      -4.172  17.941  20.587  0.00  0.00    +0.000 C 
BRANCH  28  29
ATOM     29  O   UNL     1      -4.399  18.559  19.407  0.00  0.00    +0.000 OA
ATOM     30  H   UNL     1      -5.022  19.323  19.463  0.00  0.00    +0.000 HD
ENDBRANCH  28  29
ENDBRANCH   1  28
BRANCH   3  31
ATOM     31  C   UNL     1      -3.313  13.216  21.773  0.00  0.00    +0.000 C 
BRANCH  31  32
ATOM     32  C   UNL     1      -4.575  12.646  21.157  0.00  0.00    +0.000 A 
ATOM     33  C   UNL     1      -5.793  12.639  21.853  0.00  0.00    +0.000 A 
ATOM     34  C   UNL     1      -6.978  12.263  21.215  0.00  0.00    +0.000 A 
ATOM     35  C   UNL     1      -6.960  11.888  19.874  0.00  0.00    +0.000 A 
ATOM     36  C   UNL     1      -5.755  11.856  19.178  0.00  0.00    +0.000 A 
ATOM     37  C   UNL     1      -4.570  12.229  19.816  0.00  0.00    +0.000 A 
ENDBRANCH  31  32
ENDBRANCH   3  31
TORSDOF 4
ENDMDL
MODEL 5
REMARK VINA RESULT:      -7.5      1.125      1.641
REMARK  Name = 
REMARK  4 active torsions:
REMARK  status: ('A' for Active; 'I' for Inactive)
REMARK    1  A    between atoms: C_2  and  O_3
REMARK    2  A    between atoms: C_2  and  C_4
REMARK    3  A    between atoms: N_6  and  C_7
REMARK    4  A    between atoms: C_7  and  C_8
REMARK                            x       y       z     vdW  Elec       q    Type
REMARK                         _______ _______ _______ _____ _____    ______ ____
ROOT
ATOM      1  C   UNL     1      -1.746  16.217  22.458  0.00  0.00    +0.000 A 
ATOM      2  C   UNL     1      -1.166  16.088  21.256  0.00  0.00    +0.000 A 
ATOM      3  N   UNL     1      -0.722  14.901  20.683  0.00  0.00    +0.000 N 
ATOM      4  C   UNL     1      -0.964  13.662  21.337  0.00  0.00    +0.000 A 
ATOM      5  N   UNL     1      -0.577  12.480  20.778  0.00  0.00    +0.000 NA
ATOM      6  C   UNL     1      -0.888  11.310  21.389  0.00  0.00    +0.000 A 
ATOM      7  N   UNL     1      -0.462  10.119  20.847  0.00  0.00    +0.000 N 
ATOM      8  C   UNL     1      -0.197   9.978  19.408  0.00  0.00    +0.000 C 
ATOM      9  C   UNL     1       1.242   9.484  19.116  0.00  0.00    +0.000 C 
ATOM     10  N   UNL     1       1.592   8.333  19.965  0.00  0.00    +0.000 N 
ATOM     11  C   UNL     1       2.147   7.167  19.538  0.00  0.00    +0.000 A 
ATOM     12  N   UNL     1       2.397   6.182  20.372  0.00  0.00    +0.000 NA
ATOM     13  C   UNL     1       2.831   5.049  19.713  0.00  0.00    +0.000 A 
ATOM     14  C   UNL     1       3.069   3.797  20.310  0.00  0.00    +0.000 A 
ATOM     15  C   UNL     1       3.443   2.710  19.517  0.00  0.00    +0.000 A 
ATOM     16  C   UNL     1       3.656   2.880  18.153  0.00  0.00    +0.000 A 
ATOM     17  C   UNL     1       3.470   4.129  17.544  0.00  0.00    +0.000 A 
ATOM     18  C   UNL     1       3.014   5.192  18.342  0.00  0.00    +0.000 A 
ATOM     19  S   UNL     1       2.570   6.800  17.901  0.00  0.00    +0.000 S 
ATOM     20  C   UNL     1       1.386   8.555  21.400  0.00  0.00    +0.000 C 
ATOM     21  C   UNL     1      -0.070   8.976  21.686  0.00  0.00    +0.000 C 
ATOM     22  C   UNL     1      -1.652  11.306  22.557  0.00  0.00    +0.000 A 
ATOM     23  C   UNL     1      -2.010  12.498  23.168  0.00  0.00    +0.000 A 
ATOM     24  C   UNL     1      -1.632  13.688  22.565  0.00  0.00    +0.000 A 
ATOM     25  C   UNL     1      -1.944  14.969  23.217  0.00  0.00    +0.000 A 
ATOM     26  O   UNL     1      -2.370  15.016  24.377  0.00  0.00    +0.000 OA
ENDROOT
BRANCH   1  28
ATOM     27  O   UNL     1      -1.503  18.569  22.694  0.00  0.00    +0.000 OA
ATOM     28  C   UNL     1      -2.125  17.553  22.960  0.00  0.00    +0.000 C 
BRANCH  28  29
ATOM     29  O   UNL     1      -3.227  17.567  23.743  0.00  0.00    +0.000 OA
ATOM     30  H   UNL     1      -3.726  16.715  23.756  0.00  0.00    +0.000 HD
ENDBRANCH  28  29
ENDBRANCH   1  28
BRANCH   3  31
ATOM     31  C   UNL     1       0.051  14.846  19.440  0.00  0.00    +0.000 C 
BRANCH  31  32
ATOM     32  C   UNL     1       1.496  15.282  19.586  0.00  0.00    +0.000 A 
ATOM     33  C   UNL     1       2.442  14.480  20.243  0.00  0.00    +0.000 A 
ATOM     34  C   UNL     1       3.797  14.816  20.227  0.00  0.00    +0.000 A 
ATOM     35  C   UNL     1       4.225  15.959  19.555  0.00  0.00    +0.000 A 
ATOM     36  C   UNL     1       3.296  16.784  18.927  0.00  0.00    +0.000 A 
ATOM     37  C   UNL     1       1.940  16.450  18.946  0.00  0.00    +0.000 A 
ENDBRANCH  31  32
ENDBRANCH   3  31
TORSDOF 4
ENDMDL
MODEL 6
REMARK VINA RESULT:      -7.5      2.219      2.985
REMARK  Name = 
REMARK  4 active torsions:
REMARK  status: ('A' for Active; 'I' for Inactive)
REMARK    1  A    between atoms: C_2  and  O_3
REMARK    2  A    between atoms: C_2  and  C_4
REMARK    3  A    between atoms: N_6  and  C_7
REMARK    4  A    between atoms: C_7  and  C_8
REMARK                            x       y       z     vdW  Elec       q    Type
REMARK                         _______ _______ _______ _____ _____    ______ ____
ROOT
ATOM      1  C   UNL     1       0.661  16.503  20.645  0.00  0.00    +0.000 A 
ATOM      2  C   UNL     1       1.488  16.087  19.674  0.00  0.00    +0.000 A 
ATOM      3  N   UNL     1       1.700  14.768  19.287  0.00  0.00    +0.000 N 
ATOM      4  C   UNL     1       0.930  13.723  19.868  0.00  0.00    +0.000 A 
ATOM      5  N   UNL     1       1.088  12.427  19.477  0.00  0.00    +0.000 NA
ATOM      6  C   UNL     1       0.287  11.463  19.994  0.00  0.00    +0.000 A 
ATOM      7  N   UNL     1       0.473  10.148  19.632  0.00  0.00    +0.000 N 
ATOM      8  C   UNL     1       1.074   9.782  18.341  0.00  0.00    +0.000 C 
ATOM      9  C   UNL     1       2.323   8.881  18.504  0.00  0.00    +0.000 C 
ATOM     10  N   UNL     1       2.065   7.778  19.445  0.00  0.00    +0.000 N 
ATOM     11  C   UNL     1       2.345   6.465  19.231  0.00  0.00    +0.000 A 
ATOM     12  N   UNL     1       2.048   5.547  20.123  0.00  0.00    +0.000 NA
ATOM     13  C   UNL     1       2.292   4.273  19.650  0.00  0.00    +0.000 A 
ATOM     14  C   UNL     1       1.971   3.077  20.320  0.00  0.00    +0.000 A 
ATOM     15  C   UNL     1       2.211   1.849  19.700  0.00  0.00    +0.000 A 
ATOM     16  C   UNL     1       2.836   1.803  18.458  0.00  0.00    +0.000 A 
ATOM     17  C   UNL     1       3.206   2.979  17.793  0.00  0.00    +0.000 A 
ATOM     18  C   UNL     1       2.884   4.209  18.394  0.00  0.00    +0.000 A 
ATOM     19  S   UNL     1       3.078   5.818  17.803  0.00  0.00    +0.000 S 
ATOM     20  C   UNL     1       1.543   8.204  20.748  0.00  0.00    +0.000 C 
ATOM     21  C   UNL     1       0.258   9.041  20.576  0.00  0.00    +0.000 C 
ATOM     22  C   UNL     1      -0.738  11.799  20.881  0.00  0.00    +0.000 A 
ATOM     23  C   UNL     1      -0.881  13.103  21.329  0.00  0.00    +0.000 A 
ATOM     24  C   UNL     1      -0.015  14.068  20.839  0.00  0.00    +0.000 A 
ATOM     25  C   UNL     1      -0.101  15.449  21.338  0.00  0.00    +0.000 A 
ATOM     26  O   UNL     1      -0.800  15.739  22.316  0.00  0.00    +0.000 OA
ENDROOT
BRANCH   1  28
ATOM     27  O   UNL     1      -0.394  18.631  20.700  0.00  0.00    +0.000 OA
ATOM     28  C   UNL     1       0.572  17.938  20.979  0.00  0.00    +0.000 C 
BRANCH  28  29
ATOM     29  O   UNL     1       1.650  18.432  21.627  0.00  0.00    +0.000 OA
ATOM     30  H   UNL     1       1.445  18.841  22.503  0.00  0.00    +0.000 HD
ENDBRANCH  28  29
ENDBRANCH   1  28
BRANCH   3  31
ATOM     31  C   UNL     1       2.737  14.364  18.333  0.00  0.00    +0.000 C 
BRANCH  31  32
ATOM     32  C   UNL     1       4.144  14.752  18.743  0.00  0.00    +0.000 A 
ATOM     33  C   UNL     1       4.505  14.884  20.092  0.00  0.00    +0.000 A 
ATOM     34  C   UNL     1       5.839  15.078  20.458  0.00  0.00    +0.000 A 
ATOM     35  C   UNL     1       6.829  15.145  19.481  0.00  0.00    +0.000 A 
ATOM     36  C   UNL     1       6.484  15.051  18.136  0.00  0.00    +0.000 A 
ATOM     37  C   UNL     1       5.150  14.859  17.769  0.00  0.00    +0.000 A 
ENDBRANCH  31  32
ENDBRANCH   3  31
TORSDOF 4
ENDMDL
MODEL 7
REMARK VINA RESULT:      -7.5      2.978      4.896
REMARK  Name = 
REMARK  4 active torsions:
REMARK  status: ('A' for Active; 'I' for Inactive)
REMARK    1  A    between atoms: C_2  and  O_3
REMARK    2  A    between atoms: C_2  and  C_4
REMARK    3  A    between atoms: N_6  and  C_7
REMARK    4  A    between atoms: C_7  and  C_8
REMARK                            x       y       z     vdW  Elec       q    Type
REMARK                         _______ _______ _______ _____ _____    ______ ____
ROOT
ATOM      1  C   UNL     1      -2.855  16.702  20.449  0.00  0.00    +0.000 A 
ATOM      2  C   UNL     1      -3.180  15.595  21.133  0.00  0.00    +0.000 A 
ATOM      3  N   UNL     1      -2.495  14.385  21.110  0.00  0.00    +0.000 N 
ATOM      4  C   UNL     1      -1.274  14.273  20.389  0.00  0.00    +0.000 A 
ATOM      5  N   UNL     1      -0.561  13.111  20.383  0.00  0.00    +0.000 NA
ATOM      6  C   UNL     1       0.636  13.057  19.750  0.00  0.00    +0.000 A 
ATOM      7  N   UNL     1       1.338  11.874  19.708  0.00  0.00    +0.000 N 
ATOM      8  C   UNL     1       1.174  10.844  20.744  0.00  0.00    +0.000 C 
ATOM      9  C   UNL     1       0.761   9.472  20.155  0.00  0.00    +0.000 C 
ATOM     10  N   UNL     1       1.601   9.114  18.999  0.00  0.00    +0.000 N 
ATOM     11  C   UNL     1       2.220   7.920  18.803  0.00  0.00    +0.000 A 
ATOM     12  N   UNL     1       2.976   7.705  17.749  0.00  0.00    +0.000 NA
ATOM     13  C   UNL     1       3.613   6.482  17.814  0.00  0.00    +0.000 A 
ATOM     14  C   UNL     1       4.575   6.012  16.901  0.00  0.00    +0.000 A 
ATOM     15  C   UNL     1       5.195   4.779  17.119  0.00  0.00    +0.000 A 
ATOM     16  C   UNL     1       4.809   3.983  18.192  0.00  0.00    +0.000 A 
ATOM     17  C   UNL     1       3.821   4.410  19.089  0.00  0.00    +0.000 A 
ATOM     18  C   UNL     1       3.265   5.688  18.902  0.00  0.00    +0.000 A 
ATOM     19  S   UNL     1       2.138   6.562  19.872  0.00  0.00    +0.000 S 
ATOM     20  C   UNL     1       1.665  10.143  17.956  0.00  0.00    +0.000 C 
ATOM     21  C   UNL     1       2.146  11.487  18.542  0.00  0.00    +0.000 C 
ATOM     22  C   UNL     1       1.171  14.201  19.153  0.00  0.00    +0.000 A 
ATOM     23  C   UNL     1       0.438  15.377  19.105  0.00  0.00    +0.000 A 
ATOM     24  C   UNL     1      -0.812  15.400  19.703  0.00  0.00    +0.000 A 
ATOM     25  C   UNL     1      -1.640  16.613  19.618  0.00  0.00    +0.000 A 
ATOM     26  O   UNL     1      -1.336  17.552  18.873  0.00  0.00    +0.000 OA
ENDROOT
BRANCH   1  28
ATOM     27  O   UNL     1      -3.937  18.487  21.584  0.00  0.00    +0.000 OA
ATOM     28  C   UNL     1      -3.705  17.906  20.535  0.00  0.00    +0.000 C 
BRANCH  28  29
ATOM     29  O   UNL     1      -4.212  18.322  19.353  0.00  0.00    +0.000 OA
ATOM     30  H   UNL     1      -3.914  17.791  18.575  0.00  0.00    +0.000 HD
ENDBRANCH  28  29
ENDBRANCH   1  28
BRANCH   3  31
ATOM     31  C   UNL     1      -2.993  13.164  21.749  0.00  0.00    +0.000 C 
BRANCH  31  32
ATOM     32  C   UNL     1      -4.503  13.034  21.752  0.00  0.00    +0.000 A 
ATOM     33  C   UNL     1      -5.203  12.598  20.616  0.00  0.00    +0.000 A 
ATOM     34  C   UNL     1      -6.572  12.326  20.683  0.00  0.00    +0.000 A 
ATOM     35  C   UNL     1      -7.258  12.486  21.884  0.00  0.00    +0.000 A 
ATOM     36  C   UNL     1      -6.586  12.951  23.010  0.00  0.00    +0.000 A 
ATOM     37  C   UNL     1      -5.218  13.227  22.944  0.00  0.00    +0.000 A 
ENDBRANCH  31  32
ENDBRANCH   3  31
TORSDOF 4
ENDMDL
MODEL 8
REMARK VINA RESULT:      -7.4      1.851      2.524
REMARK  Name = 
REMARK  4 active torsions:
REMARK  status: ('A' for Active; 'I' for Inactive)
REMARK    1  A    between atoms: C_2  and  O_3
REMARK    2  A    between atoms: C_2  and  C_4
REMARK    3  A    between atoms: N_6  and  C_7
REMARK    4  A    between atoms: C_7  and  C_8
REMARK                            x       y       z     vdW  Elec       q    Type
REMARK                         _______ _______ _______ _____ _____    ______ ____
ROOT
ATOM      1  C   UNL     1       0.023  16.495  20.925  0.00  0.00    +0.000 A 
ATOM      2  C   UNL     1       0.874  16.147  19.948  0.00  0.00    +0.000 A 
ATOM      3  N   UNL     1       1.166  14.851  19.538  0.00  0.00    +0.000 N 
ATOM      4  C   UNL     1       0.458  13.752  20.099  0.00  0.00    +0.000 A 
ATOM      5  N   UNL     1       0.695  12.474  19.685  0.00  0.00    +0.000 NA
ATOM      6  C   UNL     1      -0.048  11.455  20.183  0.00  0.00    +0.000 A 
ATOM      7  N   UNL     1       0.216  10.160  19.797  0.00  0.00    +0.000 N 
ATOM      8  C   UNL     1       0.840   9.855  18.502  0.00  0.00    +0.000 C 
ATOM      9  C   UNL     1       2.140   9.027  18.651  0.00  0.00    +0.000 C 
ATOM     10  N   UNL     1       1.947   7.893  19.571  0.00  0.00    +0.000 N 
ATOM     11  C   UNL     1       2.305   6.603  19.334  0.00  0.00    +0.000 A 
ATOM     12  N   UNL     1       2.063   5.653  20.210  0.00  0.00    +0.000 NA
ATOM     13  C   UNL     1       2.383   4.404  19.714  0.00  0.00    +0.000 A 
ATOM     14  C   UNL     1       2.134   3.180  20.361  0.00  0.00    +0.000 A 
ATOM     15  C   UNL     1       2.447   1.980  19.720  0.00  0.00    +0.000 A 
ATOM     16  C   UNL     1       3.076   1.993  18.479  0.00  0.00    +0.000 A 
ATOM     17  C   UNL     1       3.375   3.202  17.836  0.00  0.00    +0.000 A 
ATOM     18  C   UNL     1       2.979   4.399  18.458  0.00  0.00    +0.000 A 
ATOM     19  S   UNL     1       3.077   6.027  17.897  0.00  0.00    +0.000 S 
ATOM     20  C   UNL     1       1.399   8.264  20.881  0.00  0.00    +0.000 C 
ATOM     21  C   UNL     1       0.067   9.026  20.721  0.00  0.00    +0.000 C 
ATOM     22  C   UNL     1      -1.092  11.713  21.074  0.00  0.00    +0.000 A 
ATOM     23  C   UNL     1      -1.314  12.998  21.544  0.00  0.00    +0.000 A 
ATOM     24  C   UNL     1      -0.506  14.021  21.074  0.00  0.00    +0.000 A 
ATOM     25  C   UNL     1      -0.676  15.386  21.598  0.00  0.00    +0.000 A 
ATOM     26  O   UNL     1      -1.391  15.616  22.579  0.00  0.00    +0.000 OA
ENDROOT
BRANCH   1  28
ATOM     27  O   UNL     1       0.765  18.631  21.656  0.00  0.00    +0.000 OA
ATOM     28  C   UNL     1      -0.152  17.917  21.285  0.00  0.00    +0.000 C 
BRANCH  28  29
ATOM     29  O   UNL     1      -1.420  18.373  21.170  0.00  0.00    +0.000 OA
ATOM     30  H   UNL     1      -1.602  18.855  20.327  0.00  0.00    +0.000 HD
ENDBRANCH  28  29
ENDBRANCH   1  28
BRANCH   3  31
ATOM     31  C   UNL     1       2.226  14.527  18.580  0.00  0.00    +0.000 C 
BRANCH  31  32
ATOM     32  C   UNL     1       3.589  15.075  18.952  0.00  0.00    +0.000 A 
ATOM     33  C   UNL     1       4.212  16.074  18.187  0.00  0.00    +0.000 A 
ATOM     34  C   UNL     1       5.388  16.683  18.631  0.00  0.00    +0.000 A 
ATOM     35  C   UNL     1       5.957  16.302  19.844  0.00  0.00    +0.000 A 
ATOM     36  C   UNL     1       5.372  15.289  20.597  0.00  0.00    +0.000 A 
ATOM     37  C   UNL     1       4.198  14.677  20.153  0.00  0.00    +0.000 A 
ENDBRANCH  31  32
ENDBRANCH   3  31
TORSDOF 4
ENDMDL
MODEL 9
REMARK VINA RESULT:      -7.3      1.430      2.038
REMARK  Name = 
REMARK  4 active torsions:
REMARK  status: ('A' for Active; 'I' for Inactive)
REMARK    1  A    between atoms: C_2  and  O_3
REMARK    2  A    between atoms: C_2  and  C_4
REMARK    3  A    between atoms: N_6  and  C_7
REMARK    4  A    between atoms: C_7  and  C_8
REMARK                            x       y       z     vdW  Elec       q    Type
REMARK                         _______ _______ _______ _____ _____    ______ ____
ROOT
ATOM      1  C   UNL     1      -1.528  16.480  21.467  0.00  0.00    +0.000 A 
ATOM      2  C   UNL     1      -0.793  16.244  20.370  0.00  0.00    +0.000 A 
ATOM      3  N   UNL     1      -0.352  15.001  19.931  0.00  0.00    +0.000 N 
ATOM      4  C   UNL     1      -0.765  13.820  20.608  0.00  0.00    +0.000 A 
ATOM      5  N   UNL     1      -0.380  12.586  20.174  0.00  0.00    +0.000 NA
ATOM      6  C   UNL     1      -0.851  11.476  20.793  0.00  0.00    +0.000 A 
ATOM      7  N   UNL     1      -0.433  10.230  20.383  0.00  0.00    +0.000 N 
ATOM      8  C   UNL     1       0.025   9.986  19.007  0.00  0.00    +0.000 C 
ATOM      9  C   UNL     1       1.455   9.394  18.955  0.00  0.00    +0.000 C 
ATOM     10  N   UNL     1       1.604   8.278  19.905  0.00  0.00    +0.000 N 
ATOM     11  C   UNL     1       2.137   7.059  19.626  0.00  0.00    +0.000 A 
ATOM     12  N   UNL     1       2.200   6.114  20.538  0.00  0.00    +0.000 NA
ATOM     13  C   UNL     1       2.648   4.919  20.010  0.00  0.00    +0.000 A 
ATOM     14  C   UNL     1       2.716   3.695  20.700  0.00  0.00    +0.000 A 
ATOM     15  C   UNL     1       3.126   2.542  20.028  0.00  0.00    +0.000 A 
ATOM     16  C   UNL     1       3.542   2.615  18.703  0.00  0.00    +0.000 A 
ATOM     17  C   UNL     1       3.527   3.832  18.009  0.00  0.00    +0.000 A 
ATOM     18  C   UNL     1       3.033   4.968  18.675  0.00  0.00    +0.000 A 
ATOM     19  S   UNL     1       2.763   6.568  18.090  0.00  0.00    +0.000 S 
ATOM     20  C   UNL     1       1.212   8.600  21.282  0.00  0.00    +0.000 C 
ATOM     21  C   UNL     1      -0.239   9.121  21.329  0.00  0.00    +0.000 C 
ATOM     22  C   UNL     1      -1.772  11.587  21.837  0.00  0.00    +0.000 A 
ATOM     23  C   UNL     1      -2.135  12.834  22.325  0.00  0.00    +0.000 A 
ATOM     24  C   UNL     1      -1.597  13.960  21.722  0.00  0.00    +0.000 A 
ATOM     25  C   UNL     1      -1.914  15.295  22.253  0.00  0.00    +0.000 A 
ATOM     26  O   UNL     1      -2.497  15.438  23.334  0.00  0.00    +0.000 OA
ENDROOT
BRANCH   1  28
ATOM     27  O   UNL     1      -2.464  18.630  21.082  0.00  0.00    +0.000 OA
ATOM     28  C   UNL     1      -1.887  17.864  21.837  0.00  0.00    +0.000 C 
BRANCH  28  29
ATOM     29  O   UNL     1      -1.525  18.222  23.089  0.00  0.00    +0.000 OA
ATOM     30  H   UNL     1      -1.022  19.071  23.139  0.00  0.00    +0.000 HD
ENDBRANCH  28  29
ENDBRANCH   1  28
BRANCH   3  31
ATOM     31  C   UNL     1       0.586  14.824  18.819  0.00  0.00    +0.000 C 
BRANCH  31  32
ATOM     32  C   UNL     1       2.025  15.158  19.159  0.00  0.00    +0.000 A 
ATOM     33  C   UNL     1       2.584  16.405  18.840  0.00  0.00    +0.000 A 
ATOM     34  C   UNL     1       3.854  16.757  19.304  0.00  0.00    +0.000 A 
ATOM     35  C   UNL     1       4.581  15.868  20.091  0.00  0.00    +0.000 A 
ATOM     36  C   UNL     1       4.056  14.614  20.387  0.00  0.00    +0.000 A 
ATOM     37  C   UNL     1       2.788  14.259  19.922  0.00  0.00    +0.000 A 
ENDBRANCH  31  32
ENDBRANCH   3  31
TORSDOF 4
ENDMDL
