MODEL 1
REMARK VINA RESULT:      -7.7      0.000      0.000
REMARK  Name = 
REMARK  9 active torsions:
REMARK  status: ('A' for Active; 'I' for Inactive)
REMARK    1  A    between atoms: C_1  and  C_2
REMARK    2  A    between atoms: N_4  and  CA_5
REMARK    3  A    between atoms: CA_5  and  C_13
REMARK    4  A    between atoms: CB_6  and  CG_7
REMARK    5  A    between atoms: N_15  and  CA_16
REMARK    6  A    between atoms: CA_16  and  CB_17
REMARK    7  A    between atoms: CA_16  and  C_24
REMARK    8  A    between atoms: CB_17  and  CG_18
REMARK    9  A    between atoms: C_24  and  OXT_26
REMARK                            x       y       z     vdW  Elec       q    Type
REMARK                         _______ _______ _______ _____ _____    ______ ____
ROOT
ATOM      1  C   PHE A   1       4.277   6.102  18.761  0.00  0.00    +0.000 C 
ATOM      2  O   PHE A   1       4.382   5.614  19.877  0.00  0.00    +0.000 OA
ATOM      3  N   PHE A   2       5.360   6.286  17.930  0.00  0.00    +0.000 N 
ATOM      4  H   PHE A   2       5.278   6.920  17.142  0.00  0.00    +0.000 HD
ENDROOT
BRANCH   1   5
ATOM      5  CA  PHE A   1       2.952   6.512  18.123  0.00  0.00    +0.000 C 
ATOM      6  CB  PHE A   1       1.974   5.617  17.882  0.00  0.00    +0.000 C 
BRANCH   6   7
ATOM      7  CG  PHE A   1       1.880   4.187  18.173  0.00  0.00    +0.000 A 
ATOM      8  CD1 PHE A   1       2.567   3.272  17.367  0.00  0.00    +0.000 A 
ATOM      9  CE1 PHE A   1       2.640   1.927  17.737  0.00  0.00    +0.000 A 
ATOM     10  CZ  PHE A   1       2.029   1.491  18.912  0.00  0.00    +0.000 A 
ATOM     11  CE2 PHE A   1       1.341   2.399  19.717  0.00  0.00    +0.000 A 
ATOM     12  CD2 PHE A   1       1.267   3.745  19.350  0.00  0.00    +0.000 A 
ENDBRANCH   6   7
BRANCH   5  16
ATOM     13  C   UNK A   0       2.269  10.205  17.795  0.00  0.00    +0.000 C 
ATOM     14  C   UNK A   0       2.125   8.855  18.450  0.00  0.00    +0.000 C 
ATOM     15  O   UNK A   0       1.450   8.735  19.465  0.00  0.00    +0.000 OA
ATOM     16  N   PHE A   1       2.840   7.864  17.795  0.00  0.00    +0.000 N 
ATOM     17  H   PHE A   1       3.314   8.141  16.942  0.00  0.00    +0.000 HD
ENDBRANCH   5  16
ENDBRANCH   1   5
BRANCH   3  18
ATOM     18  CA  PHE A   2       6.744   5.925  18.294  0.00  0.00    +0.000 C 
BRANCH  18  19
ATOM     19  C   PHE A   2       7.611   7.166  18.016  0.00  0.00    +0.000 C 
ATOM     20  O   PHE A   2       7.432   7.901  17.050  0.00  0.00    +0.000 OA
BRANCH  19  21
ATOM     21  OXT PHE A   2       8.585   7.402  18.925  0.00  0.00    +0.000 OA
ATOM     22  HXT PHE A   2       8.463   6.969  19.790  0.00  0.00    +0.000 HD
ENDBRANCH  19  21
ENDBRANCH  18  19
BRANCH  18  23
ATOM     23  CB  PHE A   2       7.273   4.676  17.551  0.00  0.00    +0.000 C 
BRANCH  23  24
ATOM     24  CG  PHE A   2       6.754   4.557  16.134  0.00  0.00    +0.000 A 
ATOM     25  CD1 PHE A   2       5.580   3.846  15.850  0.00  0.00    +0.000 A 
ATOM     26  CE1 PHE A   2       5.207   3.603  14.528  0.00  0.00    +0.000 A 
ATOM     27  CZ  PHE A   2       5.995   4.078  13.481  0.00  0.00    +0.000 A 
ATOM     28  CE2 PHE A   2       7.130   4.840  13.754  0.00  0.00    +0.000 A 
ATOM     29  CD2 PHE A   2       7.500   5.089  15.075  0.00  0.00    +0.000 A 
ENDBRANCH  23  24
ENDBRANCH  18  23
ENDBRANCH   3  18
TORSDOF 8
ENDMDL
MODEL 2
REMARK VINA RESULT:      -7.4      1.820      6.187
REMARK  Name = 
REMARK  9 active torsions:
REMARK  status: ('A' for Active; 'I' for Inactive)
REMARK    1  A    between atoms: C_1  and  C_2
REMARK    2  A    between atoms: N_4  and  CA_5
REMARK    3  A    between atoms: CA_5  and  C_13
REMARK    4  A    between atoms: CB_6  and  CG_7
REMARK    5  A    between atoms: N_15  and  CA_16
REMARK    6  A    between atoms: CA_16  and  CB_17
REMARK    7  A    between atoms: CA_16  and  C_24
REMARK    8  A    between atoms: CB_17  and  CG_18
REMARK    9  A    between atoms: C_24  and  OXT_26
REMARK                            x       y       z     vdW  Elec       q    Type
REMARK                         _______ _______ _______ _____ _____    ______ ____
ROOT
ATOM      1  C   PHE A   1       5.369   6.069  16.545  0.00  0.00    +0.000 C 
ATOM      2  O   PHE A   1       4.975   6.977  15.827  0.00  0.00    +0.000 OA
ATOM      3  N   PHE A   2       4.534   5.394  17.407  0.00  0.00    +0.000 N 
ATOM      4  H   PHE A   2       4.938   4.844  18.159  0.00  0.00    +0.000 HD
ENDROOT
BRANCH   1   5
ATOM      5  CA  PHE A   1       6.797   5.528  16.541  0.00  0.00    +0.000 C 
ATOM      6  CB  PHE A   1       7.293   4.843  15.493  0.00  0.00    +0.000 C 
BRANCH   6   7
ATOM      7  CG  PHE A   1       6.710   4.507  14.195  0.00  0.00    +0.000 A 
ATOM      8  CD1 PHE A   1       7.478   4.653  13.034  0.00  0.00    +0.000 A 
ATOM      9  CE1 PHE A   1       7.007   4.166  11.813  0.00  0.00    +0.000 A 
ATOM     10  CZ  PHE A   1       5.768   3.530  11.746  0.00  0.00    +0.000 A 
ATOM     11  CE2 PHE A   1       4.998   3.384  12.900  0.00  0.00    +0.000 A 
ATOM     12  CD2 PHE A   1       5.467   3.870  14.122  0.00  0.00    +0.000 A 
ENDBRANCH   6   7
BRANCH   5  16
ATOM     13  C   UNK A   0       8.330   5.796  19.974  0.00  0.00    +0.000 C 
ATOM     14  C   UNK A   0       7.294   5.321  18.988  0.00  0.00    +0.000 C 
ATOM     15  O   UNK A   0       6.383   4.591  19.361  0.00  0.00    +0.000 OA
ATOM     16  N   PHE A   1       7.532   5.777  17.701  0.00  0.00    +0.000 N 
ATOM     17  H   PHE A   1       8.318   6.409  17.586  0.00  0.00    +0.000 HD
ENDBRANCH   5  16
ENDBRANCH   1   5
BRANCH   3  18
ATOM     18  CA  PHE A   2       3.097   5.695  17.561  0.00  0.00    +0.000 C 
BRANCH  18  19
ATOM     19  C   PHE A   2       2.954   6.513  18.856  0.00  0.00    +0.000 C 
ATOM     20  O   PHE A   2       2.086   7.367  19.014  0.00  0.00    +0.000 OA
BRANCH  19  21
ATOM     21  OXT PHE A   2       3.849   6.216  19.827  0.00  0.00    +0.000 OA
ATOM     22  HXT PHE A   2       3.613   6.522  20.721  0.00  0.00    +0.000 HD
ENDBRANCH  19  21
ENDBRANCH  18  19
BRANCH  18  23
ATOM     23  CB  PHE A   2       2.200   4.434  17.576  0.00  0.00    +0.000 C 
BRANCH  23  24
ATOM     24  CG  PHE A   2       2.198   3.717  18.909  0.00  0.00    +0.000 A 
ATOM     25  CD1 PHE A   2       1.143   3.882  19.819  0.00  0.00    +0.000 A 
ATOM     26  CE1 PHE A   2       1.235   3.351  21.106  0.00  0.00    +0.000 A 
ATOM     27  CZ  PHE A   2       2.372   2.643  21.490  0.00  0.00    +0.000 A 
ATOM     28  CE2 PHE A   2       3.397   2.420  20.573  0.00  0.00    +0.000 A 
ATOM     29  CD2 PHE A   2       3.304   2.944  19.284  0.00  0.00    +0.000 A 
ENDBRANCH  23  24
ENDBRANCH  18  23
ENDBRANCH   3  18
TORSDOF 8
ENDMDL
MODEL 3
REMARK VINA RESULT:      -7.4      1.862      6.137
REMARK  Name = 
REMARK  9 active torsions:
REMARK  status: ('A' for Active; 'I' for Inactive)
REMARK    1  A    between atoms: C_1  and  C_2
REMARK    2  A    between atoms: N_4  and  CA_5
REMARK    3  A    between atoms: CA_5  and  C_13
REMARK    4  A    between atoms: CB_6  and  CG_7
REMARK    5  A    between atoms: N_15  and  CA_16
REMARK    6  A    between atoms: CA_16  and  CB_17
REMARK    7  A    between atoms: CA_16  and  C_24
REMARK    8  A    between atoms: CB_17  and  CG_18
REMARK    9  A    between atoms: C_24  and  OXT_26
REMARK                            x       y       z     vdW  Elec       q    Type
REMARK                         _______ _______ _______ _____ _____    ______ ____
ROOT
ATOM      1  C   PHE A   1       4.256   5.751  17.930  0.00  0.00    +0.000 C 
ATOM      2  O   PHE A   1       5.154   6.291  18.559  0.00  0.00    +0.000 OA
ATOM      3  N   PHE A   2       2.986   6.277  17.856  0.00  0.00    +0.000 N 
ATOM      4  H   PHE A   2       2.220   5.683  17.556  0.00  0.00    +0.000 HD
ENDROOT
BRANCH   1   5
ATOM      5  CA  PHE A   1       4.430   4.477  17.105  0.00  0.00    +0.000 C 
ATOM      6  CB  PHE A   1       3.894   3.304  17.493  0.00  0.00    +0.000 C 
BRANCH   6   7
ATOM      7  CG  PHE A   1       3.050   2.957  18.635  0.00  0.00    +0.000 A 
ATOM      8  CD1 PHE A   1       3.617   2.872  19.912  0.00  0.00    +0.000 A 
ATOM      9  CE1 PHE A   1       2.800   2.726  21.035  0.00  0.00    +0.000 A 
ATOM     10  CZ  PHE A   1       1.415   2.665  20.889  0.00  0.00    +0.000 A 
ATOM     11  CE2 PHE A   1       0.845   2.746  19.618  0.00  0.00    +0.000 A 
ATOM     12  CD2 PHE A   1       1.660   2.893  18.493  0.00  0.00    +0.000 A 
ENDBRANCH   6   7
BRANCH   5  16
ATOM     13  C   UNK A   0       7.023   4.778  14.386  0.00  0.00    +0.000 C 
ATOM     14  C   UNK A   0       6.573   4.620  15.816  0.00  0.00    +0.000 C 
ATOM     15  O   UNK A   0       7.403   4.490  16.709  0.00  0.00    +0.000 OA
ATOM     16  N   PHE A   1       5.193   4.617  15.946  0.00  0.00    +0.000 N 
ATOM     17  H   PHE A   1       4.662   4.778  15.096  0.00  0.00    +0.000 HD
ENDBRANCH   5  16
ENDBRANCH   1   5
BRANCH   3  18
ATOM     18  CA  PHE A   2       2.576   7.528  18.525  0.00  0.00    +0.000 C 
BRANCH  18  19
ATOM     19  C   PHE A   2       2.098   7.137  19.935  0.00  0.00    +0.000 C 
ATOM     20  O   PHE A   2       1.753   5.997  20.230  0.00  0.00    +0.000 OA
BRANCH  19  21
ATOM     21  OXT PHE A   2       2.096   8.143  20.841  0.00  0.00    +0.000 OA
ATOM     22  HXT PHE A   2       1.217   8.497  21.070  0.00  0.00    +0.000 HD
ENDBRANCH  19  21
ENDBRANCH  18  19
BRANCH  18  23
ATOM     23  CB  PHE A   2       1.495   8.318  17.750  0.00  0.00    +0.000 C 
BRANCH  23  24
ATOM     24  CG  PHE A   2       1.308   9.731  18.258  0.00  0.00    +0.000 A 
ATOM     25  CD1 PHE A   2       0.096  10.141  18.833  0.00  0.00    +0.000 A 
ATOM     26  CE1 PHE A   2      -0.119  11.484  19.140  0.00  0.00    +0.000 A 
ATOM     27  CZ  PHE A   2       0.876  12.426  18.888  0.00  0.00    +0.000 A 
ATOM     28  CE2 PHE A   2       2.107  12.020  18.375  0.00  0.00    +0.000 A 
ATOM     29  CD2 PHE A   2       2.326  10.676  18.074  0.00  0.00    +0.000 A 
ENDBRANCH  23  24
ENDBRANCH  18  23
ENDBRANCH   3  18
TORSDOF 8
ENDMDL
MODEL 4
REMARK VINA RESULT:      -7.3      1.824      6.187
REMARK  Name = 
REMARK  9 active torsions:
REMARK  status: ('A' for Active; 'I' for Inactive)
REMARK    1  A    between atoms: C_1  and  C_2
REMARK    2  A    between atoms: N_4  and  CA_5
REMARK    3  A    between atoms: CA_5  and  C_13
REMARK    4  A    between atoms: CB_6  and  CG_7
REMARK    5  A    between atoms: N_15  and  CA_16
REMARK    6  A    between atoms: CA_16  and  CB_17
REMARK    7  A    between atoms: CA_16  and  C_24
REMARK    8  A    between atoms: CB_17  and  CG_18
REMARK    9  A    between atoms: C_24  and  OXT_26
REMARK                            x       y       z     vdW  Elec       q    Type
REMARK                         _______ _______ _______ _____ _____    ______ ____
ROOT
ATOM      1  C   PHE A   1       4.231   5.865  17.837  0.00  0.00    +0.000 C 
ATOM      2  O   PHE A   1       5.141   6.475  18.380  0.00  0.00    +0.000 OA
ATOM      3  N   PHE A   2       2.936   6.332  17.819  0.00  0.00    +0.000 N 
ATOM      4  H   PHE A   2       2.181   5.690  17.599  0.00  0.00    +0.000 HD
ENDROOT
BRANCH   1   5
ATOM      5  CA  PHE A   1       4.411   4.559  17.067  0.00  0.00    +0.000 C 
ATOM      6  CB  PHE A   1       3.888   3.398  17.507  0.00  0.00    +0.000 C 
BRANCH   6   7
ATOM      7  CG  PHE A   1       3.054   3.093  18.668  0.00  0.00    +0.000 A 
ATOM      8  CD1 PHE A   1       3.658   2.819  19.900  0.00  0.00    +0.000 A 
ATOM      9  CE1 PHE A   1       2.881   2.709  21.055  0.00  0.00    +0.000 A 
ATOM     10  CZ  PHE A   1       1.499   2.874  20.985  0.00  0.00    +0.000 A 
ATOM     11  CE2 PHE A   1       0.891   3.145  19.759  0.00  0.00    +0.000 A 
ATOM     12  CD2 PHE A   1       1.666   3.256  18.603  0.00  0.00    +0.000 A 
ENDBRANCH   6   7
BRANCH   5  16
ATOM     13  C   UNK A   0       6.986   4.738  14.319  0.00  0.00    +0.000 C 
ATOM     14  C   UNK A   0       6.546   4.620  15.756  0.00  0.00    +0.000 C 
ATOM     15  O   UNK A   0       7.380   4.486  16.644  0.00  0.00    +0.000 OA
ATOM     16  N   PHE A   1       5.167   4.656  15.898  0.00  0.00    +0.000 N 
ATOM     17  H   PHE A   1       4.633   4.813  15.050  0.00  0.00    +0.000 HD
ENDBRANCH   5  16
ENDBRANCH   1   5
BRANCH   3  18
ATOM     18  CA  PHE A   2       2.511   7.597  18.450  0.00  0.00    +0.000 C 
BRANCH  18  19
ATOM     19  C   PHE A   2       2.195   7.271  19.921  0.00  0.00    +0.000 C 
ATOM     20  O   PHE A   2       1.450   7.960  20.612  0.00  0.00    +0.000 OA
BRANCH  19  21
ATOM     21  OXT PHE A   2       2.788   6.153  20.402  0.00  0.00    +0.000 OA
ATOM     22  HXT PHE A   2       3.113   5.530  19.728  0.00  0.00    +0.000 HD
ENDBRANCH  19  21
ENDBRANCH  18  19
BRANCH  18  23
ATOM     23  CB  PHE A   2       1.312   8.270  17.741  0.00  0.00    +0.000 C 
BRANCH  23  24
ATOM     24  CG  PHE A   2       1.181   9.744  18.057  0.00  0.00    +0.000 A 
ATOM     25  CD1 PHE A   2       2.283  10.606  17.964  0.00  0.00    +0.000 A 
ATOM     26  CE1 PHE A   2       2.188  11.922  18.418  0.00  0.00    +0.000 A 
ATOM     27  CZ  PHE A   2       0.991  12.390  18.956  0.00  0.00    +0.000 A 
ATOM     28  CE2 PHE A   2      -0.128  11.560  18.995  0.00  0.00    +0.000 A 
ATOM     29  CD2 PHE A   2      -0.037  10.247  18.534  0.00  0.00    +0.000 A 
ENDBRANCH  23  24
ENDBRANCH  18  23
ENDBRANCH   3  18
TORSDOF 8
ENDMDL
MODEL 5
REMARK VINA RESULT:      -7.1      2.133      6.568
REMARK  Name = 
REMARK  9 active torsions:
REMARK  status: ('A' for Active; 'I' for Inactive)
REMARK    1  A    between atoms: C_1  and  C_2
REMARK    2  A    between atoms: N_4  and  CA_5
REMARK    3  A    between atoms: CA_5  and  C_13
REMARK    4  A    between atoms: CB_6  and  CG_7
REMARK    5  A    between atoms: N_15  and  CA_16
REMARK    6  A    between atoms: CA_16  and  CB_17
REMARK    7  A    between atoms: CA_16  and  C_24
REMARK    8  A    between atoms: CB_17  and  CG_18
REMARK    9  A    between atoms: C_24  and  OXT_26
REMARK                            x       y       z     vdW  Elec       q    Type
REMARK                         _______ _______ _______ _____ _____    ______ ____
ROOT
ATOM      1  C   PHE A   1       4.415   4.489  16.393  0.00  0.00    +0.000 C 
ATOM      2  O   PHE A   1       3.862   3.488  16.825  0.00  0.00    +0.000 OA
ATOM      3  N   PHE A   2       4.150   5.748  16.882  0.00  0.00    +0.000 N 
ATOM      4  H   PHE A   2       4.421   6.560  16.335  0.00  0.00    +0.000 HD
ENDROOT
BRANCH   1   5
ATOM      5  CA  PHE A   1       5.498   4.476  15.316  0.00  0.00    +0.000 C 
ATOM      6  CB  PHE A   1       6.724   4.989  15.538  0.00  0.00    +0.000 C 
BRANCH   6   7
ATOM      7  CG  PHE A   1       7.323   5.579  16.734  0.00  0.00    +0.000 A 
ATOM      8  CD1 PHE A   1       7.444   6.969  16.831  0.00  0.00    +0.000 A 
ATOM      9  CE1 PHE A   1       7.840   7.558  18.034  0.00  0.00    +0.000 A 
ATOM     10  CZ  PHE A   1       8.115   6.761  19.144  0.00  0.00    +0.000 A 
ATOM     11  CE2 PHE A   1       7.999   5.374  19.052  0.00  0.00    +0.000 A 
ATOM     12  CD2 PHE A   1       7.602   4.783  17.850  0.00  0.00    +0.000 A 
ENDBRANCH   6   7
BRANCH   5  16
ATOM     13  C   UNK A   0       5.101   3.123  11.821  0.00  0.00    +0.000 C 
ATOM     14  C   UNK A   0       5.860   3.808  12.929  0.00  0.00    +0.000 C 
ATOM     15  O   UNK A   0       7.014   4.176  12.745  0.00  0.00    +0.000 OA
ATOM     16  N   PHE A   1       5.118   3.918  14.095  0.00  0.00    +0.000 N 
ATOM     17  H   PHE A   1       4.159   3.590  14.050  0.00  0.00    +0.000 HD
ENDBRANCH   5  16
ENDBRANCH   1   5
BRANCH   3  18
ATOM     18  CA  PHE A   2       3.179   6.022  17.959  0.00  0.00    +0.000 C 
BRANCH  18  19
ATOM     19  C   PHE A   2       2.903   7.536  17.930  0.00  0.00    +0.000 C 
ATOM     20  O   PHE A   2       3.248   8.259  17.000  0.00  0.00    +0.000 OA
BRANCH  19  21
ATOM     21  OXT PHE A   2       2.235   8.020  19.003  0.00  0.00    +0.000 OA
ATOM     22  HXT PHE A   2       1.720   7.362  19.506  0.00  0.00    +0.000 HD
ENDBRANCH  19  21
ENDBRANCH  18  19
BRANCH  18  23
ATOM     23  CB  PHE A   2       3.654   5.552  19.355  0.00  0.00    +0.000 C 
BRANCH  23  24
ATOM     24  CG  PHE A   2       2.687   4.602  20.027  0.00  0.00    +0.000 A 
ATOM     25  CD1 PHE A   2       2.945   4.090  21.307  0.00  0.00    +0.000 A 
ATOM     26  CE1 PHE A   2       2.134   3.090  21.842  0.00  0.00    +0.000 A 
ATOM     27  CZ  PHE A   2       1.053   2.601  21.111  0.00  0.00    +0.000 A 
ATOM     28  CE2 PHE A   2       0.752   3.147  19.864  0.00  0.00    +0.000 A 
ATOM     29  CD2 PHE A   2       1.557   4.152  19.331  0.00  0.00    +0.000 A 
ENDBRANCH  23  24
ENDBRANCH  18  23
ENDBRANCH   3  18
TORSDOF 8
ENDMDL
MODEL 6
REMARK VINA RESULT:      -7.1      1.643      6.331
REMARK  Name = 
REMARK  9 active torsions:
REMARK  status: ('A' for Active; 'I' for Inactive)
REMARK    1  A    between atoms: C_1  and  C_2
REMARK    2  A    between atoms: N_4  and  CA_5
REMARK    3  A    between atoms: CA_5  and  C_13
REMARK    4  A    between atoms: CB_6  and  CG_7
REMARK    5  A    between atoms: N_15  and  CA_16
REMARK    6  A    between atoms: CA_16  and  CB_17
REMARK    7  A    between atoms: CA_16  and  C_24
REMARK    8  A    between atoms: CB_17  and  CG_18
REMARK    9  A    between atoms: C_24  and  OXT_26
REMARK                            x       y       z     vdW  Elec       q    Type
REMARK                         _______ _______ _______ _____ _____    ______ ____
ROOT
ATOM      1  C   PHE A   1       5.227   5.740  16.943  0.00  0.00    +0.000 C 
ATOM      2  O   PHE A   1       5.074   6.770  16.303  0.00  0.00    +0.000 OA
ATOM      3  N   PHE A   2       4.182   5.097  17.567  0.00  0.00    +0.000 N 
ATOM      4  H   PHE A   2       4.382   4.412  18.290  0.00  0.00    +0.000 HD
ENDROOT
BRANCH   1   5
ATOM      5  CA  PHE A   1       6.558   5.006  17.086  0.00  0.00    +0.000 C 
ATOM      6  CB  PHE A   1       7.175   4.444  16.028  0.00  0.00    +0.000 C 
BRANCH   6   7
ATOM      7  CG  PHE A   1       6.830   4.423  14.607  0.00  0.00    +0.000 A 
ATOM      8  CD1 PHE A   1       7.655   5.079  13.687  0.00  0.00    +0.000 A 
ATOM      9  CE1 PHE A   1       7.446   4.916  12.315  0.00  0.00    +0.000 A 
ATOM     10  CZ  PHE A   1       6.416   4.096  11.858  0.00  0.00    +0.000 A 
ATOM     11  CE2 PHE A   1       5.590   3.441  12.772  0.00  0.00    +0.000 A 
ATOM     12  CD2 PHE A   1       5.796   3.603  14.144  0.00  0.00    +0.000 A 
ENDBRANCH   6   7
BRANCH   5  16
ATOM     13  C   UNK A   0       8.175   5.461  20.460  0.00  0.00    +0.000 C 
ATOM     14  C   UNK A   0       7.827   5.889  19.057  0.00  0.00    +0.000 C 
ATOM     15  O   UNK A   0       8.193   6.983  18.641  0.00  0.00    +0.000 OA
ATOM     16  N   PHE A   1       7.069   4.944  18.383  0.00  0.00    +0.000 N 
ATOM     17  H   PHE A   1       6.893   4.075  18.875  0.00  0.00    +0.000 HD
ENDBRANCH   5  16
ENDBRANCH   1   5
BRANCH   3  18
ATOM     18  CA  PHE A   2       2.787   5.578  17.537  0.00  0.00    +0.000 C 
BRANCH  18  19
ATOM     19  C   PHE A   2       2.686   6.703  18.582  0.00  0.00    +0.000 C 
ATOM     20  O   PHE A   2       2.761   6.501  19.791  0.00  0.00    +0.000 OA
BRANCH  19  21
ATOM     21  OXT PHE A   2       2.522   7.947  18.074  0.00  0.00    +0.000 OA
ATOM     22  HXT PHE A   2       1.612   8.173  17.810  0.00  0.00    +0.000 HD
ENDBRANCH  19  21
ENDBRANCH  18  19
BRANCH  18  23
ATOM     23  CB  PHE A   2       1.742   4.465  17.790  0.00  0.00    +0.000 C 
BRANCH  23  24
ATOM     24  CG  PHE A   2       1.980   3.702  19.076  0.00  0.00    +0.000 A 
ATOM     25  CD1 PHE A   2       1.023   3.695  20.101  0.00  0.00    +0.000 A 
ATOM     26  CE1 PHE A   2       1.325   3.131  21.341  0.00  0.00    +0.000 A 
ATOM     27  CZ  PHE A   2       2.576   2.560  21.563  0.00  0.00    +0.000 A 
ATOM     28  CE2 PHE A   2       3.511   2.506  20.530  0.00  0.00    +0.000 A 
ATOM     29  CD2 PHE A   2       3.208   3.063  19.288  0.00  0.00    +0.000 A 
ENDBRANCH  23  24
ENDBRANCH  18  23
ENDBRANCH   3  18
TORSDOF 8
ENDMDL
MODEL 7
REMARK VINA RESULT:      -7.0      2.129      6.664
REMARK  Name = 
REMARK  9 active torsions:
REMARK  status: ('A' for Active; 'I' for Inactive)
REMARK    1  A    between atoms: C_1  and  C_2
REMARK    2  A    between atoms: N_4  and  CA_5
REMARK    3  A    between atoms: CA_5  and  C_13
REMARK    4  A    between atoms: CB_6  and  CG_7
REMARK    5  A    between atoms: N_15  and  CA_16
REMARK    6  A    between atoms: CA_16  and  CB_17
REMARK    7  A    between atoms: CA_16  and  C_24
REMARK    8  A    between atoms: CB_17  and  CG_18
REMARK    9  A    between atoms: C_24  and  OXT_26
REMARK                            x       y       z     vdW  Elec       q    Type
REMARK                         _______ _______ _______ _____ _____    ______ ____
ROOT
ATOM      1  C   PHE A   1       4.443   4.664  16.551  0.00  0.00    +0.000 C 
ATOM      2  O   PHE A   1       3.893   3.640  16.928  0.00  0.00    +0.000 OA
ATOM      3  N   PHE A   2       4.110   5.906  17.043  0.00  0.00    +0.000 N 
ATOM      4  H   PHE A   2       4.392   6.735  16.529  0.00  0.00    +0.000 HD
ENDROOT
BRANCH   1   5
ATOM      5  CA  PHE A   1       5.593   4.703  15.546  0.00  0.00    +0.000 C 
ATOM      6  CB  PHE A   1       6.745   5.349  15.812  0.00  0.00    +0.000 C 
BRANCH   6   7
ATOM      7  CG  PHE A   1       7.200   6.062  17.004  0.00  0.00    +0.000 A 
ATOM      8  CD1 PHE A   1       7.538   5.340  18.154  0.00  0.00    +0.000 A 
ATOM      9  CE1 PHE A   1       8.147   5.982  19.234  0.00  0.00    +0.000 A 
ATOM     10  CZ  PHE A   1       8.424   7.347  19.169  0.00  0.00    +0.000 A 
ATOM     11  CE2 PHE A   1       8.087   8.072  18.026  0.00  0.00    +0.000 A 
ATOM     12  CD2 PHE A   1       7.478   7.432  16.944  0.00  0.00    +0.000 A 
ENDBRANCH   6   7
BRANCH   5  16
ATOM     13  C   UNK A   0       5.549   3.166  12.105  0.00  0.00    +0.000 C 
ATOM     14  C   UNK A   0       6.145   4.009  13.203  0.00  0.00    +0.000 C 
ATOM     15  O   UNK A   0       7.230   4.554  13.037  0.00  0.00    +0.000 OA
ATOM     16  N   PHE A   1       5.353   4.042  14.341  0.00  0.00    +0.000 N 
ATOM     17  H   PHE A   1       4.463   3.560  14.282  0.00  0.00    +0.000 HD
ENDBRANCH   5  16
ENDBRANCH   1   5
BRANCH   3  18
ATOM     18  CA  PHE A   2       3.064   6.133  18.060  0.00  0.00    +0.000 C 
BRANCH  18  19
ATOM     19  C   PHE A   2       2.711   7.629  18.003  0.00  0.00    +0.000 C 
ATOM     20  O   PHE A   2       2.076   8.199  18.886  0.00  0.00    +0.000 OA
BRANCH  19  21
ATOM     21  OXT PHE A   2       3.165   8.286  16.910  0.00  0.00    +0.000 OA
ATOM     22  HXT PHE A   2       4.129   8.426  16.878  0.00  0.00    +0.000 HD
ENDBRANCH  19  21
ENDBRANCH  18  19
BRANCH  18  23
ATOM     23  CB  PHE A   2       3.481   5.694  19.484  0.00  0.00    +0.000 C 
BRANCH  23  24
ATOM     24  CG  PHE A   2       2.560   4.654  20.083  0.00  0.00    +0.000 A 
ATOM     25  CD1 PHE A   2       2.769   4.161  21.380  0.00  0.00    +0.000 A 
ATOM     26  CE1 PHE A   2       2.018   3.085  21.854  0.00  0.00    +0.000 A 
ATOM     27  CZ  PHE A   2       1.045   2.502  21.044  0.00  0.00    +0.000 A 
ATOM     28  CE2 PHE A   2       0.787   3.025  19.778  0.00  0.00    +0.000 A 
ATOM     29  CD2 PHE A   2       1.533   4.105  19.305  0.00  0.00    +0.000 A 
ENDBRANCH  23  24
ENDBRANCH  18  23
ENDBRANCH   3  18
TORSDOF 8
ENDMDL
MODEL 8
REMARK VINA RESULT:      -6.9      2.026      4.390
REMARK  Name = 
REMARK  9 active torsions:
REMARK  status: ('A' for Active; 'I' for Inactive)
REMARK    1  A    between atoms: C_1  and  C_2
REMARK    2  A    between atoms: N_4  and  CA_5
REMARK    3  A    between atoms: CA_5  and  C_13
REMARK    4  A    between atoms: CB_6  and  CG_7
REMARK    5  A    between atoms: N_15  and  CA_16
REMARK    6  A    between atoms: CA_16  and  CB_17
REMARK    7  A    between atoms: CA_16  and  C_24
REMARK    8  A    between atoms: CB_17  and  CG_18
REMARK    9  A    between atoms: C_24  and  OXT_26
REMARK                            x       y       z     vdW  Elec       q    Type
REMARK                         _______ _______ _______ _____ _____    ______ ____
ROOT
ATOM      1  C   PHE A   1       3.436   4.955  19.167  0.00  0.00    +0.000 C 
ATOM      2  O   PHE A   1       3.119   4.431  18.109  0.00  0.00    +0.000 OA
ATOM      3  N   PHE A   2       4.712   5.410  19.413  0.00  0.00    +0.000 N 
ATOM      4  H   PHE A   2       4.999   5.591  20.370  0.00  0.00    +0.000 HD
ENDROOT
BRANCH   1   5
ATOM      5  CA  PHE A   1       2.468   5.228  20.316  0.00  0.00    +0.000 C 
ATOM      6  CB  PHE A   1       1.880   6.429  20.477  0.00  0.00    +0.000 C 
BRANCH   6   7
ATOM      7  CG  PHE A   1       1.940   7.650  19.675  0.00  0.00    +0.000 A 
ATOM      8  CD1 PHE A   1       2.396   7.587  18.354  0.00  0.00    +0.000 A 
ATOM      9  CE1 PHE A   1       2.287   8.701  17.518  0.00  0.00    +0.000 A 
ATOM     10  CZ  PHE A   1       1.720   9.880  17.998  0.00  0.00    +0.000 A 
ATOM     11  CE2 PHE A   1       1.265   9.949  19.315  0.00  0.00    +0.000 A 
ATOM     12  CD2 PHE A   1       1.373   8.837  20.152  0.00  0.00    +0.000 A 
ENDBRANCH   6   7
BRANCH   5  16
ATOM     13  C   UNK A   0       1.461   2.120  22.195  0.00  0.00    +0.000 C 
ATOM     14  C   UNK A   0       1.385   3.089  21.043  0.00  0.00    +0.000 C 
ATOM     15  O   UNK A   0       0.624   2.871  20.108  0.00  0.00    +0.000 OA
ATOM     16  N   PHE A   1       2.257   4.157  21.185  0.00  0.00    +0.000 N 
ATOM     17  H   PHE A   1       2.786   4.193  22.050  0.00  0.00    +0.000 HD
ENDBRANCH   5  16
ENDBRANCH   1   5
BRANCH   3  18
ATOM     18  CA  PHE A   2       5.820   5.309  18.443  0.00  0.00    +0.000 C 
BRANCH  18  19
ATOM     19  C   PHE A   2       7.089   5.786  19.171  0.00  0.00    +0.000 C 
ATOM     20  O   PHE A   2       7.443   5.338  20.258  0.00  0.00    +0.000 OA
BRANCH  19  21
ATOM     21  OXT PHE A   2       7.805   6.732  18.519  0.00  0.00    +0.000 OA
ATOM     22  HXT PHE A   2       8.769   6.589  18.503  0.00  0.00    +0.000 HD
ENDBRANCH  19  21
ENDBRANCH  18  19
BRANCH  18  23
ATOM     23  CB  PHE A   2       5.575   6.103  17.137  0.00  0.00    +0.000 C 
BRANCH  23  24
ATOM     24  CG  PHE A   2       5.941   5.331  15.889  0.00  0.00    +0.000 A 
ATOM     25  CD1 PHE A   2       7.168   5.539  15.242  0.00  0.00    +0.000 A 
ATOM     26  CE1 PHE A   2       7.421   4.947  14.004  0.00  0.00    +0.000 A 
ATOM     27  CZ  PHE A   2       6.458   4.134  13.409  0.00  0.00    +0.000 A 
ATOM     28  CE2 PHE A   2       5.261   3.871  14.073  0.00  0.00    +0.000 A 
ATOM     29  CD2 PHE A   2       5.010   4.457  15.314  0.00  0.00    +0.000 A 
ENDBRANCH  23  24
ENDBRANCH  18  23
ENDBRANCH   3  18
TORSDOF 8
ENDMDL
MODEL 9
REMARK VINA RESULT:      -6.9      1.824      2.222
REMARK  Name = 
REMARK  9 active torsions:
REMARK  status: ('A' for Active; 'I' for Inactive)
REMARK    1  A    between atoms: C_1  and  C_2
REMARK    2  A    between atoms: N_4  and  CA_5
REMARK    3  A    between atoms: CA_5  and  C_13
REMARK    4  A    between atoms: CB_6  and  CG_7
REMARK    5  A    between atoms: N_15  and  CA_16
REMARK    6  A    between atoms: CA_16  and  CB_17
REMARK    7  A    between atoms: CA_16  and  C_24
REMARK    8  A    between atoms: CB_17  and  CG_18
REMARK    9  A    between atoms: C_24  and  OXT_26
REMARK                            x       y       z     vdW  Elec       q    Type
REMARK                         _______ _______ _______ _____ _____    ______ ____
ROOT
ATOM      1  C   PHE A   1       3.463   5.677  17.840  0.00  0.00    +0.000 C 
ATOM      2  O   PHE A   1       2.874   4.798  17.228  0.00  0.00    +0.000 OA
ATOM      3  N   PHE A   2       4.816   5.890  17.708  0.00  0.00    +0.000 N 
ATOM      4  H   PHE A   2       5.303   6.437  18.410  0.00  0.00    +0.000 HD
ENDROOT
BRANCH   1   5
ATOM      5  CA  PHE A   1       2.783   6.679  18.770  0.00  0.00    +0.000 C 
ATOM      6  CB  PHE A   1       2.064   6.281  19.838  0.00  0.00    +0.000 C 
BRANCH   6   7
ATOM      7  CG  PHE A   1       1.803   4.951  20.386  0.00  0.00    +0.000 A 
ATOM      8  CD1 PHE A   1       0.840   4.133  19.784  0.00  0.00    +0.000 A 
ATOM      9  CE1 PHE A   1       0.708   2.799  20.175  0.00  0.00    +0.000 A 
ATOM     10  CZ  PHE A   1       1.537   2.276  21.165  0.00  0.00    +0.000 A 
ATOM     11  CE2 PHE A   1       2.497   3.087  21.769  0.00  0.00    +0.000 A 
ATOM     12  CD2 PHE A   1       2.632   4.422  21.381  0.00  0.00    +0.000 A 
ENDBRANCH   6   7
BRANCH   5  16
ATOM     13  C   UNK A   0       2.553  10.290  17.712  0.00  0.00    +0.000 C 
ATOM     14  C   UNK A   0       1.989   8.915  17.965  0.00  0.00    +0.000 C 
ATOM     15  O   UNK A   0       0.796   8.699  17.784  0.00  0.00    +0.000 OA
ATOM     16  N   PHE A   1       2.945   8.021  18.422  0.00  0.00    +0.000 N 
ATOM     17  H   PHE A   1       3.896   8.369  18.475  0.00  0.00    +0.000 HD
ENDBRANCH   5  16
ENDBRANCH   1   5
BRANCH   3  18
ATOM     18  CA  PHE A   2       5.691   5.087  16.831  0.00  0.00    +0.000 C 
BRANCH  18  19
ATOM     19  C   PHE A   2       6.793   4.497  17.728  0.00  0.00    +0.000 C 
ATOM     20  O   PHE A   2       7.962   4.395  17.370  0.00  0.00    +0.000 OA
BRANCH  19  21
ATOM     21  OXT PHE A   2       6.385   4.107  18.959  0.00  0.00    +0.000 OA
ATOM     22  HXT PHE A   2       7.079   3.726  19.528  0.00  0.00    +0.000 HD
ENDBRANCH  19  21
ENDBRANCH  18  19
BRANCH  18  23
ATOM     23  CB  PHE A   2       6.283   5.888  15.646  0.00  0.00    +0.000 C 
BRANCH  23  24
ATOM     24  CG  PHE A   2       6.302   5.110  14.348  0.00  0.00    +0.000 A 
ATOM     25  CD1 PHE A   2       5.286   4.195  14.036  0.00  0.00    +0.000 A 
ATOM     26  CE1 PHE A   2       5.403   3.366  12.921  0.00  0.00    +0.000 A 
ATOM     27  CZ  PHE A   2       6.529   3.450  12.103  0.00  0.00    +0.000 A 
ATOM     28  CE2 PHE A   2       7.515   4.399  12.370  0.00  0.00    +0.000 A 
ATOM     29  CD2 PHE A   2       7.395   5.234  13.480  0.00  0.00    +0.000 A 
ENDBRANCH  23  24
ENDBRANCH  18  23
ENDBRANCH   3  18
TORSDOF 8
ENDMDL
