MODEL 1
REMARK VINA RESULT:      -8.0      0.000      0.000
REMARK  Name = 
REMARK  8 active torsions:
REMARK  status: ('A' for Active; 'I' for Inactive)
REMARK    1  A    between atoms: C_1  and  C_2
REMARK    2  A    between atoms: C_2  and  N_3
REMARK    3  A    between atoms: C_2  and  C_29
REMARK    4  A    between atoms: N_3  and  C_4
REMARK    5  A    between atoms: C_7  and  N_8
REMARK    6  A    between atoms: C_10  and  C_11
REMARK    7  A    between atoms: N_15  and  C_16
REMARK    8  A    between atoms: C_25  and  C_26
REMARK                            x       y       z     vdW  Elec       q    Type
REMARK                         _______ _______ _______ _____ _____    ______ ____
ROOT
ATOM      1  N   UNL     1       2.173   7.221  19.876  0.00  0.00    +0.000 N 
ATOM      2  C   UNL     1       1.500   6.318  20.634  0.00  0.00    +0.000 A 
ATOM      3  C   UNL     1       2.228   5.141  20.554  0.00  0.00    +0.000 A 
ATOM      4  C   UNL     1       3.323   5.450  19.693  0.00  0.00    +0.000 A 
ATOM      5  N   UNL     1       4.265   4.551  19.305  0.00  0.00    +0.000 N 
ATOM      6  N   UNL     1       3.265   6.724  19.296  0.00  0.00    +0.000 NA
ATOM      7  H   UNL     1       4.304   3.673  19.822  0.00  0.00    +0.000 HD
ENDROOT
BRANCH   5   8
ATOM      8  C   UNL     1       5.035   4.532  18.117  0.00  0.00    +0.000 A 
ATOM      9  C   UNL     1       6.419   4.758  18.185  0.00  0.00    +0.000 A 
ATOM     10  C   UNL     1       7.214   4.751  17.029  0.00  0.00    +0.000 A 
ATOM     11  C   UNL     1       6.630   4.534  15.783  0.00  0.00    +0.000 A 
ATOM     12 CL   UNL     1       7.610   4.508  14.369  0.00  0.00    +0.000 Cl
ATOM     13  C   UNL     1       5.259   4.336  15.698  0.00  0.00    +0.000 A 
ATOM     14  F   UNL     1       4.665   4.129  14.514  0.00  0.00    +0.000 F 
ATOM     15  C   UNL     1       4.472   4.339  16.847  0.00  0.00    +0.000 A 
ENDBRANCH   5   8
BRANCH   1  19
ATOM     16  C   UNL     1      -0.225  10.594  18.729  0.00  0.00    +0.000 C 
ATOM     17  C   UNL     1       0.918  10.160  17.797  0.00  0.00    +0.000 C 
ATOM     18  C   UNL     1       1.355   8.735  18.120  0.00  0.00    +0.000 C 
ATOM     19  C   UNL     1       1.790   8.599  19.588  0.00  0.00    +0.000 C 
ATOM     20  C   UNL     1       0.684   9.074  20.548  0.00  0.00    +0.000 C 
ATOM     21  C   UNL     1       0.216  10.492  20.194  0.00  0.00    +0.000 C 
BRANCH  16  22
ATOM     22  N   UNL     1      -0.670  11.937  18.347  0.00  0.00    +0.000 NA
ATOM     23  H   UNL     1      -0.353  12.619  19.037  0.00  0.00    +0.000 HD
BRANCH  22  25
ATOM     24  C   UNL     1      -2.532  11.165  17.001  0.00  0.00    +0.000 C 
ATOM     25  C   UNL     1      -2.118  12.110  18.135  0.00  0.00    +0.000 C 
BRANCH  25  26
ATOM     26  C   UNL     1      -2.888  11.894  19.422  0.00  0.00    +0.000 C 
ATOM     27  C   UNL     1      -2.840  12.915  20.532  0.00  0.00    +0.000 C 
ATOM     28  C   UNL     1      -4.132  12.658  19.807  0.00  0.00    +0.000 C 
ENDBRANCH  25  26
ENDBRANCH  22  25
ENDBRANCH  16  22
BRANCH  20  29
ATOM     29  C   UNL     1       1.178   9.063  21.940  0.00  0.00    +0.000 C 
ATOM     30  N   UNL     1       1.596   9.087  23.023  0.00  0.00    +0.000 NA
ENDBRANCH  20  29
ENDBRANCH   1  19
BRANCH   3  31
ATOM     31  C   UNL     1       1.910   3.881  21.190  0.00  0.00    +0.000 C 
ATOM     32  N   UNL     1       0.782   3.261  20.726  0.00  0.00    +0.000 N 
ATOM     33  O   UNL     1       2.609   3.370  22.057  0.00  0.00    +0.000 OA
ATOM     34  H   UNL     1       0.386   3.518  19.832  0.00  0.00    +0.000 HD
ATOM     35  H   UNL     1       0.604   2.326  21.065  0.00  0.00    +0.000 HD
ENDBRANCH   3  31
TORSDOF 7
ENDMDL
MODEL 2
REMARK VINA RESULT:      -7.9      1.212      1.650
REMARK  Name = 
REMARK  8 active torsions:
REMARK  status: ('A' for Active; 'I' for Inactive)
REMARK    1  A    between atoms: C_1  and  C_2
REMARK    2  A    between atoms: C_2  and  N_3
REMARK    3  A    between atoms: C_2  and  C_29
REMARK    4  A    between atoms: N_3  and  C_4
REMARK    5  A    between atoms: C_7  and  N_8
REMARK    6  A    between atoms: C_10  and  C_11
REMARK    7  A    between atoms: N_15  and  C_16
REMARK    8  A    between atoms: C_25  and  C_26
REMARK                            x       y       z     vdW  Elec       q    Type
REMARK                         _______ _______ _______ _____ _____    ______ ____
ROOT
ATOM      1  N   UNL     1       1.880   7.428  19.943  0.00  0.00    +0.000 N 
ATOM      2  C   UNL     1       1.228   6.474  20.655  0.00  0.00    +0.000 A 
ATOM      3  C   UNL     1       1.996   5.326  20.540  0.00  0.00    +0.000 A 
ATOM      4  C   UNL     1       3.091   5.705  19.706  0.00  0.00    +0.000 A 
ATOM      5  N   UNL     1       4.068   4.853  19.296  0.00  0.00    +0.000 N 
ATOM      6  N   UNL     1       2.994   6.991  19.359  0.00  0.00    +0.000 NA
ATOM      7  H   UNL     1       4.129   3.958  19.779  0.00  0.00    +0.000 HD
ENDROOT
BRANCH   5   8
ATOM      8  C   UNL     1       4.852   4.907  18.119  0.00  0.00    +0.000 A 
ATOM      9  C   UNL     1       4.560   4.041  17.052  0.00  0.00    +0.000 A 
ATOM     10  C   UNL     1       5.317   4.063  15.871  0.00  0.00    +0.000 A 
ATOM     11  C   UNL     1       6.390   4.941  15.748  0.00  0.00    +0.000 A 
ATOM     12 CL   UNL     1       7.306   4.978  14.292  0.00  0.00    +0.000 Cl
ATOM     13  C   UNL     1       6.708   5.783  16.804  0.00  0.00    +0.000 A 
ATOM     14  F   UNL     1       7.739   6.638  16.720  0.00  0.00    +0.000 F 
ATOM     15  C   UNL     1       5.953   5.764  17.974  0.00  0.00    +0.000 A 
ENDBRANCH   5   8
BRANCH   1  19
ATOM     16  C   UNL     1      -0.667  10.783  19.103  0.00  0.00    +0.000 C 
ATOM     17  C   UNL     1       0.352  10.355  18.035  0.00  0.00    +0.000 C 
ATOM     18  C   UNL     1       0.836   8.933  18.302  0.00  0.00    +0.000 C 
ATOM     19  C   UNL     1       1.454   8.803  19.703  0.00  0.00    +0.000 C 
ATOM     20  C   UNL     1       0.475   9.273  20.794  0.00  0.00    +0.000 C 
ATOM     21  C   UNL     1      -0.044  10.687  20.501  0.00  0.00    +0.000 C 
BRANCH  16  22
ATOM     22  N   UNL     1      -1.166  12.122  18.778  0.00  0.00    +0.000 NA
ATOM     23  H   UNL     1      -0.839  12.401  17.852  0.00  0.00    +0.000 HD
BRANCH  22  25
ATOM     24  C   UNL     1      -0.056  14.268  18.983  0.00  0.00    +0.000 C 
ATOM     25  C   UNL     1      -0.843  13.191  19.740  0.00  0.00    +0.000 C 
BRANCH  25  26
ATOM     26  C   UNL     1      -2.094  13.712  20.418  0.00  0.00    +0.000 C 
ATOM     27  C   UNL     1      -3.182  12.766  20.862  0.00  0.00    +0.000 C 
ATOM     28  C   UNL     1      -2.399  13.539  21.886  0.00  0.00    +0.000 C 
ENDBRANCH  25  26
ENDBRANCH  22  25
ENDBRANCH  16  22
BRANCH  20  29
ATOM     29  C   UNL     1       1.141   9.268  22.113  0.00  0.00    +0.000 C 
ATOM     30  N   UNL     1       1.628   9.239  23.166  0.00  0.00    +0.000 NA
ENDBRANCH  20  29
ENDBRANCH   1  19
BRANCH   3  31
ATOM     31  C   UNL     1       1.713   4.032  21.122  0.00  0.00    +0.000 C 
ATOM     32  N   UNL     1       0.666   3.355  20.558  0.00  0.00    +0.000 N 
ATOM     33  O   UNL     1       2.376   3.543  22.029  0.00  0.00    +0.000 OA
ATOM     34  H   UNL     1       0.324   3.610  19.641  0.00  0.00    +0.000 HD
ATOM     35  H   UNL     1       0.524   2.401  20.861  0.00  0.00    +0.000 HD
ENDBRANCH   3  31
TORSDOF 7
ENDMDL
MODEL 3
REMARK VINA RESULT:      -7.9      0.778      1.084
REMARK  Name = 
REMARK  8 active torsions:
REMARK  status: ('A' for Active; 'I' for Inactive)
REMARK    1  A    between atoms: C_1  and  C_2
REMARK    2  A    between atoms: C_2  and  N_3
REMARK    3  A    between atoms: C_2  and  C_29
REMARK    4  A    between atoms: N_3  and  C_4
REMARK    5  A    between atoms: C_7  and  N_8
REMARK    6  A    between atoms: C_10  and  C_11
REMARK    7  A    between atoms: N_15  and  C_16
REMARK    8  A    between atoms: C_25  and  C_26
REMARK                            x       y       z     vdW  Elec       q    Type
REMARK                         _______ _______ _______ _____ _____    ______ ____
ROOT
ATOM      1  N   UNL     1       2.036   7.237  19.956  0.00  0.00    +0.000 N 
ATOM      2  C   UNL     1       1.379   6.303  20.690  0.00  0.00    +0.000 A 
ATOM      3  C   UNL     1       2.143   5.150  20.608  0.00  0.00    +0.000 A 
ATOM      4  C   UNL     1       3.242   5.504  19.769  0.00  0.00    +0.000 A 
ATOM      5  N   UNL     1       4.217   4.639  19.385  0.00  0.00    +0.000 N 
ATOM      6  N   UNL     1       3.151   6.781  19.388  0.00  0.00    +0.000 NA
ATOM      7  H   UNL     1       4.273   3.756  19.891  0.00  0.00    +0.000 HD
ENDROOT
BRANCH   5   8
ATOM      8  C   UNL     1       5.006   4.659  18.209  0.00  0.00    +0.000 A 
ATOM      9  C   UNL     1       6.367   4.994  18.295  0.00  0.00    +0.000 A 
ATOM     10  C   UNL     1       7.180   5.028  17.152  0.00  0.00    +0.000 A 
ATOM     11  C   UNL     1       6.636   4.744  15.901  0.00  0.00    +0.000 A 
ATOM     12 CL   UNL     1       7.638   4.770  14.504  0.00  0.00    +0.000 Cl
ATOM     13  C   UNL     1       5.286   4.439  15.798  0.00  0.00    +0.000 A 
ATOM     14  F   UNL     1       4.729   4.165  14.609  0.00  0.00    +0.000 F 
ATOM     15  C   UNL     1       4.481   4.401  16.935  0.00  0.00    +0.000 A 
ENDBRANCH   5   8
BRANCH   1  19
ATOM     16  C   UNL     1      -0.489  10.571  18.980  0.00  0.00    +0.000 C 
ATOM     17  C   UNL     1       0.562  10.126  17.951  0.00  0.00    +0.000 C 
ATOM     18  C   UNL     1       1.040   8.710  18.258  0.00  0.00    +0.000 C 
ATOM     19  C   UNL     1       1.615   8.606  19.679  0.00  0.00    +0.000 C 
ATOM     20  C   UNL     1       0.604   9.094  20.732  0.00  0.00    +0.000 C 
ATOM     21  C   UNL     1       0.093  10.502  20.398  0.00  0.00    +0.000 C 
BRANCH  16  22
ATOM     22  N   UNL     1      -0.979  11.904  18.617  0.00  0.00    +0.000 NA
ATOM     23  H   UNL     1      -0.659  12.149  17.679  0.00  0.00    +0.000 HD
BRANCH  22  25
ATOM     24  C   UNL     1       0.172  14.033  18.745  0.00  0.00    +0.000 C 
ATOM     25  C   UNL     1      -0.637  13.001  19.540  0.00  0.00    +0.000 C 
BRANCH  25  26
ATOM     26  C   UNL     1      -1.879  13.571  20.195  0.00  0.00    +0.000 C 
ATOM     27  C   UNL     1      -3.069  12.692  20.490  0.00  0.00    +0.000 C 
ATOM     28  C   UNL     1      -2.287  13.298  21.623  0.00  0.00    +0.000 C 
ENDBRANCH  25  26
ENDBRANCH  22  25
ENDBRANCH  16  22
BRANCH  20  29
ATOM     29  C   UNL     1       1.231   9.114  22.070  0.00  0.00    +0.000 C 
ATOM     30  N   UNL     1       1.682   9.143  23.139  0.00  0.00    +0.000 NA
ENDBRANCH  20  29
ENDBRANCH   1  19
BRANCH   3  31
ATOM     31  C   UNL     1       1.853   3.873  21.222  0.00  0.00    +0.000 C 
ATOM     32  N   UNL     1       0.757   3.221  20.725  0.00  0.00    +0.000 N 
ATOM     33  O   UNL     1       2.549   3.375  22.099  0.00  0.00    +0.000 OA
ATOM     34  H   UNL     1       0.374   3.476  19.825  0.00  0.00    +0.000 HD
ATOM     35  H   UNL     1       0.603   2.277  21.049  0.00  0.00    +0.000 HD
ENDBRANCH   3  31
TORSDOF 7
ENDMDL
MODEL 4
REMARK VINA RESULT:      -7.9      1.012      1.281
REMARK  Name = 
REMARK  8 active torsions:
REMARK  status: ('A' for Active; 'I' for Inactive)
REMARK    1  A    between atoms: C_1  and  C_2
REMARK    2  A    between atoms: C_2  and  N_3
REMARK    3  A    between atoms: C_2  and  C_29
REMARK    4  A    between atoms: N_3  and  C_4
REMARK    5  A    between atoms: C_7  and  N_8
REMARK    6  A    between atoms: C_10  and  C_11
REMARK    7  A    between atoms: N_15  and  C_16
REMARK    8  A    between atoms: C_25  and  C_26
REMARK                            x       y       z     vdW  Elec       q    Type
REMARK                         _______ _______ _______ _____ _____    ______ ____
ROOT
ATOM      1  N   UNL     1       1.910   7.382  19.958  0.00  0.00    +0.000 N 
ATOM      2  C   UNL     1       1.260   6.427  20.672  0.00  0.00    +0.000 A 
ATOM      3  C   UNL     1       2.029   5.280  20.559  0.00  0.00    +0.000 A 
ATOM      4  C   UNL     1       3.124   5.659  19.725  0.00  0.00    +0.000 A 
ATOM      5  N   UNL     1       4.102   4.808  19.317  0.00  0.00    +0.000 N 
ATOM      6  N   UNL     1       3.025   6.944  19.375  0.00  0.00    +0.000 NA
ATOM      7  H   UNL     1       4.164   3.914  19.802  0.00  0.00    +0.000 HD
ENDROOT
BRANCH   5   8
ATOM      8  C   UNL     1       4.886   4.861  18.139  0.00  0.00    +0.000 A 
ATOM      9  C   UNL     1       4.613   3.973  17.086  0.00  0.00    +0.000 A 
ATOM     10  C   UNL     1       5.371   3.992  15.905  0.00  0.00    +0.000 A 
ATOM     11  C   UNL     1       6.426   4.891  15.769  0.00  0.00    +0.000 A 
ATOM     12 CL   UNL     1       7.342   4.925  14.313  0.00  0.00    +0.000 Cl
ATOM     13  C   UNL     1       6.725   5.756  16.813  0.00  0.00    +0.000 A 
ATOM     14  F   UNL     1       7.737   6.630  16.717  0.00  0.00    +0.000 F 
ATOM     15  C   UNL     1       5.969   5.738  17.983  0.00  0.00    +0.000 A 
ENDBRANCH   5   8
BRANCH   1  19
ATOM     16  C   UNL     1      -0.643  10.731  19.114  0.00  0.00    +0.000 C 
ATOM     17  C   UNL     1       0.374  10.300  18.045  0.00  0.00    +0.000 C 
ATOM     18  C   UNL     1       0.860   8.880  18.315  0.00  0.00    +0.000 C 
ATOM     19  C   UNL     1       1.482   8.755  19.715  0.00  0.00    +0.000 C 
ATOM     20  C   UNL     1       0.506   9.227  20.807  0.00  0.00    +0.000 C 
ATOM     21  C   UNL     1      -0.015  10.640  20.511  0.00  0.00    +0.000 C 
BRANCH  16  22
ATOM     22  N   UNL     1      -1.144  12.069  18.787  0.00  0.00    +0.000 NA
ATOM     23  H   UNL     1      -0.725  12.760  19.411  0.00  0.00    +0.000 HD
BRANCH  22  25
ATOM     24  C   UNL     1      -3.217  11.025  18.088  0.00  0.00    +0.000 C 
ATOM     25  C   UNL     1      -2.608  12.239  18.799  0.00  0.00    +0.000 C 
BRANCH  25  26
ATOM     26  C   UNL     1      -3.121  12.442  20.210  0.00  0.00    +0.000 C 
ATOM     27  C   UNL     1      -2.483  13.457  21.126  0.00  0.00    +0.000 C 
ATOM     28  C   UNL     1      -3.901  13.653  20.664  0.00  0.00    +0.000 C 
ENDBRANCH  25  26
ENDBRANCH  22  25
ENDBRANCH  16  22
BRANCH  20  29
ATOM     29  C   UNL     1       1.175   9.227  22.124  0.00  0.00    +0.000 C 
ATOM     30  N   UNL     1       1.713   9.182  23.152  0.00  0.00    +0.000 NA
ENDBRANCH  20  29
ENDBRANCH   1  19
BRANCH   3  31
ATOM     31  C   UNL     1       1.748   3.988  21.144  0.00  0.00    +0.000 C 
ATOM     32  N   UNL     1       0.692   3.314  20.592  0.00  0.00    +0.000 N 
ATOM     33  O   UNL     1       2.420   3.496  22.043  0.00  0.00    +0.000 OA
ATOM     34  H   UNL     1       0.340   3.572  19.680  0.00  0.00    +0.000 HD
ATOM     35  H   UNL     1       0.550   2.362  20.897  0.00  0.00    +0.000 HD
ENDBRANCH   3  31
TORSDOF 7
ENDMDL
MODEL 5
REMARK VINA RESULT:      -7.8      4.891      9.382
REMARK  Name = 
REMARK  8 active torsions:
REMARK  status: ('A' for Active; 'I' for Inactive)
REMARK    1  A    between atoms: C_1  and  C_2
REMARK    2  A    between atoms: C_2  and  N_3
REMARK    3  A    between atoms: C_2  and  C_29
REMARK    4  A    between atoms: N_3  and  C_4
REMARK    5  A    between atoms: C_7  and  N_8
REMARK    6  A    between atoms: C_10  and  C_11
REMARK    7  A    between atoms: N_15  and  C_16
REMARK    8  A    between atoms: C_25  and  C_26
REMARK                            x       y       z     vdW  Elec       q    Type
REMARK                         _______ _______ _______ _____ _____    ______ ____
ROOT
ATOM      1  N   UNL     1       1.151   9.864  18.886  0.00  0.00    +0.000 N 
ATOM      2  C   UNL     1       2.018  10.858  18.563  0.00  0.00    +0.000 A 
ATOM      3  C   UNL     1       1.286  12.034  18.624  0.00  0.00    +0.000 A 
ATOM      4  C   UNL     1      -0.033  11.620  18.978  0.00  0.00    +0.000 A 
ATOM      5  N   UNL     1      -1.091  12.466  19.097  0.00  0.00    +0.000 N 
ATOM      6  N   UNL     1      -0.085  10.295  19.131  0.00  0.00    +0.000 NA
ATOM      7  H   UNL     1      -0.880  13.462  19.140  0.00  0.00    +0.000 HD
ENDROOT
BRANCH   5   8
ATOM      8  C   UNL     1      -2.467  12.194  18.906  0.00  0.00    +0.000 A 
ATOM      9  C   UNL     1      -2.897  11.613  17.701  0.00  0.00    +0.000 A 
ATOM     10  C   UNL     1      -4.253  11.332  17.474  0.00  0.00    +0.000 A 
ATOM     11  C   UNL     1      -5.201  11.647  18.443  0.00  0.00    +0.000 A 
ATOM     12 CL   UNL     1      -6.861  11.286  18.169  0.00  0.00    +0.000 Cl
ATOM     13  C   UNL     1      -4.795  12.247  19.627  0.00  0.00    +0.000 A 
ATOM     14  F   UNL     1      -5.683  12.568  20.579  0.00  0.00    +0.000 F 
ATOM     15  C   UNL     1      -3.448  12.521  19.853  0.00  0.00    +0.000 A 
ENDBRANCH   5   8
BRANCH   1  19
ATOM     16  C   UNL     1       3.243   6.148  19.388  0.00  0.00    +0.000 C 
ATOM     17  C   UNL     1       2.868   6.587  17.964  0.00  0.00    +0.000 C 
ATOM     18  C   UNL     1       2.548   8.079  17.935  0.00  0.00    +0.000 C 
ATOM     19  C   UNL     1       1.415   8.430  18.912  0.00  0.00    +0.000 C 
ATOM     20  C   UNL     1       1.737   7.956  20.340  0.00  0.00    +0.000 C 
ATOM     21  C   UNL     1       2.100   6.465  20.361  0.00  0.00    +0.000 C 
BRANCH  16  22
ATOM     22  N   UNL     1       3.614   4.730  19.369  0.00  0.00    +0.000 NA
ATOM     23  H   UNL     1       4.449   4.596  18.797  0.00  0.00    +0.000 HD
BRANCH  22  25
ATOM     24  C   UNL     1       3.045   3.179  17.595  0.00  0.00    +0.000 C 
ATOM     25  C   UNL     1       2.572   3.788  18.920  0.00  0.00    +0.000 C 
BRANCH  25  26
ATOM     26  C   UNL     1       2.269   2.760  19.991  0.00  0.00    +0.000 C 
ATOM     27  C   UNL     1       2.538   3.057  21.446  0.00  0.00    +0.000 C 
ATOM     28  C   UNL     1       1.125   2.866  20.970  0.00  0.00    +0.000 C 
ENDBRANCH  25  26
ENDBRANCH  22  25
ENDBRANCH  16  22
BRANCH  20  29
ATOM     29  C   UNL     1       0.577   8.182  21.226  0.00  0.00    +0.000 C 
ATOM     30  N   UNL     1      -0.335   8.404  21.910  0.00  0.00    +0.000 NA
ENDBRANCH  20  29
ENDBRANCH   1  19
BRANCH   3  31
ATOM     31  C   UNL     1       1.770  13.370  18.356  0.00  0.00    +0.000 C 
ATOM     32  N   UNL     1       3.009  13.438  17.779  0.00  0.00    +0.000 N 
ATOM     33  O   UNL     1       1.116  14.381  18.584  0.00  0.00    +0.000 OA
ATOM     34  H   UNL     1       3.407  12.628  17.323  0.00  0.00    +0.000 HD
ATOM     35  H   UNL     1       3.318  14.348  17.469  0.00  0.00    +0.000 HD
ENDBRANCH   3  31
TORSDOF 7
ENDMDL
MODEL 6
REMARK VINA RESULT:      -7.7      4.589      9.320
REMARK  Name = 
REMARK  8 active torsions:
REMARK  status: ('A' for Active; 'I' for Inactive)
REMARK    1  A    between atoms: C_1  and  C_2
REMARK    2  A    between atoms: C_2  and  N_3
REMARK    3  A    between atoms: C_2  and  C_29
REMARK    4  A    between atoms: N_3  and  C_4
REMARK    5  A    between atoms: C_7  and  N_8
REMARK    6  A    between atoms: C_10  and  C_11
REMARK    7  A    between atoms: N_15  and  C_16
REMARK    8  A    between atoms: C_25  and  C_26
REMARK                            x       y       z     vdW  Elec       q    Type
REMARK                         _______ _______ _______ _____ _____    ______ ____
ROOT
ATOM      1  N   UNL     1       0.949   9.973  18.964  0.00  0.00    +0.000 N 
ATOM      2  C   UNL     1       1.819  10.972  18.669  0.00  0.00    +0.000 A 
ATOM      3  C   UNL     1       1.082  12.144  18.720  0.00  0.00    +0.000 A 
ATOM      4  C   UNL     1      -0.245  11.724  19.039  0.00  0.00    +0.000 A 
ATOM      5  N   UNL     1      -1.307  12.565  19.138  0.00  0.00    +0.000 N 
ATOM      6  N   UNL     1      -0.295  10.397  19.183  0.00  0.00    +0.000 NA
ATOM      7  H   UNL     1      -1.101  13.561  19.193  0.00  0.00    +0.000 HD
ENDROOT
BRANCH   5   8
ATOM      8  C   UNL     1      -2.678  12.290  18.911  0.00  0.00    +0.000 A 
ATOM      9  C   UNL     1      -3.615  12.561  19.922  0.00  0.00    +0.000 A 
ATOM     10  C   UNL     1      -4.981  12.299  19.735  0.00  0.00    +0.000 A 
ATOM     11  C   UNL     1      -5.426  11.743  18.538  0.00  0.00    +0.000 A 
ATOM     12 CL   UNL     1      -7.103  11.439  18.306  0.00  0.00    +0.000 Cl
ATOM     13  C   UNL     1      -4.508  11.444  17.541  0.00  0.00    +0.000 A 
ATOM     14  F   UNL     1      -4.903  10.904  16.379  0.00  0.00    +0.000 F 
ATOM     15  C   UNL     1      -3.153  11.709  17.726  0.00  0.00    +0.000 A 
ENDBRANCH   5   8
BRANCH   1  19
ATOM     16  C   UNL     1       3.087   6.266  19.323  0.00  0.00    +0.000 C 
ATOM     17  C   UNL     1       2.577   6.683  17.934  0.00  0.00    +0.000 C 
ATOM     18  C   UNL     1       2.253   8.174  17.912  0.00  0.00    +0.000 C 
ATOM     19  C   UNL     1       1.217   8.539  18.987  0.00  0.00    +0.000 C 
ATOM     20  C   UNL     1       1.674   8.088  20.385  0.00  0.00    +0.000 C 
ATOM     21  C   UNL     1       2.041   6.598  20.394  0.00  0.00    +0.000 C 
BRANCH  16  22
ATOM     22  N   UNL     1       3.457   4.848  19.290  0.00  0.00    +0.000 NA
ATOM     23  H   UNL     1       4.473   4.752  19.331  0.00  0.00    +0.000 HD
BRANCH  22  25
ATOM     24  C   UNL     1       4.140   3.773  17.227  0.00  0.00    +0.000 C 
ATOM     25  C   UNL     1       2.949   4.066  18.149  0.00  0.00    +0.000 C 
BRANCH  25  26
ATOM     26  C   UNL     1       2.222   2.823  18.619  0.00  0.00    +0.000 C 
ATOM     27  C   UNL     1       1.766   2.691  20.052  0.00  0.00    +0.000 C 
ATOM     28  C   UNL     1       0.749   2.775  18.948  0.00  0.00    +0.000 C 
ENDBRANCH  25  26
ENDBRANCH  22  25
ENDBRANCH  16  22
BRANCH  20  29
ATOM     29  C   UNL     1       0.603   8.326  21.374  0.00  0.00    +0.000 C 
ATOM     30  N   UNL     1      -0.258   8.474  22.138  0.00  0.00    +0.000 NA
ENDBRANCH  20  29
ENDBRANCH   1  19
BRANCH   3  31
ATOM     31  C   UNL     1       1.567  13.484  18.472  0.00  0.00    +0.000 C 
ATOM     32  N   UNL     1       2.729  13.560  17.753  0.00  0.00    +0.000 N 
ATOM     33  O   UNL     1       0.974  14.492  18.837  0.00  0.00    +0.000 OA
ATOM     34  H   UNL     1       3.046  12.772  17.206  0.00  0.00    +0.000 HD
ATOM     35  H   UNL     1       3.024  14.482  17.461  0.00  0.00    +0.000 HD
ENDBRANCH   3  31
TORSDOF 7
ENDMDL
MODEL 7
REMARK VINA RESULT:      -7.6      1.146      1.697
REMARK  Name = 
REMARK  8 active torsions:
REMARK  status: ('A' for Active; 'I' for Inactive)
REMARK    1  A    between atoms: C_1  and  C_2
REMARK    2  A    between atoms: C_2  and  N_3
REMARK    3  A    between atoms: C_2  and  C_29
REMARK    4  A    between atoms: N_3  and  C_4
REMARK    5  A    between atoms: C_7  and  N_8
REMARK    6  A    between atoms: C_10  and  C_11
REMARK    7  A    between atoms: N_15  and  C_16
REMARK    8  A    between atoms: C_25  and  C_26
REMARK                            x       y       z     vdW  Elec       q    Type
REMARK                         _______ _______ _______ _____ _____    ______ ____
ROOT
ATOM      1  N   UNL     1       1.964   7.200  19.937  0.00  0.00    +0.000 N 
ATOM      2  C   UNL     1       1.380   6.213  20.663  0.00  0.00    +0.000 A 
ATOM      3  C   UNL     1       2.210   5.110  20.539  0.00  0.00    +0.000 A 
ATOM      4  C   UNL     1       3.269   5.548  19.688  0.00  0.00    +0.000 A 
ATOM      5  N   UNL     1       4.286   4.752  19.266  0.00  0.00    +0.000 N 
ATOM      6  N   UNL     1       3.093   6.825  19.338  0.00  0.00    +0.000 NA
ATOM      7  H   UNL     1       4.406   3.864  19.751  0.00  0.00    +0.000 HD
ENDROOT
BRANCH   5   8
ATOM      8  C   UNL     1       5.048   4.845  18.076  0.00  0.00    +0.000 A 
ATOM      9  C   UNL     1       4.787   3.962  17.016  0.00  0.00    +0.000 A 
ATOM     10  C   UNL     1       5.524   4.022  15.823  0.00  0.00    +0.000 A 
ATOM     11  C   UNL     1       6.546   4.958  15.681  0.00  0.00    +0.000 A 
ATOM     12 CL   UNL     1       7.436   5.041  14.211  0.00  0.00    +0.000 Cl
ATOM     13  C   UNL     1       6.833   5.819  16.732  0.00  0.00    +0.000 A 
ATOM     14  F   UNL     1       7.814   6.728  16.630  0.00  0.00    +0.000 F 
ATOM     15  C   UNL     1       6.098   5.761  17.913  0.00  0.00    +0.000 A 
ENDBRANCH   5   8
BRANCH   1  19
ATOM     16  C   UNL     1      -0.797  10.414  19.238  0.00  0.00    +0.000 C 
ATOM     17  C   UNL     1       0.143   9.998  18.095  0.00  0.00    +0.000 C 
ATOM     18  C   UNL     1       0.713   8.607  18.356  0.00  0.00    +0.000 C 
ATOM     19  C   UNL     1       1.457   8.547  19.700  0.00  0.00    +0.000 C 
ATOM     20  C   UNL     1       0.557   9.008  20.861  0.00  0.00    +0.000 C 
ATOM     21  C   UNL     1      -0.049  10.389  20.577  0.00  0.00    +0.000 C 
BRANCH  16  22
ATOM     22  N   UNL     1      -1.383  11.720  18.923  0.00  0.00    +0.000 NA
ATOM     23  H   UNL     1      -0.840  12.462  19.367  0.00  0.00    +0.000 HD
BRANCH  22  25
ATOM     24  C   UNL     1      -2.925  13.211  20.053  0.00  0.00    +0.000 C 
ATOM     25  C   UNL     1      -2.805  11.899  19.268  0.00  0.00    +0.000 C 
BRANCH  25  26
ATOM     26  C   UNL     1      -3.677  11.846  18.030  0.00  0.00    +0.000 C 
ATOM     27  C   UNL     1      -3.789  10.579  17.218  0.00  0.00    +0.000 C 
ATOM     28  C   UNL     1      -4.992  11.108  17.949  0.00  0.00    +0.000 C 
ENDBRANCH  25  26
ENDBRANCH  22  25
ENDBRANCH  16  22
BRANCH  20  29
ATOM     29  C   UNL     1       1.336   9.072  22.115  0.00  0.00    +0.000 C 
ATOM     30  N   UNL     1       1.915   9.150  23.118  0.00  0.00    +0.000 NA
ENDBRANCH  20  29
ENDBRANCH   1  19
BRANCH   3  31
ATOM     31  C   UNL     1       2.010   3.805  21.130  0.00  0.00    +0.000 C 
ATOM     32  N   UNL     1       1.457   2.867  20.301  0.00  0.00    +0.000 N 
ATOM     33  O   UNL     1       2.342   3.527  22.276  0.00  0.00    +0.000 OA
ATOM     34  H   UNL     1       1.465   3.000  19.299  0.00  0.00    +0.000 HD
ATOM     35  H   UNL     1       1.419   1.919  20.647  0.00  0.00    +0.000 HD
ENDBRANCH   3  31
TORSDOF 7
ENDMDL
MODEL 8
REMARK VINA RESULT:      -7.6      0.679      1.213
REMARK  Name = 
REMARK  8 active torsions:
REMARK  status: ('A' for Active; 'I' for Inactive)
REMARK    1  A    between atoms: C_1  and  C_2
REMARK    2  A    between atoms: C_2  and  N_3
REMARK    3  A    between atoms: C_2  and  C_29
REMARK    4  A    between atoms: N_3  and  C_4
REMARK    5  A    between atoms: C_7  and  N_8
REMARK    6  A    between atoms: C_10  and  C_11
REMARK    7  A    between atoms: N_15  and  C_16
REMARK    8  A    between atoms: C_25  and  C_26
REMARK                            x       y       z     vdW  Elec       q    Type
REMARK                         _______ _______ _______ _____ _____    ______ ____
ROOT
ATOM      1  N   UNL     1       1.976   7.121  20.006  0.00  0.00    +0.000 N 
ATOM      2  C   UNL     1       1.367   6.159  20.747  0.00  0.00    +0.000 A 
ATOM      3  C   UNL     1       2.178   5.039  20.653  0.00  0.00    +0.000 A 
ATOM      4  C   UNL     1       3.252   5.440  19.802  0.00  0.00    +0.000 A 
ATOM      5  N   UNL     1       4.258   4.617  19.406  0.00  0.00    +0.000 N 
ATOM      6  N   UNL     1       3.102   6.712  19.424  0.00  0.00    +0.000 NA
ATOM      7  H   UNL     1       4.357   3.737  19.910  0.00  0.00    +0.000 HD
ENDROOT
BRANCH   5   8
ATOM      8  C   UNL     1       5.032   4.672  18.221  0.00  0.00    +0.000 A 
ATOM      9  C   UNL     1       6.386   5.035  18.295  0.00  0.00    +0.000 A 
ATOM     10  C   UNL     1       7.184   5.104  17.143  0.00  0.00    +0.000 A 
ATOM     11  C   UNL     1       6.630   4.827  15.895  0.00  0.00    +0.000 A 
ATOM     12 CL   UNL     1       7.614   4.896  14.486  0.00  0.00    +0.000 Cl
ATOM     13  C   UNL     1       5.286   4.494  15.803  0.00  0.00    +0.000 A 
ATOM     14  F   UNL     1       4.721   4.226  14.617  0.00  0.00    +0.000 F 
ATOM     15  C   UNL     1       4.497   4.422  16.949  0.00  0.00    +0.000 A 
ENDBRANCH   5   8
BRANCH   1  19
ATOM     16  C   UNL     1      -0.718  10.365  19.194  0.00  0.00    +0.000 C 
ATOM     17  C   UNL     1       0.242   9.917  18.080  0.00  0.00    +0.000 C 
ATOM     18  C   UNL     1       0.784   8.521  18.375  0.00  0.00    +0.000 C 
ATOM     19  C   UNL     1       1.495   8.471  19.737  0.00  0.00    +0.000 C 
ATOM     20  C   UNL     1       0.576   8.964  20.869  0.00  0.00    +0.000 C 
ATOM     21  C   UNL     1      -0.002  10.349  20.550  0.00  0.00    +0.000 C 
BRANCH  16  22
ATOM     22  N   UNL     1      -1.276  11.675  18.846  0.00  0.00    +0.000 NA
ATOM     23  H   UNL     1      -0.734  12.415  19.294  0.00  0.00    +0.000 HD
BRANCH  22  25
ATOM     24  C   UNL     1      -2.818  13.168  19.973  0.00  0.00    +0.000 C 
ATOM     25  C   UNL     1      -2.704  11.879  19.150  0.00  0.00    +0.000 C 
BRANCH  25  26
ATOM     26  C   UNL     1      -3.535  11.888  17.883  0.00  0.00    +0.000 C 
ATOM     27  C   UNL     1      -3.725  10.627  17.075  0.00  0.00    +0.000 C 
ATOM     28  C   UNL     1      -4.904  11.261  17.762  0.00  0.00    +0.000 C 
ENDBRANCH  25  26
ENDBRANCH  22  25
ENDBRANCH  16  22
BRANCH  20  29
ATOM     29  C   UNL     1       1.327   9.036  22.140  0.00  0.00    +0.000 C 
ATOM     30  N   UNL     1       1.917   9.046  23.139  0.00  0.00    +0.000 NA
ENDBRANCH  20  29
ENDBRANCH   1  19
BRANCH   3  31
ATOM     31  C   UNL     1       1.950   3.751  21.269  0.00  0.00    +0.000 C 
ATOM     32  N   UNL     1       0.821   3.097  20.854  0.00  0.00    +0.000 N 
ATOM     33  O   UNL     1       2.720   3.245  22.077  0.00  0.00    +0.000 OA
ATOM     34  H   UNL     1       0.362   3.363  19.993  0.00  0.00    +0.000 HD
ATOM     35  H   UNL     1       0.701   2.146  21.175  0.00  0.00    +0.000 HD
ENDBRANCH   3  31
TORSDOF 7
ENDMDL
MODEL 9
REMARK VINA RESULT:      -7.5      5.325      9.796
REMARK  Name = 
REMARK  8 active torsions:
REMARK  status: ('A' for Active; 'I' for Inactive)
REMARK    1  A    between atoms: C_1  and  C_2
REMARK    2  A    between atoms: C_2  and  N_3
REMARK    3  A    between atoms: C_2  and  C_29
REMARK    4  A    between atoms: N_3  and  C_4
REMARK    5  A    between atoms: C_7  and  N_8
REMARK    6  A    between atoms: C_10  and  C_11
REMARK    7  A    between atoms: N_15  and  C_16
REMARK    8  A    between atoms: C_25  and  C_26
REMARK                            x       y       z     vdW  Elec       q    Type
REMARK                         _______ _______ _______ _____ _____    ______ ____
ROOT
ATOM      1  N   UNL     1       0.526  10.553  19.321  0.00  0.00    +0.000 N 
ATOM      2  C   UNL     1       1.280  11.602  18.905  0.00  0.00    +0.000 A 
ATOM      3  C   UNL     1       0.530  12.736  19.170  0.00  0.00    +0.000 A 
ATOM      4  C   UNL     1      -0.685  12.243  19.733  0.00  0.00    +0.000 A 
ATOM      5  N   UNL     1      -1.732  13.030  20.095  0.00  0.00    +0.000 N 
ATOM      6  N   UNL     1      -0.659  10.910  19.814  0.00  0.00    +0.000 NA
ATOM      7  H   UNL     1      -1.554  14.031  20.158  0.00  0.00    +0.000 HD
ENDROOT
BRANCH   5   8
ATOM      8  C   UNL     1      -3.110  12.704  20.142  0.00  0.00    +0.000 A 
ATOM      9  C   UNL     1      -3.737  12.181  19.000  0.00  0.00    +0.000 A 
ATOM     10  C   UNL     1      -5.100  11.849  19.007  0.00  0.00    +0.000 A 
ATOM     11  C   UNL     1      -5.860  12.054  20.156  0.00  0.00    +0.000 A 
ATOM     12 CL   UNL     1      -7.528  11.631  20.168  0.00  0.00    +0.000 Cl
ATOM     13  C   UNL     1      -5.260  12.596  21.284  0.00  0.00    +0.000 A 
ATOM     14  F   UNL     1      -5.965  12.811  22.405  0.00  0.00    +0.000 F 
ATOM     15  C   UNL     1      -3.906  12.921  21.276  0.00  0.00    +0.000 A 
ENDBRANCH   5   8
BRANCH   1  19
ATOM     16  C   UNL     1       2.796   6.907  19.305  0.00  0.00    +0.000 C 
ATOM     17  C   UNL     1       2.238   7.425  17.970  0.00  0.00    +0.000 C 
ATOM     18  C   UNL     1       1.863   8.900  18.087  0.00  0.00    +0.000 C 
ATOM     19  C   UNL     1       0.842   9.133  19.212  0.00  0.00    +0.000 C 
ATOM     20  C   UNL     1       1.350   8.578  20.555  0.00  0.00    +0.000 C 
ATOM     21  C   UNL     1       1.766   7.107  20.425  0.00  0.00    +0.000 C 
BRANCH  16  22
ATOM     22  N   UNL     1       3.213   5.512  19.140  0.00  0.00    +0.000 NA
ATOM     23  H   UNL     1       3.784   5.416  18.300  0.00  0.00    +0.000 HD
BRANCH  22  25
ATOM     24  C   UNL     1       2.058   3.973  17.666  0.00  0.00    +0.000 C 
ATOM     25  C   UNL     1       2.134   4.508  19.101  0.00  0.00    +0.000 C 
BRANCH  25  26
ATOM     26  C   UNL     1       2.353   3.430  20.143  0.00  0.00    +0.000 C 
ATOM     27  C   UNL     1       2.265   3.750  21.615  0.00  0.00    +0.000 C 
ATOM     28  C   UNL     1       1.255   2.830  20.987  0.00  0.00    +0.000 C 
ENDBRANCH  25  26
ENDBRANCH  22  25
ENDBRANCH  16  22
BRANCH  20  29
ATOM     29  C   UNL     1       0.296   8.692  21.584  0.00  0.00    +0.000 C 
ATOM     30  N   UNL     1      -0.556   8.748  22.370  0.00  0.00    +0.000 NA
ENDBRANCH  20  29
ENDBRANCH   1  19
BRANCH   3  31
ATOM     31  C   UNL     1       0.906  14.106  18.898  0.00  0.00    +0.000 C 
ATOM     32  N   UNL     1       2.250  14.330  18.778  0.00  0.00    +0.000 N 
ATOM     33  O   UNL     1       0.092  15.009  18.743  0.00  0.00    +0.000 OA
ATOM     34  H   UNL     1       2.884  13.562  18.605  0.00  0.00    +0.000 HD
ATOM     35  H   UNL     1       2.533  15.249  18.468  0.00  0.00    +0.000 HD
ENDBRANCH   3  31
TORSDOF 7
ENDMDL
