MODEL 1
REMARK VINA RESULT:      -7.6      0.000      0.000
REMARK  Name = 
REMARK  6 active torsions:
REMARK  status: ('A' for Active; 'I' for Inactive)
REMARK    1  A    between atoms: C_2  and  C_8
REMARK    2  A    between atoms: N_3  and  C_4
REMARK    3  A    between atoms: C_4  and  C_5
REMARK    4  A    between atoms: N_15  and  C_16
REMARK    5  A    between atoms: C_16  and  C_17
REMARK    6  A    between atoms: C_17  and  C_18
REMARK                            x       y       z     vdW  Elec       q    Type
REMARK                         _______ _______ _______ _____ _____    ______ ____
ROOT
ATOM      1  C   UNL     1       5.082   5.573  17.524  0.00  0.00    +0.000 C 
ATOM      2  C   UNL     1       5.305   4.110  17.909  0.00  0.00    +0.000 C 
ATOM      3  C   UNL     1       5.045   3.926  19.401  0.00  0.00    +0.000 C 
ATOM      4  O   UNL     1       3.726   4.359  19.744  0.00  0.00    +0.000 OA
ATOM      5  C   UNL     1       3.531   5.751  19.472  0.00  0.00    +0.000 C 
ATOM      6  C   UNL     1       2.143   6.181  19.927  0.00  0.00    +0.000 C 
ATOM      7  C   UNL     1       1.915   7.656  19.594  0.00  0.00    +0.000 C 
ATOM      8  N   UNL     1       2.108   7.950  18.161  0.00  0.00    +0.000 NA
ATOM      9  C   UNL     1       3.424   7.496  17.682  0.00  0.00    +0.000 C 
ATOM     10  C   UNL     1       3.680   6.017  17.974  0.00  0.00    +0.000 C 
ENDROOT
BRANCH   1  12
ATOM     11  O   UNL     1       5.330   6.972  15.593  0.00  0.00    +0.000 OA
ATOM     12  C   UNL     1       5.346   5.828  16.045  0.00  0.00    +0.000 C 
ATOM     13  N   UNL     1       5.559   4.722  15.263  0.00  0.00    +0.000 N 
ATOM     14  H   UNL     1       5.379   3.802  15.643  0.00  0.00    +0.000 HD
BRANCH  13  15
ATOM     15  C   UNL     1       5.650   4.856  13.827  0.00  0.00    +0.000 C 
BRANCH  15  16
ATOM     16  C   UNL     1       5.840   3.510  13.205  0.00  0.00    +0.000 C 
ATOM     17  C   UNL     1       5.157   3.164  11.905  0.00  0.00    +0.000 C 
ATOM     18  C   UNL     1       6.648   3.355  11.941  0.00  0.00    +0.000 C 
ENDBRANCH  15  16
ENDBRANCH  13  15
ENDBRANCH   1  12
BRANCH   8  19
ATOM     19  C   UNL     1       1.938   9.406  17.926  0.00  0.00    +0.000 C 
BRANCH  19  20
ATOM     20  C   UNL     1       1.178  10.137  19.049  0.00  0.00    +0.000 C 
BRANCH  20  21
ATOM     21  C   UNL     1      -0.219  10.532  18.638  0.00  0.00    +0.000 A 
ATOM     22  C   UNL     1      -0.887   9.810  17.639  0.00  0.00    +0.000 A 
ATOM     23  C   UNL     1      -2.186  10.154  17.266  0.00  0.00    +0.000 A 
ATOM     24  C   UNL     1      -2.824  11.227  17.887  0.00  0.00    +0.000 A 
ATOM     25  C   UNL     1      -2.165  11.954  18.876  0.00  0.00    +0.000 A 
ATOM     26  C   UNL     1      -0.864  11.613  19.249  0.00  0.00    +0.000 A 
ENDBRANCH  20  21
ENDBRANCH  19  20
ENDBRANCH   8  19
TORSDOF 6
ENDMDL
MODEL 2
REMARK VINA RESULT:      -7.6      2.512      7.543
REMARK  Name = 
REMARK  6 active torsions:
REMARK  status: ('A' for Active; 'I' for Inactive)
REMARK    1  A    between atoms: C_2  and  C_8
REMARK    2  A    between atoms: N_3  and  C_4
REMARK    3  A    between atoms: C_4  and  C_5
REMARK    4  A    between atoms: N_15  and  C_16
REMARK    5  A    between atoms: C_16  and  C_17
REMARK    6  A    between atoms: C_17  and  C_18
REMARK                            x       y       z     vdW  Elec       q    Type
REMARK                         _______ _______ _______ _____ _____    ______ ____
ROOT
ATOM      1  C   UNL     1       1.840   5.178  19.212  0.00  0.00    +0.000 C 
ATOM      2  C   UNL     1       1.225   4.728  20.538  0.00  0.00    +0.000 C 
ATOM      3  C   UNL     1       0.807   3.264  20.440  0.00  0.00    +0.000 C 
ATOM      4  O   UNL     1       1.919   2.442  20.077  0.00  0.00    +0.000 OA
ATOM      5  C   UNL     1       2.450   2.793  18.796  0.00  0.00    +0.000 C 
ATOM      6  C   UNL     1       3.577   1.841  18.420  0.00  0.00    +0.000 C 
ATOM      7  C   UNL     1       4.178   2.243  17.072  0.00  0.00    +0.000 C 
ATOM      8  N   UNL     1       4.650   3.641  17.057  0.00  0.00    +0.000 NA
ATOM      9  C   UNL     1       3.594   4.580  17.468  0.00  0.00    +0.000 C 
ATOM     10  C   UNL     1       2.984   4.225  18.825  0.00  0.00    +0.000 C 
ENDROOT
BRANCH   1  12
ATOM     11  O   UNL     1       2.631   7.170  20.284  0.00  0.00    +0.000 OA
ATOM     12  C   UNL     1       2.261   6.642  19.237  0.00  0.00    +0.000 C 
ATOM     13  N   UNL     1       2.164   7.326  18.052  0.00  0.00    +0.000 N 
ATOM     14  H   UNL     1       1.682   6.901  17.271  0.00  0.00    +0.000 HD
BRANCH  13  15
ATOM     15  C   UNL     1       2.380   8.754  18.020  0.00  0.00    +0.000 C 
BRANCH  15  16
ATOM     16  C   UNL     1       1.073   9.465  18.153  0.00  0.00    +0.000 C 
ATOM     17  C   UNL     1       0.568   9.894  19.509  0.00  0.00    +0.000 C 
ATOM     18  C   UNL     1       1.027  10.928  18.520  0.00  0.00    +0.000 C 
ENDBRANCH  15  16
ENDBRANCH  13  15
ENDBRANCH   1  12
BRANCH   8  19
ATOM     19  C   UNL     1       5.155   3.979  15.703  0.00  0.00    +0.000 C 
BRANCH  19  20
ATOM     20  C   UNL     1       6.673   4.239  15.646  0.00  0.00    +0.000 C 
BRANCH  20  21
ATOM     21  C   UNL     1       7.137   5.179  16.731  0.00  0.00    +0.000 A 
ATOM     22  C   UNL     1       7.642   4.667  17.935  0.00  0.00    +0.000 A 
ATOM     23  C   UNL     1       8.093   5.528  18.936  0.00  0.00    +0.000 A 
ATOM     24  C   UNL     1       8.038   6.906  18.741  0.00  0.00    +0.000 A 
ATOM     25  C   UNL     1       7.532   7.424  17.550  0.00  0.00    +0.000 A 
ATOM     26  C   UNL     1       7.077   6.564  16.548  0.00  0.00    +0.000 A 
ENDBRANCH  20  21
ENDBRANCH  19  20
ENDBRANCH   8  19
TORSDOF 6
ENDMDL
MODEL 3
REMARK VINA RESULT:      -7.5      3.874      7.588
REMARK  Name = 
REMARK  6 active torsions:
REMARK  status: ('A' for Active; 'I' for Inactive)
REMARK    1  A    between atoms: C_2  and  C_8
REMARK    2  A    between atoms: N_3  and  C_4
REMARK    3  A    between atoms: C_4  and  C_5
REMARK    4  A    between atoms: N_15  and  C_16
REMARK    5  A    between atoms: C_16  and  C_17
REMARK    6  A    between atoms: C_17  and  C_18
REMARK                            x       y       z     vdW  Elec       q    Type
REMARK                         _______ _______ _______ _____ _____    ______ ____
ROOT
ATOM      1  C   UNL     1       3.074   5.865  17.820  0.00  0.00    +0.000 C 
ATOM      2  C   UNL     1       2.343   4.529  17.961  0.00  0.00    +0.000 C 
ATOM      3  C   UNL     1       2.895   3.531  16.947  0.00  0.00    +0.000 C 
ATOM      4  O   UNL     1       4.307   3.372  17.110  0.00  0.00    +0.000 OA
ATOM      5  C   UNL     1       5.014   4.597  16.892  0.00  0.00    +0.000 C 
ATOM      6  C   UNL     1       6.514   4.358  16.998  0.00  0.00    +0.000 C 
ATOM      7  C   UNL     1       7.270   5.675  16.813  0.00  0.00    +0.000 C 
ATOM      8  N   UNL     1       6.840   6.714  17.768  0.00  0.00    +0.000 NA
ATOM      9  C   UNL     1       5.384   6.928  17.724  0.00  0.00    +0.000 C 
ATOM     10  C   UNL     1       4.591   5.636  17.931  0.00  0.00    +0.000 C 
ENDROOT
BRANCH   1  12
ATOM     11  O   UNL     1       2.564   6.707  20.006  0.00  0.00    +0.000 OA
ATOM     12  C   UNL     1       2.553   6.914  18.794  0.00  0.00    +0.000 C 
ATOM     13  N   UNL     1       2.045   8.063  18.241  0.00  0.00    +0.000 N 
ATOM     14  H   UNL     1       1.888   8.106  17.243  0.00  0.00    +0.000 HD
BRANCH  13  15
ATOM     15  C   UNL     1       1.379   9.036  19.076  0.00  0.00    +0.000 C 
BRANCH  15  16
ATOM     16  C   UNL     1       0.715  10.065  18.219  0.00  0.00    +0.000 C 
ATOM     17  C   UNL     1      -0.787  10.202  18.211  0.00  0.00    +0.000 C 
ATOM     18  C   UNL     1       0.059  11.274  18.839  0.00  0.00    +0.000 C 
ENDBRANCH  15  16
ENDBRANCH  13  15
ENDBRANCH   1  12
BRANCH   8  19
ATOM     19  C   UNL     1       7.564   7.979  17.485  0.00  0.00    +0.000 C 
BRANCH  19  20
ATOM     20  C   UNL     1       8.567   8.385  18.582  0.00  0.00    +0.000 C 
BRANCH  20  21
ATOM     21  C   UNL     1       8.840   9.869  18.591  0.00  0.00    +0.000 A 
ATOM     22  C   UNL     1       8.244  10.699  17.631  0.00  0.00    +0.000 A 
ATOM     23  C   UNL     1       8.474  12.075  17.644  0.00  0.00    +0.000 A 
ATOM     24  C   UNL     1       9.306  12.629  18.616  0.00  0.00    +0.000 A 
ATOM     25  C   UNL     1       9.907  11.810  19.570  0.00  0.00    +0.000 A 
ATOM     26  C   UNL     1       9.680  10.433  19.557  0.00  0.00    +0.000 A 
ENDBRANCH  20  21
ENDBRANCH  19  20
ENDBRANCH   8  19
TORSDOF 6
ENDMDL
MODEL 4
REMARK VINA RESULT:      -7.5      2.027      2.648
REMARK  Name = 
REMARK  6 active torsions:
REMARK  status: ('A' for Active; 'I' for Inactive)
REMARK    1  A    between atoms: C_2  and  C_8
REMARK    2  A    between atoms: N_3  and  C_4
REMARK    3  A    between atoms: C_4  and  C_5
REMARK    4  A    between atoms: N_15  and  C_16
REMARK    5  A    between atoms: C_16  and  C_17
REMARK    6  A    between atoms: C_17  and  C_18
REMARK                            x       y       z     vdW  Elec       q    Type
REMARK                         _______ _______ _______ _____ _____    ______ ____
ROOT
ATOM      1  C   UNL     1       4.309   4.030  18.131  0.00  0.00    +0.000 C 
ATOM      2  C   UNL     1       4.117   2.541  17.837  0.00  0.00    +0.000 C 
ATOM      3  C   UNL     1       3.575   1.838  19.078  0.00  0.00    +0.000 C 
ATOM      4  O   UNL     1       2.354   2.444  19.512  0.00  0.00    +0.000 OA
ATOM      5  C   UNL     1       2.537   3.815  19.877  0.00  0.00    +0.000 C 
ATOM      6  C   UNL     1       1.230   4.391  20.406  0.00  0.00    +0.000 C 
ATOM      7  C   UNL     1       1.410   5.870  20.753  0.00  0.00    +0.000 C 
ATOM      8  N   UNL     1       1.905   6.664  19.611  0.00  0.00    +0.000 NA
ATOM      9  C   UNL     1       3.140   6.097  19.045  0.00  0.00    +0.000 C 
ATOM     10  C   UNL     1       2.993   4.624  18.662  0.00  0.00    +0.000 C 
ENDROOT
BRANCH   1  12
ATOM     11  O   UNL     1       5.034   6.006  16.985  0.00  0.00    +0.000 OA
ATOM     12  C   UNL     1       4.869   4.788  16.935  0.00  0.00    +0.000 C 
ATOM     13  N   UNL     1       5.135   4.047  15.812  0.00  0.00    +0.000 N 
ATOM     14  H   UNL     1       4.810   3.091  15.759  0.00  0.00    +0.000 HD
BRANCH  13  15
ATOM     15  C   UNL     1       5.508   4.705  14.580  0.00  0.00    +0.000 C 
BRANCH  15  16
ATOM     16  C   UNL     1       6.227   3.743  13.692  0.00  0.00    +0.000 C 
ATOM     17  C   UNL     1       5.678   3.401  12.329  0.00  0.00    +0.000 C 
ATOM     18  C   UNL     1       6.930   4.224  12.447  0.00  0.00    +0.000 C 
ENDBRANCH  15  16
ENDBRANCH  13  15
ENDBRANCH   1  12
BRANCH   8  19
ATOM     19  C   UNL     1       2.120   8.069  20.039  0.00  0.00    +0.000 C 
BRANCH  19  20
ATOM     20  C   UNL     1       0.978   9.025  19.644  0.00  0.00    +0.000 C 
BRANCH  20  21
ATOM     21  C   UNL     1       0.307   9.648  20.844  0.00  0.00    +0.000 A 
ATOM     22  C   UNL     1      -0.364  10.873  20.716  0.00  0.00    +0.000 A 
ATOM     23  C   UNL     1      -1.005  11.446  21.814  0.00  0.00    +0.000 A 
ATOM     24  C   UNL     1      -0.974  10.800  23.049  0.00  0.00    +0.000 A 
ATOM     25  C   UNL     1      -0.304   9.586  23.186  0.00  0.00    +0.000 A 
ATOM     26  C   UNL     1       0.341   9.012  22.089  0.00  0.00    +0.000 A 
ENDBRANCH  20  21
ENDBRANCH  19  20
ENDBRANCH   8  19
TORSDOF 6
ENDMDL
MODEL 5
REMARK VINA RESULT:      -7.4      2.827      3.860
REMARK  Name = 
REMARK  6 active torsions:
REMARK  status: ('A' for Active; 'I' for Inactive)
REMARK    1  A    between atoms: C_2  and  C_8
REMARK    2  A    between atoms: N_3  and  C_4
REMARK    3  A    between atoms: C_4  and  C_5
REMARK    4  A    between atoms: N_15  and  C_16
REMARK    5  A    between atoms: C_16  and  C_17
REMARK    6  A    between atoms: C_17  and  C_18
REMARK                            x       y       z     vdW  Elec       q    Type
REMARK                         _______ _______ _______ _____ _____    ______ ____
ROOT
ATOM      1  C   UNL     1       4.279   3.787  18.136  0.00  0.00    +0.000 C 
ATOM      2  C   UNL     1       4.089   2.372  17.587  0.00  0.00    +0.000 C 
ATOM      3  C   UNL     1       3.430   1.494  18.646  0.00  0.00    +0.000 C 
ATOM      4  O   UNL     1       2.186   2.058  19.071  0.00  0.00    +0.000 OA
ATOM      5  C   UNL     1       2.359   3.346  19.670  0.00  0.00    +0.000 C 
ATOM      6  C   UNL     1       1.021   3.868  20.177  0.00  0.00    +0.000 C 
ATOM      7  C   UNL     1       1.195   5.265  20.775  0.00  0.00    +0.000 C 
ATOM      8  N   UNL     1       1.799   6.218  19.823  0.00  0.00    +0.000 NA
ATOM      9  C   UNL     1       3.070   5.713  19.277  0.00  0.00    +0.000 C 
ATOM     10  C   UNL     1       2.932   4.327  18.646  0.00  0.00    +0.000 C 
ENDROOT
BRANCH   1  12
ATOM     11  O   UNL     1       5.273   4.302  16.017  0.00  0.00    +0.000 OA
ATOM     12  C   UNL     1       4.954   4.712  17.131  0.00  0.00    +0.000 C 
ATOM     13  N   UNL     1       5.212   5.991  17.556  0.00  0.00    +0.000 N 
ATOM     14  H   UNL     1       5.101   6.222  18.534  0.00  0.00    +0.000 HD
BRANCH  13  15
ATOM     15  C   UNL     1       5.997   6.883  16.733  0.00  0.00    +0.000 C 
BRANCH  15  16
ATOM     16  C   UNL     1       7.432   6.816  17.144  0.00  0.00    +0.000 C 
ATOM     17  C   UNL     1       8.081   7.981  17.850  0.00  0.00    +0.000 C 
ATOM     18  C   UNL     1       7.810   6.707  18.600  0.00  0.00    +0.000 C 
ENDBRANCH  15  16
ENDBRANCH  13  15
ENDBRANCH   1  12
BRANCH   8  19
ATOM     19  C   UNL     1       2.000   7.528  20.493  0.00  0.00    +0.000 C 
BRANCH  19  20
ATOM     20  C   UNL     1       1.144   8.667  19.907  0.00  0.00    +0.000 C 
BRANCH  20  21
ATOM     21  C   UNL     1       0.408   9.441  20.973  0.00  0.00    +0.000 A 
ATOM     22  C   UNL     1       0.392   8.974  22.295  0.00  0.00    +0.000 A 
ATOM     23  C   UNL     1      -0.268   9.693  23.291  0.00  0.00    +0.000 A 
ATOM     24  C   UNL     1      -0.922  10.882  22.971  0.00  0.00    +0.000 A 
ATOM     25  C   UNL     1      -0.916  11.350  21.658  0.00  0.00    +0.000 A 
ATOM     26  C   UNL     1      -0.258  10.631  20.659  0.00  0.00    +0.000 A 
ENDBRANCH  20  21
ENDBRANCH  19  20
ENDBRANCH   8  19
TORSDOF 6
ENDMDL
MODEL 6
REMARK VINA RESULT:      -7.4      2.652      8.524
REMARK  Name = 
REMARK  6 active torsions:
REMARK  status: ('A' for Active; 'I' for Inactive)
REMARK    1  A    between atoms: C_2  and  C_8
REMARK    2  A    between atoms: N_3  and  C_4
REMARK    3  A    between atoms: C_4  and  C_5
REMARK    4  A    between atoms: N_15  and  C_16
REMARK    5  A    between atoms: C_16  and  C_17
REMARK    6  A    between atoms: C_17  and  C_18
REMARK                            x       y       z     vdW  Elec       q    Type
REMARK                         _______ _______ _______ _____ _____    ______ ____
ROOT
ATOM      1  C   UNL     1       2.055   5.493  19.980  0.00  0.00    +0.000 C 
ATOM      2  C   UNL     1       1.732   4.726  21.264  0.00  0.00    +0.000 C 
ATOM      3  C   UNL     1       1.939   3.232  21.035  0.00  0.00    +0.000 C 
ATOM      4  O   UNL     1       3.273   2.966  20.592  0.00  0.00    +0.000 OA
ATOM      5  C   UNL     1       3.561   3.605  19.345  0.00  0.00    +0.000 C 
ATOM      6  C   UNL     1       4.960   3.229  18.877  0.00  0.00    +0.000 C 
ATOM      7  C   UNL     1       5.288   3.948  17.568  0.00  0.00    +0.000 C 
ATOM      8  N   UNL     1       5.153   5.413  17.678  0.00  0.00    +0.000 NA
ATOM      9  C   UNL     1       3.825   5.804  18.179  0.00  0.00    +0.000 C 
ATOM     10  C   UNL     1       3.470   5.123  19.502  0.00  0.00    +0.000 C 
ENDROOT
BRANCH   1  12
ATOM     11  O   UNL     1       2.122   7.764  19.218  0.00  0.00    +0.000 OA
ATOM     12  C   UNL     1       1.847   6.994  20.136  0.00  0.00    +0.000 C 
ATOM     13  N   UNL     1       1.383   7.423  21.354  0.00  0.00    +0.000 N 
ATOM     14  H   UNL     1       1.351   6.775  22.130  0.00  0.00    +0.000 HD
BRANCH  13  15
ATOM     15  C   UNL     1       1.316   8.837  21.647  0.00  0.00    +0.000 C 
BRANCH  15  16
ATOM     16  C   UNL     1      -0.093   9.221  21.960  0.00  0.00    +0.000 C 
ATOM     17  C   UNL     1      -0.435   9.872  23.278  0.00  0.00    +0.000 C 
ATOM     18  C   UNL     1      -0.501  10.673  22.007  0.00  0.00    +0.000 C 
ENDBRANCH  15  16
ENDBRANCH  13  15
ENDBRANCH   1  12
BRANCH   8  19
ATOM     19  C   UNL     1       5.419   6.036  16.357  0.00  0.00    +0.000 C 
BRANCH  19  20
ATOM     20  C   UNL     1       6.797   5.685  15.764  0.00  0.00    +0.000 C 
BRANCH  20  21
ATOM     21  C   UNL     1       6.690   4.994  14.427  0.00  0.00    +0.000 A 
ATOM     22  C   UNL     1       7.656   5.226  13.438  0.00  0.00    +0.000 A 
ATOM     23  C   UNL     1       7.578   4.576  12.206  0.00  0.00    +0.000 A 
ATOM     24  C   UNL     1       6.529   3.694  11.954  0.00  0.00    +0.000 A 
ATOM     25  C   UNL     1       5.561   3.462  12.929  0.00  0.00    +0.000 A 
ATOM     26  C   UNL     1       5.636   4.113  14.162  0.00  0.00    +0.000 A 
ENDBRANCH  20  21
ENDBRANCH  19  20
ENDBRANCH   8  19
TORSDOF 6
ENDMDL
MODEL 7
REMARK VINA RESULT:      -7.3      2.220      2.967
REMARK  Name = 
REMARK  6 active torsions:
REMARK  status: ('A' for Active; 'I' for Inactive)
REMARK    1  A    between atoms: C_2  and  C_8
REMARK    2  A    between atoms: N_3  and  C_4
REMARK    3  A    between atoms: C_4  and  C_5
REMARK    4  A    between atoms: N_15  and  C_16
REMARK    5  A    between atoms: C_16  and  C_17
REMARK    6  A    between atoms: C_17  and  C_18
REMARK                            x       y       z     vdW  Elec       q    Type
REMARK                         _______ _______ _______ _____ _____    ______ ____
ROOT
ATOM      1  C   UNL     1       4.489   3.760  18.348  0.00  0.00    +0.000 C 
ATOM      2  C   UNL     1       4.312   2.384  17.702  0.00  0.00    +0.000 C 
ATOM      3  C   UNL     1       3.476   1.492  18.614  0.00  0.00    +0.000 C 
ATOM      4  O   UNL     1       2.213   2.099  18.900  0.00  0.00    +0.000 OA
ATOM      5  C   UNL     1       2.361   3.346  19.586  0.00  0.00    +0.000 C 
ATOM      6  C   UNL     1       0.991   3.912  19.937  0.00  0.00    +0.000 C 
ATOM      7  C   UNL     1       1.145   5.268  20.628  0.00  0.00    +0.000 C 
ATOM      8  N   UNL     1       1.915   6.233  19.819  0.00  0.00    +0.000 NA
ATOM      9  C   UNL     1       3.224   5.689  19.420  0.00  0.00    +0.000 C 
ATOM     10  C   UNL     1       3.111   4.344  18.703  0.00  0.00    +0.000 C 
ENDROOT
BRANCH   1  12
ATOM     11  O   UNL     1       5.112   5.904  17.477  0.00  0.00    +0.000 OA
ATOM     12  C   UNL     1       5.335   4.695  17.494  0.00  0.00    +0.000 C 
ATOM     13  N   UNL     1       6.314   4.108  16.731  0.00  0.00    +0.000 N 
ATOM     14  H   UNL     1       6.334   3.102  16.638  0.00  0.00    +0.000 HD
BRANCH  13  15
ATOM     15  C   UNL     1       7.050   4.894  15.768  0.00  0.00    +0.000 C 
BRANCH  15  16
ATOM     16  C   UNL     1       6.290   4.958  14.483  0.00  0.00    +0.000 C 
ATOM     17  C   UNL     1       6.774   4.207  13.267  0.00  0.00    +0.000 C 
ATOM     18  C   UNL     1       5.530   3.756  13.979  0.00  0.00    +0.000 C 
ENDBRANCH  15  16
ENDBRANCH  13  15
ENDBRANCH   1  12
BRANCH   8  19
ATOM     19  C   UNL     1       2.082   7.497  20.579  0.00  0.00    +0.000 C 
BRANCH  19  20
ATOM     20  C   UNL     1       1.340   8.699  19.965  0.00  0.00    +0.000 C 
BRANCH  20  21
ATOM     21  C   UNL     1       0.520   9.453  20.983  0.00  0.00    +0.000 A 
ATOM     22  C   UNL     1       0.418   8.972  22.296  0.00  0.00    +0.000 A 
ATOM     23  C   UNL     1      -0.320   9.673  23.250  0.00  0.00    +0.000 A 
ATOM     24  C   UNL     1      -0.966  10.855  22.895  0.00  0.00    +0.000 A 
ATOM     25  C   UNL     1      -0.876  11.336  21.590  0.00  0.00    +0.000 A 
ATOM     26  C   UNL     1      -0.139  10.636  20.633  0.00  0.00    +0.000 A 
ENDBRANCH  20  21
ENDBRANCH  19  20
ENDBRANCH   8  19
TORSDOF 6
ENDMDL
MODEL 8
REMARK VINA RESULT:      -7.3      2.802      3.733
REMARK  Name = 
REMARK  6 active torsions:
REMARK  status: ('A' for Active; 'I' for Inactive)
REMARK    1  A    between atoms: C_2  and  C_8
REMARK    2  A    between atoms: N_3  and  C_4
REMARK    3  A    between atoms: C_4  and  C_5
REMARK    4  A    between atoms: N_15  and  C_16
REMARK    5  A    between atoms: C_16  and  C_17
REMARK    6  A    between atoms: C_17  and  C_18
REMARK                            x       y       z     vdW  Elec       q    Type
REMARK                         _______ _______ _______ _____ _____    ______ ____
ROOT
ATOM      1  C   UNL     1       4.169   3.823  18.133  0.00  0.00    +0.000 C 
ATOM      2  C   UNL     1       3.971   2.365  17.712  0.00  0.00    +0.000 C 
ATOM      3  C   UNL     1       3.357   1.577  18.865  0.00  0.00    +0.000 C 
ATOM      4  O   UNL     1       2.125   2.169  19.286  0.00  0.00    +0.000 OA
ATOM      5  C   UNL     1       2.309   3.503  19.767  0.00  0.00    +0.000 C 
ATOM      6  C   UNL     1       0.986   4.060  20.277  0.00  0.00    +0.000 C 
ATOM      7  C   UNL     1       1.169   5.503  20.748  0.00  0.00    +0.000 C 
ATOM      8  N   UNL     1       1.731   6.375  19.698  0.00  0.00    +0.000 NA
ATOM      9  C   UNL     1       2.985   5.832  19.150  0.00  0.00    +0.000 C 
ATOM     10  C   UNL     1       2.836   4.397  18.644  0.00  0.00    +0.000 C 
ENDROOT
BRANCH   1  12
ATOM     11  O   UNL     1       4.937   4.207  15.895  0.00  0.00    +0.000 OA
ATOM     12  C   UNL     1       4.799   4.662  17.029  0.00  0.00    +0.000 C 
ATOM     13  N   UNL     1       5.229   5.916  17.385  0.00  0.00    +0.000 N 
ATOM     14  H   UNL     1       5.263   6.170  18.363  0.00  0.00    +0.000 HD
BRANCH  13  15
ATOM     15  C   UNL     1       5.987   6.714  16.450  0.00  0.00    +0.000 C 
BRANCH  15  16
ATOM     16  C   UNL     1       7.403   6.827  16.914  0.00  0.00    +0.000 C 
ATOM     17  C   UNL     1       7.865   8.044  17.677  0.00  0.00    +0.000 C 
ATOM     18  C   UNL     1       7.741   6.722  18.381  0.00  0.00    +0.000 C 
ENDBRANCH  15  16
ENDBRANCH  13  15
ENDBRANCH   1  12
BRANCH   8  19
ATOM     19  C   UNL     1       1.944   7.738  20.246  0.00  0.00    +0.000 C 
BRANCH  19  20
ATOM     20  C   UNL     1       1.365   7.942  21.659  0.00  0.00    +0.000 C 
BRANCH  20  21
ATOM     21  C   UNL     1       0.518   9.186  21.760  0.00  0.00    +0.000 A 
ATOM     22  C   UNL     1       0.407  10.052  20.662  0.00  0.00    +0.000 A 
ATOM     23  C   UNL     1      -0.390  11.193  20.739  0.00  0.00    +0.000 A 
ATOM     24  C   UNL     1      -1.079  11.480  21.916  0.00  0.00    +0.000 A 
ATOM     25  C   UNL     1      -0.970  10.629  23.014  0.00  0.00    +0.000 A 
ATOM     26  C   UNL     1      -0.170   9.487  22.941  0.00  0.00    +0.000 A 
ENDBRANCH  20  21
ENDBRANCH  19  20
ENDBRANCH   8  19
TORSDOF 6
ENDMDL
MODEL 9
REMARK VINA RESULT:      -7.3      1.641      8.047
REMARK  Name = 
REMARK  6 active torsions:
REMARK  status: ('A' for Active; 'I' for Inactive)
REMARK    1  A    between atoms: C_2  and  C_8
REMARK    2  A    between atoms: N_3  and  C_4
REMARK    3  A    between atoms: C_4  and  C_5
REMARK    4  A    between atoms: N_15  and  C_16
REMARK    5  A    between atoms: C_16  and  C_17
REMARK    6  A    between atoms: C_17  and  C_18
REMARK                            x       y       z     vdW  Elec       q    Type
REMARK                         _______ _______ _______ _____ _____    ______ ____
ROOT
ATOM      1  C   UNL     1       2.086   6.135  19.587  0.00  0.00    +0.000 C 
ATOM      2  C   UNL     1       1.533   5.510  20.869  0.00  0.00    +0.000 C 
ATOM      3  C   UNL     1       1.662   3.992  20.798  0.00  0.00    +0.000 C 
ATOM      4  O   UNL     1       3.022   3.608  20.577  0.00  0.00    +0.000 OA
ATOM      5  C   UNL     1       3.526   4.111  19.336  0.00  0.00    +0.000 C 
ATOM      6  C   UNL     1       4.946   3.610  19.109  0.00  0.00    +0.000 C 
ATOM      7  C   UNL     1       5.504   4.184  17.806  0.00  0.00    +0.000 C 
ATOM      8  N   UNL     1       5.461   5.659  17.773  0.00  0.00    +0.000 NA
ATOM      9  C   UNL     1       4.107   6.172  18.042  0.00  0.00    +0.000 C 
ATOM     10  C   UNL     1       3.523   5.639  19.351  0.00  0.00    +0.000 C 
ENDROOT
BRANCH   1  12
ATOM     11  O   UNL     1       2.034   8.289  20.637  0.00  0.00    +0.000 OA
ATOM     12  C   UNL     1       1.967   7.653  19.586  0.00  0.00    +0.000 C 
ATOM     13  N   UNL     1       1.746   8.248  18.370  0.00  0.00    +0.000 N 
ATOM     14  H   UNL     1       1.514   7.673  17.571  0.00  0.00    +0.000 HD
BRANCH  13  15
ATOM     15  C   UNL     1       1.454   9.661  18.297  0.00  0.00    +0.000 C 
BRANCH  15  16
ATOM     16  C   UNL     1       0.088   9.923  18.845  0.00  0.00    +0.000 C 
ATOM     17  C   UNL     1      -0.410  11.337  19.017  0.00  0.00    +0.000 C 
ATOM     18  C   UNL     1      -1.008  10.456  17.956  0.00  0.00    +0.000 C 
ENDBRANCH  15  16
ENDBRANCH  13  15
ENDBRANCH   1  12
BRANCH   8  19
ATOM     19  C   UNL     1       5.952   6.141  16.458  0.00  0.00    +0.000 C 
BRANCH  19  20
ATOM     20  C   UNL     1       7.155   5.349  15.911  0.00  0.00    +0.000 C 
BRANCH  20  21
ATOM     21  C   UNL     1       6.914   4.823  14.517  0.00  0.00    +0.000 A 
ATOM     22  C   UNL     1       7.750   5.218  13.463  0.00  0.00    +0.000 A 
ATOM     23  C   UNL     1       7.548   4.722  12.175  0.00  0.00    +0.000 A 
ATOM     24  C   UNL     1       6.504   3.831  11.932  0.00  0.00    +0.000 A 
ATOM     25  C   UNL     1       5.664   3.438  12.973  0.00  0.00    +0.000 A 
ATOM     26  C   UNL     1       5.863   3.936  14.262  0.00  0.00    +0.000 A 
ENDBRANCH  20  21
ENDBRANCH  19  20
ENDBRANCH   8  19
TORSDOF 6
ENDMDL
