MODEL 1
REMARK VINA RESULT:      -7.6      0.000      0.000
REMARK  Name = 
REMARK  5 active torsions:
REMARK  status: ('A' for Active; 'I' for Inactive)
REMARK    1  A    between atoms: C_1  and  C_2
REMARK    2  A    between atoms: C_2  and  N_3
REMARK    3  A    between atoms: C_6  and  C_7
REMARK    4  A    between atoms: C_8  and  N_9
REMARK    5  A    between atoms: C_19  and  C_20
REMARK                            x       y       z     vdW  Elec       q    Type
REMARK                         _______ _______ _______ _____ _____    ______ ____
ROOT
ATOM      1  N   UNL     1       5.016   4.023  16.232  0.00  0.00    +0.000 N 
ATOM      2  C   UNL     1       4.174   4.785  17.085  0.00  0.00    +0.000 C 
ATOM      3  O   UNL     1       4.200   6.000  17.066  0.00  0.00    +0.000 OA
ATOM      4  N   UNL     1       3.251   3.970  17.718  0.00  0.00    +0.000 N 
ATOM      5  C   UNL     1       2.060   4.616  18.275  0.00  0.00    +0.000 C 
ATOM      6  C   UNL     1       0.863   3.671  18.272  0.00  0.00    +0.000 C 
ATOM      7  C   UNL     1       1.207   2.340  18.908  0.00  0.00    +0.000 C 
ATOM      8  F   UNL     1       0.175   1.478  18.727  0.00  0.00    +0.000 F 
ATOM      9  F   UNL     1       1.337   2.500  20.248  0.00  0.00    +0.000 F 
ATOM     10  C   UNL     1       2.471   1.722  18.343  0.00  0.00    +0.000 C 
ATOM     11  C   UNL     1       3.645   2.703  18.362  0.00  0.00    +0.000 C 
ATOM     12  C   UNL     1       4.210   2.942  19.768  0.00  0.00    +0.000 C 
ATOM     13  H   UNL     1       4.706   3.091  16.000  0.00  0.00    +0.000 HD
ENDROOT
BRANCH   1  19
ATOM     14  N   UNL     1       7.056   5.403  15.686  0.00  0.00    +0.000 N 
ATOM     15  N   UNL     1       7.877   5.554  14.620  0.00  0.00    +0.000 NA
ATOM     16  C   UNL     1       7.248   4.920  13.634  0.00  0.00    +0.000 A 
ATOM     17  C   UNL     1       6.063   4.289  14.066  0.00  0.00    +0.000 A 
ATOM     18  C   UNL     1       5.078   3.576  13.222  0.00  0.00    +0.000 C 
ATOM     19  C   UNL     1       6.001   4.564  15.421  0.00  0.00    +0.000 A 
BRANCH  14  21
ATOM     20  C   UNL     1       7.696   5.066  18.023  0.00  0.00    +0.000 C 
ATOM     21  C   UNL     1       7.434   6.073  16.915  0.00  0.00    +0.000 C 
ENDBRANCH  14  21
ENDBRANCH   1  19
TORSDOF 2
ENDMDL
MODEL 2
REMARK VINA RESULT:      -7.5      1.437      1.890
REMARK  Name = 
REMARK  5 active torsions:
REMARK  status: ('A' for Active; 'I' for Inactive)
REMARK    1  A    between atoms: C_1  and  C_2
REMARK    2  A    between atoms: C_2  and  N_3
REMARK    3  A    between atoms: C_6  and  C_7
REMARK    4  A    between atoms: C_8  and  N_9
REMARK    5  A    between atoms: C_19  and  C_20
REMARK                            x       y       z     vdW  Elec       q    Type
REMARK                         _______ _______ _______ _____ _____    ______ ____
ROOT
ATOM      1  N   UNL     1       4.802   4.803  16.922  0.00  0.00    +0.000 N 
ATOM      2  C   UNL     1       4.910   4.110  18.156  0.00  0.00    +0.000 C 
ATOM      3  O   UNL     1       5.996   3.890  18.658  0.00  0.00    +0.000 OA
ATOM      4  N   UNL     1       3.663   3.943  18.735  0.00  0.00    +0.000 N 
ATOM      5  C   UNL     1       3.626   3.652  20.170  0.00  0.00    +0.000 C 
ATOM      6  C   UNL     1       2.351   4.186  20.813  0.00  0.00    +0.000 C 
ATOM      7  C   UNL     1       1.119   3.740  20.053  0.00  0.00    +0.000 C 
ATOM      8  F   UNL     1       0.030   4.378  20.552  0.00  0.00    +0.000 F 
ATOM      9  F   UNL     1       0.912   2.417  20.262  0.00  0.00    +0.000 F 
ATOM     10  C   UNL     1       1.210   4.013  18.564  0.00  0.00    +0.000 C 
ATOM     11  C   UNL     1       2.504   3.463  17.960  0.00  0.00    +0.000 C 
ATOM     12  C   UNL     1       2.510   1.934  17.833  0.00  0.00    +0.000 C 
ATOM     13  H   UNL     1       3.936   5.288  16.745  0.00  0.00    +0.000 HD
ENDROOT
BRANCH   1  19
ATOM     14  N   UNL     1       6.870   6.113  16.305  0.00  0.00    +0.000 N 
ATOM     15  N   UNL     1       7.834   6.027  15.360  0.00  0.00    +0.000 NA
ATOM     16  C   UNL     1       7.372   5.118  14.506  0.00  0.00    +0.000 A 
ATOM     17  C   UNL     1       6.151   4.553  14.927  0.00  0.00    +0.000 A 
ATOM     18  C   UNL     1       5.316   3.584  14.180  0.00  0.00    +0.000 C 
ATOM     19  C   UNL     1       5.883   5.170  16.136  0.00  0.00    +0.000 A 
BRANCH  14  21
ATOM     20  C   UNL     1       7.893   6.551  18.484  0.00  0.00    +0.000 C 
ATOM     21  C   UNL     1       7.048   7.104  17.348  0.00  0.00    +0.000 C 
ENDBRANCH  14  21
ENDBRANCH   1  19
TORSDOF 2
ENDMDL
MODEL 3
REMARK VINA RESULT:      -7.1      1.823      3.450
REMARK  Name = 
REMARK  5 active torsions:
REMARK  status: ('A' for Active; 'I' for Inactive)
REMARK    1  A    between atoms: C_1  and  C_2
REMARK    2  A    between atoms: C_2  and  N_3
REMARK    3  A    between atoms: C_6  and  C_7
REMARK    4  A    between atoms: C_8  and  N_9
REMARK    5  A    between atoms: C_19  and  C_20
REMARK                            x       y       z     vdW  Elec       q    Type
REMARK                         _______ _______ _______ _____ _____    ______ ____
ROOT
ATOM      1  N   UNL     1       4.926   5.434  18.604  0.00  0.00    +0.000 N 
ATOM      2  C   UNL     1       4.563   4.086  18.345  0.00  0.00    +0.000 C 
ATOM      3  O   UNL     1       5.282   3.361  17.684  0.00  0.00    +0.000 OA
ATOM      4  N   UNL     1       3.458   3.723  19.095  0.00  0.00    +0.000 N 
ATOM      5  C   UNL     1       3.219   2.290  19.284  0.00  0.00    +0.000 C 
ATOM      6  C   UNL     1       2.515   2.013  20.607  0.00  0.00    +0.000 C 
ATOM      7  C   UNL     1       1.283   2.878  20.770  0.00  0.00    +0.000 C 
ATOM      8  F   UNL     1       0.792   2.727  22.027  0.00  0.00    +0.000 F 
ATOM      9  F   UNL     1       0.312   2.445  19.929  0.00  0.00    +0.000 F 
ATOM     10  C   UNL     1       1.554   4.349  20.522  0.00  0.00    +0.000 C 
ATOM     11  C   UNL     1       2.263   4.582  19.186  0.00  0.00    +0.000 C 
ATOM     12  C   UNL     1       1.343   4.392  17.972  0.00  0.00    +0.000 C 
ATOM     13  H   UNL     1       4.535   5.861  19.430  0.00  0.00    +0.000 HD
ENDROOT
BRANCH   1  19
ATOM     14  N   UNL     1       6.224   6.668  16.826  0.00  0.00    +0.000 N 
ATOM     15  N   UNL     1       7.411   7.314  16.754  0.00  0.00    +0.000 NA
ATOM     16  C   UNL     1       8.025   6.990  17.888  0.00  0.00    +0.000 A 
ATOM     17  C   UNL     1       7.218   6.203  18.735  0.00  0.00    +0.000 A 
ATOM     18  C   UNL     1       7.613   5.595  20.026  0.00  0.00    +0.000 C 
ATOM     19  C   UNL     1       6.026   6.068  18.046  0.00  0.00    +0.000 A 
BRANCH  14  21
ATOM     20  C   UNL     1       5.381   5.469  14.867  0.00  0.00    +0.000 C 
ATOM     21  C   UNL     1       5.349   6.757  15.673  0.00  0.00    +0.000 C 
ENDBRANCH  14  21
ENDBRANCH   1  19
TORSDOF 2
ENDMDL
MODEL 4
REMARK VINA RESULT:      -6.9      3.872      6.731
REMARK  Name = 
REMARK  5 active torsions:
REMARK  status: ('A' for Active; 'I' for Inactive)
REMARK    1  A    between atoms: C_1  and  C_2
REMARK    2  A    between atoms: C_2  and  N_3
REMARK    3  A    between atoms: C_6  and  C_7
REMARK    4  A    between atoms: C_8  and  N_9
REMARK    5  A    between atoms: C_19  and  C_20
REMARK                            x       y       z     vdW  Elec       q    Type
REMARK                         _______ _______ _______ _____ _____    ______ ____
ROOT
ATOM      1  N   UNL     1       4.135   4.613  19.411  0.00  0.00    +0.000 N 
ATOM      2  C   UNL     1       4.153   5.312  18.176  0.00  0.00    +0.000 C 
ATOM      3  O   UNL     1       3.149   5.406  17.496  0.00  0.00    +0.000 OA
ATOM      4  N   UNL     1       5.350   5.988  18.013  0.00  0.00    +0.000 N 
ATOM      5  C   UNL     1       5.372   7.081  17.038  0.00  0.00    +0.000 C 
ATOM      6  C   UNL     1       6.384   8.153  17.428  0.00  0.00    +0.000 C 
ATOM      7  C   UNL     1       7.742   7.552  17.724  0.00  0.00    +0.000 C 
ATOM      8  F   UNL     1       8.556   8.511  18.233  0.00  0.00    +0.000 F 
ATOM      9  F   UNL     1       8.317   7.142  16.567  0.00  0.00    +0.000 F 
ATOM     10  C   UNL     1       7.678   6.393  18.700  0.00  0.00    +0.000 C 
ATOM     11  C   UNL     1       6.650   5.343  18.272  0.00  0.00    +0.000 C 
ATOM     12  C   UNL     1       7.107   4.503  17.072  0.00  0.00    +0.000 C 
ATOM     13  H   UNL     1       4.829   4.876  20.095  0.00  0.00    +0.000 HD
ENDROOT
BRANCH   1  19
ATOM     14  N   UNL     1       2.727   2.555  19.807  0.00  0.00    +0.000 N 
ATOM     15  N   UNL     1       1.643   2.243  20.553  0.00  0.00    +0.000 NA
ATOM     16  C   UNL     1       1.195   3.419  20.984  0.00  0.00    +0.000 A 
ATOM     17  C   UNL     1       2.024   4.489  20.591  0.00  0.00    +0.000 A 
ATOM     18  C   UNL     1       1.780   5.932  20.818  0.00  0.00    +0.000 C 
ATOM     19  C   UNL     1       3.051   3.889  19.884  0.00  0.00    +0.000 A 
BRANCH  14  21
ATOM     20  C   UNL     1       3.492   1.752  17.626  0.00  0.00    +0.000 C 
ATOM     21  C   UNL     1       3.394   1.469  19.117  0.00  0.00    +0.000 C 
ENDBRANCH  14  21
ENDBRANCH   1  19
TORSDOF 2
ENDMDL
MODEL 5
REMARK VINA RESULT:      -6.9      0.826      2.315
REMARK  Name = 
REMARK  5 active torsions:
REMARK  status: ('A' for Active; 'I' for Inactive)
REMARK    1  A    between atoms: C_1  and  C_2
REMARK    2  A    between atoms: C_2  and  N_3
REMARK    3  A    between atoms: C_6  and  C_7
REMARK    4  A    between atoms: C_8  and  N_9
REMARK    5  A    between atoms: C_19  and  C_20
REMARK                            x       y       z     vdW  Elec       q    Type
REMARK                         _______ _______ _______ _____ _____    ______ ____
ROOT
ATOM      1  N   UNL     1       5.000   3.757  16.319  0.00  0.00    +0.000 N 
ATOM      2  C   UNL     1       4.218   4.589  17.163  0.00  0.00    +0.000 C 
ATOM      3  O   UNL     1       4.319   5.800  17.114  0.00  0.00    +0.000 OA
ATOM      4  N   UNL     1       3.256   3.848  17.827  0.00  0.00    +0.000 N 
ATOM      5  C   UNL     1       2.113   4.579  18.381  0.00  0.00    +0.000 C 
ATOM      6  C   UNL     1       0.861   3.711  18.415  0.00  0.00    +0.000 C 
ATOM      7  C   UNL     1       1.130   2.376  19.079  0.00  0.00    +0.000 C 
ATOM      8  F   UNL     1       0.045   1.575  18.931  0.00  0.00    +0.000 F 
ATOM      9  F   UNL     1       1.287   2.558  20.413  0.00  0.00    +0.000 F 
ATOM     10  C   UNL     1       2.346   1.668  18.514  0.00  0.00    +0.000 C 
ATOM     11  C   UNL     1       3.579   2.575  18.496  0.00  0.00    +0.000 C 
ATOM     12  C   UNL     1       4.176   2.811  19.889  0.00  0.00    +0.000 C 
ATOM     13  H   UNL     1       4.631   2.841  16.113  0.00  0.00    +0.000 HD
ENDROOT
BRANCH   1  19
ATOM     14  N   UNL     1       6.104   4.296  14.114  0.00  0.00    +0.000 N 
ATOM     15  N   UNL     1       7.207   4.969  13.713  0.00  0.00    +0.000 NA
ATOM     16  C   UNL     1       7.882   5.185  14.838  0.00  0.00    +0.000 A 
ATOM     17  C   UNL     1       7.191   4.729  15.980  0.00  0.00    +0.000 A 
ATOM     18  C   UNL     1       7.685   4.728  17.376  0.00  0.00    +0.000 C 
ATOM     19  C   UNL     1       6.006   4.217  15.483  0.00  0.00    +0.000 A 
BRANCH  14  21
ATOM     20  C   UNL     1       5.941   3.044  12.018  0.00  0.00    +0.000 C 
ATOM     21  C   UNL     1       5.196   3.833  13.083  0.00  0.00    +0.000 C 
ENDBRANCH  14  21
ENDBRANCH   1  19
TORSDOF 2
ENDMDL
MODEL 6
REMARK VINA RESULT:      -6.8      3.743      6.490
REMARK  Name = 
REMARK  5 active torsions:
REMARK  status: ('A' for Active; 'I' for Inactive)
REMARK    1  A    between atoms: C_1  and  C_2
REMARK    2  A    between atoms: C_2  and  N_3
REMARK    3  A    between atoms: C_6  and  C_7
REMARK    4  A    between atoms: C_8  and  N_9
REMARK    5  A    between atoms: C_19  and  C_20
REMARK                            x       y       z     vdW  Elec       q    Type
REMARK                         _______ _______ _______ _____ _____    ______ ____
ROOT
ATOM      1  N   UNL     1       4.216   4.233  19.107  0.00  0.00    +0.000 N 
ATOM      2  C   UNL     1       4.200   5.101  17.984  0.00  0.00    +0.000 C 
ATOM      3  O   UNL     1       3.180   5.277  17.344  0.00  0.00    +0.000 OA
ATOM      4  N   UNL     1       5.385   5.810  17.895  0.00  0.00    +0.000 N 
ATOM      5  C   UNL     1       5.375   7.031  17.085  0.00  0.00    +0.000 C 
ATOM      6  C   UNL     1       6.383   8.050  17.603  0.00  0.00    +0.000 C 
ATOM      7  C   UNL     1       7.754   7.431  17.783  0.00  0.00    +0.000 C 
ATOM      8  F   UNL     1       8.568   8.320  18.407  0.00  0.00    +0.000 F 
ATOM      9  F   UNL     1       8.307   7.198  16.568  0.00  0.00    +0.000 F 
ATOM     10  C   UNL     1       7.723   6.145  18.585  0.00  0.00    +0.000 C 
ATOM     11  C   UNL     1       6.698   5.152  18.033  0.00  0.00    +0.000 C 
ATOM     12  C   UNL     1       7.137   4.498  16.717  0.00  0.00    +0.000 C 
ATOM     13  H   UNL     1       4.921   4.407  19.807  0.00  0.00    +0.000 HD
ENDROOT
BRANCH   1  19
ATOM     14  N   UNL     1       2.138   3.625  20.405  0.00  0.00    +0.000 N 
ATOM     15  N   UNL     1       1.204   2.648  20.350  0.00  0.00    +0.000 NA
ATOM     16  C   UNL     1       1.711   1.761  19.498  0.00  0.00    +0.000 A 
ATOM     17  C   UNL     1       2.932   2.188  18.937  0.00  0.00    +0.000 A 
ATOM     18  C   UNL     1       3.809   1.416  18.027  0.00  0.00    +0.000 C 
ATOM     19  C   UNL     1       3.150   3.436  19.494  0.00  0.00    +0.000 A 
BRANCH  14  21
ATOM     20  C   UNL     1       1.626   6.010  20.594  0.00  0.00    +0.000 C 
ATOM     21  C   UNL     1       1.908   4.713  21.335  0.00  0.00    +0.000 C 
ENDBRANCH  14  21
ENDBRANCH   1  19
TORSDOF 2
ENDMDL
MODEL 7
REMARK VINA RESULT:      -6.5      1.475      2.903
REMARK  Name = 
REMARK  5 active torsions:
REMARK  status: ('A' for Active; 'I' for Inactive)
REMARK    1  A    between atoms: C_1  and  C_2
REMARK    2  A    between atoms: C_2  and  N_3
REMARK    3  A    between atoms: C_6  and  C_7
REMARK    4  A    between atoms: C_8  and  N_9
REMARK    5  A    between atoms: C_19  and  C_20
REMARK                            x       y       z     vdW  Elec       q    Type
REMARK                         _______ _______ _______ _____ _____    ______ ____
ROOT
ATOM      1  N   UNL     1       4.906   4.801  16.902  0.00  0.00    +0.000 N 
ATOM      2  C   UNL     1       4.972   4.061  18.112  0.00  0.00    +0.000 C 
ATOM      3  O   UNL     1       6.042   3.743  18.593  0.00  0.00    +0.000 OA
ATOM      4  N   UNL     1       3.721   3.970  18.699  0.00  0.00    +0.000 N 
ATOM      5  C   UNL     1       3.675   3.635  20.124  0.00  0.00    +0.000 C 
ATOM      6  C   UNL     1       2.450   4.243  20.799  0.00  0.00    +0.000 C 
ATOM      7  C   UNL     1       1.181   3.918  20.039  0.00  0.00    +0.000 C 
ATOM      8  F   UNL     1       0.148   4.620  20.571  0.00  0.00    +0.000 F 
ATOM      9  F   UNL     1       0.876   2.608  20.208  0.00  0.00    +0.000 F 
ATOM     10  C   UNL     1       1.279   4.233  18.559  0.00  0.00    +0.000 C 
ATOM     11  C   UNL     1       2.522   3.606  17.923  0.00  0.00    +0.000 C 
ATOM     12  C   UNL     1       2.410   2.086  17.746  0.00  0.00    +0.000 C 
ATOM     13  H   UNL     1       4.078   5.356  16.751  0.00  0.00    +0.000 HD
ENDROOT
BRANCH   1  19
ATOM     14  N   UNL     1       6.428   4.641  14.895  0.00  0.00    +0.000 N 
ATOM     15  N   UNL     1       7.479   5.341  14.408  0.00  0.00    +0.000 NA
ATOM     16  C   UNL     1       7.810   6.162  15.400  0.00  0.00    +0.000 A 
ATOM     17  C   UNL     1       6.935   6.060  16.501  0.00  0.00    +0.000 A 
ATOM     18  C   UNL     1       7.059   6.756  17.802  0.00  0.00    +0.000 C 
ATOM     19  C   UNL     1       6.005   5.111  16.115  0.00  0.00    +0.000 A 
BRANCH  14  21
ATOM     20  C   UNL     1       6.420   3.691  12.640  0.00  0.00    +0.000 C 
ATOM     21  C   UNL     1       5.889   3.585  14.061  0.00  0.00    +0.000 C 
ENDBRANCH  14  21
ENDBRANCH   1  19
TORSDOF 2
ENDMDL
MODEL 8
REMARK VINA RESULT:      -6.5      3.808      6.464
REMARK  Name = 
REMARK  5 active torsions:
REMARK  status: ('A' for Active; 'I' for Inactive)
REMARK    1  A    between atoms: C_1  and  C_2
REMARK    2  A    between atoms: C_2  and  N_3
REMARK    3  A    between atoms: C_6  and  C_7
REMARK    4  A    between atoms: C_8  and  N_9
REMARK    5  A    between atoms: C_19  and  C_20
REMARK                            x       y       z     vdW  Elec       q    Type
REMARK                         _______ _______ _______ _____ _____    ______ ____
ROOT
ATOM      1  N   UNL     1       3.254   6.624  18.277  0.00  0.00    +0.000 N 
ATOM      2  C   UNL     1       4.336   5.750  18.562  0.00  0.00    +0.000 C 
ATOM      3  O   UNL     1       4.499   5.300  19.680  0.00  0.00    +0.000 OA
ATOM      4  N   UNL     1       4.977   5.368  17.396  0.00  0.00    +0.000 N 
ATOM      5  C   UNL     1       5.808   4.162  17.454  0.00  0.00    +0.000 C 
ATOM      6  C   UNL     1       5.852   3.452  16.106  0.00  0.00    +0.000 C 
ATOM      7  C   UNL     1       6.214   4.407  14.988  0.00  0.00    +0.000 C 
ATOM      8  F   UNL     1       6.070   3.776  13.795  0.00  0.00    +0.000 F 
ATOM      9  F   UNL     1       7.525   4.740  15.085  0.00  0.00    +0.000 F 
ATOM     10  C   UNL     1       5.367   5.665  14.985  0.00  0.00    +0.000 C 
ATOM     11  C   UNL     1       5.349   6.344  16.356  0.00  0.00    +0.000 C 
ATOM     12  C   UNL     1       6.666   7.052  16.698  0.00  0.00    +0.000 C 
ATOM     13  H   UNL     1       2.935   6.658  17.321  0.00  0.00    +0.000 HD
ENDROOT
BRANCH   1  19
ATOM     14  N   UNL     1       1.838   6.580  20.366  0.00  0.00    +0.000 N 
ATOM     15  N   UNL     1       1.166   7.489  21.109  0.00  0.00    +0.000 NA
ATOM     16  C   UNL     1       1.170   8.588  20.361  0.00  0.00    +0.000 A 
ATOM     17  C   UNL     1       1.908   8.428  19.169  0.00  0.00    +0.000 A 
ATOM     18  C   UNL     1       2.046   9.411  18.071  0.00  0.00    +0.000 C 
ATOM     19  C   UNL     1       2.388   7.132  19.233  0.00  0.00    +0.000 A 
BRANCH  14  21
ATOM     20  C   UNL     1       1.033   4.285  20.100  0.00  0.00    +0.000 C 
ATOM     21  C   UNL     1       1.927   5.230  20.887  0.00  0.00    +0.000 C 
ENDBRANCH  14  21
ENDBRANCH   1  19
TORSDOF 2
ENDMDL
MODEL 9
REMARK VINA RESULT:      -6.4      1.476      3.134
REMARK  Name = 
REMARK  5 active torsions:
REMARK  status: ('A' for Active; 'I' for Inactive)
REMARK    1  A    between atoms: C_1  and  C_2
REMARK    2  A    between atoms: C_2  and  N_3
REMARK    3  A    between atoms: C_6  and  C_7
REMARK    4  A    between atoms: C_8  and  N_9
REMARK    5  A    between atoms: C_19  and  C_20
REMARK                            x       y       z     vdW  Elec       q    Type
REMARK                         _______ _______ _______ _____ _____    ______ ____
ROOT
ATOM      1  N   UNL     1       4.843   4.774  17.760  0.00  0.00    +0.000 N 
ATOM      2  C   UNL     1       4.263   3.478  17.723  0.00  0.00    +0.000 C 
ATOM      3  O   UNL     1       4.780   2.580  17.086  0.00  0.00    +0.000 OA
ATOM      4  N   UNL     1       3.228   3.379  18.636  0.00  0.00    +0.000 N 
ATOM      5  C   UNL     1       2.818   2.031  19.038  0.00  0.00    +0.000 C 
ATOM      6  C   UNL     1       2.264   2.019  20.458  0.00  0.00    +0.000 C 
ATOM      7  C   UNL     1       1.197   3.078  20.646  0.00  0.00    +0.000 C 
ATOM      8  F   UNL     1       0.861   3.147  21.959  0.00  0.00    +0.000 F 
ATOM      9  F   UNL     1       0.073   2.709  19.986  0.00  0.00    +0.000 F 
ATOM     10  C   UNL     1       1.637   4.451  20.177  0.00  0.00    +0.000 C 
ATOM     11  C   UNL     1       2.188   4.418  18.750  0.00  0.00    +0.000 C 
ATOM     12  C   UNL     1       1.098   4.237  17.685  0.00  0.00    +0.000 C 
ATOM     13  H   UNL     1       4.629   5.347  18.562  0.00  0.00    +0.000 HD
ENDROOT
BRANCH   1  19
ATOM     14  N   UNL     1       6.184   5.120  15.650  0.00  0.00    +0.000 N 
ATOM     15  N   UNL     1       7.329   5.758  15.314  0.00  0.00    +0.000 NA
ATOM     16  C   UNL     1       7.879   6.076  16.483  0.00  0.00    +0.000 A 
ATOM     17  C   UNL     1       7.064   5.720  17.578  0.00  0.00    +0.000 A 
ATOM     18  C   UNL     1       7.402   5.844  19.014  0.00  0.00    +0.000 C 
ATOM     19  C   UNL     1       5.937   5.162  17.002  0.00  0.00    +0.000 A 
BRANCH  14  21
ATOM     20  C   UNL     1       6.284   3.959  13.498  0.00  0.00    +0.000 C 
ATOM     21  C   UNL     1       5.392   4.564  14.570  0.00  0.00    +0.000 C 
ENDBRANCH  14  21
ENDBRANCH   1  19
TORSDOF 2
ENDMDL
