MODEL 1
REMARK VINA RESULT:      -7.5      0.000      0.000
REMARK  Name = 
REMARK  5 active torsions:
REMARK  status: ('A' for Active; 'I' for Inactive)
REMARK    1  A    between atoms: N_1  and  C_2
REMARK    2  A    between atoms: N_5  and  C_6
REMARK    3  A    between atoms: C_15  and  C_16
REMARK    4  A    between atoms: C_16  and  O_18
REMARK    5  A    between atoms: N_20  and  C_21
REMARK                            x       y       z     vdW  Elec       q    Type
REMARK                         _______ _______ _______ _____ _____    ______ ____
ROOT
ATOM      1  C   UNL     1       1.492   8.780  19.409  0.00  0.00    +0.000 A 
ATOM      2  N   UNL     1       1.772   7.511  19.804  0.00  0.00    +0.000 NA
ATOM      3  C   UNL     1       2.660   6.707  19.163  0.00  0.00    +0.000 A 
ATOM      4  C   UNL     1       3.316   7.189  18.012  0.00  0.00    +0.000 A 
ATOM      5  C   UNL     1       3.050   8.501  17.582  0.00  0.00    +0.000 A 
ATOM      6  C   UNL     1       2.149   9.306  18.283  0.00  0.00    +0.000 A 
ATOM      7  F   UNL     1       1.905  10.562  17.834  0.00  0.00    +0.000 F 
ATOM      8  C   UNL     1       4.221   6.354  17.334  0.00  0.00    +0.000 A 
ATOM      9  O   UNL     1       4.785   6.767  16.334  0.00  0.00    +0.000 OA
ATOM     10  C   UNL     1       4.476   5.047  17.815  0.00  0.00    +0.000 A 
ATOM     11  C   UNL     1       3.806   4.632  18.984  0.00  0.00    +0.000 A 
ATOM     12  N   UNL     1       2.919   5.447  19.633  0.00  0.00    +0.000 N 
ENDROOT
BRANCH   1  16
ATOM     13  C   UNL     1      -0.639  10.429  21.946  0.00  0.00    +0.000 C 
ATOM     14  C   UNL     1      -0.985  11.198  20.686  0.00  0.00    +0.000 C 
ATOM     15  C   UNL     1      -0.636  10.173  19.608  0.00  0.00    +0.000 C 
ATOM     16  N   UNL     1       0.536   9.526  20.155  0.00  0.00    +0.000 N 
ATOM     17  C   UNL     1       0.699   9.803  21.564  0.00  0.00    +0.000 C 
BRANCH  13  18
ATOM     18  N   UNL     1      -0.557  11.248  23.153  0.00  0.00    +0.000 NA
ATOM     19  H   UNL     1      -1.441  11.133  23.702  0.00  0.00    +0.000 HD
ATOM     20  H   UNL     1      -0.460  12.256  22.892  0.00  0.00    +0.000 HD
ENDBRANCH  13  18
ENDBRANCH   1  16
BRANCH  12  21
ATOM     21  C   UNL     1       2.305   4.952  20.884  0.00  0.00    +0.000 C 
ATOM     22  C   UNL     1       1.104   4.040  20.617  0.00  0.00    +0.000 C 
ATOM     23  C   UNL     1       2.395   3.446  21.133  0.00  0.00    +0.000 C 
ENDBRANCH  12  21
BRANCH  10  24
ATOM     24  C   UNL     1       5.442   4.135  17.105  0.00  0.00    +0.000 C 
ATOM     25  O   UNL     1       5.049   3.424  16.195  0.00  0.00    +0.000 OA
BRANCH  24  26
ATOM     26  O   UNL     1       6.752   4.054  17.437  0.00  0.00    +0.000 OA
ATOM     27  H   UNL     1       7.282   3.250  17.412  0.00  0.00    +0.000 HD
ENDBRANCH  24  26
ENDBRANCH  10  24
TORSDOF 5
ENDMDL
MODEL 2
REMARK VINA RESULT:      -7.3      0.959      1.172
REMARK  Name = 
REMARK  5 active torsions:
REMARK  status: ('A' for Active; 'I' for Inactive)
REMARK    1  A    between atoms: N_1  and  C_2
REMARK    2  A    between atoms: N_5  and  C_6
REMARK    3  A    between atoms: C_15  and  C_16
REMARK    4  A    between atoms: C_16  and  O_18
REMARK    5  A    between atoms: N_20  and  C_21
REMARK                            x       y       z     vdW  Elec       q    Type
REMARK                         _______ _______ _______ _____ _____    ______ ____
ROOT
ATOM      1  C   UNL     1       1.892   8.285  19.420  0.00  0.00    +0.000 A 
ATOM      2  N   UNL     1       2.308   7.006  19.606  0.00  0.00    +0.000 NA
ATOM      3  C   UNL     1       3.175   6.374  18.771  0.00  0.00    +0.000 A 
ATOM      4  C   UNL     1       3.657   7.056  17.636  0.00  0.00    +0.000 A 
ATOM      5  C   UNL     1       3.247   8.384  17.421  0.00  0.00    +0.000 A 
ATOM      6  C   UNL     1       2.375   9.008  18.316  0.00  0.00    +0.000 A 
ATOM      7  F   UNL     1       1.988  10.285  18.071  0.00  0.00    +0.000 F 
ATOM      8  C   UNL     1       4.538   6.399  16.759  0.00  0.00    +0.000 A 
ATOM      9  O   UNL     1       4.951   6.986  15.772  0.00  0.00    +0.000 OA
ATOM     10  C   UNL     1       4.942   5.069  17.026  0.00  0.00    +0.000 A 
ATOM     11  C   UNL     1       4.444   4.449  18.190  0.00  0.00    +0.000 A 
ATOM     12  N   UNL     1       3.579   5.091  19.034  0.00  0.00    +0.000 N 
ENDROOT
BRANCH   1  16
ATOM     13  C   UNL     1      -0.152   9.269  22.345  0.00  0.00    +0.000 C 
ATOM     14  C   UNL     1      -0.459  10.373  21.351  0.00  0.00    +0.000 C 
ATOM     15  C   UNL     1      -0.163   9.670  20.027  0.00  0.00    +0.000 C 
ATOM     16  N   UNL     1       0.975   8.841  20.357  0.00  0.00    +0.000 N 
ATOM     17  C   UNL     1       1.153   8.709  21.785  0.00  0.00    +0.000 C 
BRANCH  13  18
ATOM     18  N   UNL     1      -0.029   9.717  23.730  0.00  0.00    +0.000 NA
ATOM     19  H   UNL     1      -0.101   8.887  24.362  0.00  0.00    +0.000 HD
ATOM     20  H   UNL     1      -0.808  10.376  23.960  0.00  0.00    +0.000 HD
ENDBRANCH  13  18
ENDBRANCH   1  16
BRANCH  12  21
ATOM     21  C   UNL     1       3.150   4.386  20.261  0.00  0.00    +0.000 C 
ATOM     22  C   UNL     1       1.884   3.555  20.039  0.00  0.00    +0.000 C 
ATOM     23  C   UNL     1       3.214   2.859  20.222  0.00  0.00    +0.000 C 
ENDBRANCH  12  21
BRANCH  10  24
ATOM     24  C   UNL     1       5.885   4.346  16.102  0.00  0.00    +0.000 C 
ATOM     25  O   UNL     1       7.016   4.077  16.475  0.00  0.00    +0.000 OA
BRANCH  24  26
ATOM     26  O   UNL     1       5.541   3.977  14.845  0.00  0.00    +0.000 OA
ATOM     27  H   UNL     1       6.112   4.043  14.071  0.00  0.00    +0.000 HD
ENDBRANCH  24  26
ENDBRANCH  10  24
TORSDOF 5
ENDMDL
MODEL 3
REMARK VINA RESULT:      -7.1      2.405      3.695
REMARK  Name = 
REMARK  5 active torsions:
REMARK  status: ('A' for Active; 'I' for Inactive)
REMARK    1  A    between atoms: N_1  and  C_2
REMARK    2  A    between atoms: N_5  and  C_6
REMARK    3  A    between atoms: C_15  and  C_16
REMARK    4  A    between atoms: C_16  and  O_18
REMARK    5  A    between atoms: N_20  and  C_21
REMARK                            x       y       z     vdW  Elec       q    Type
REMARK                         _______ _______ _______ _____ _____    ______ ____
ROOT
ATOM      1  C   UNL     1       1.482   8.259  19.880  0.00  0.00    +0.000 A 
ATOM      2  N   UNL     1       2.412   7.734  19.041  0.00  0.00    +0.000 NA
ATOM      3  C   UNL     1       2.831   6.443  19.102  0.00  0.00    +0.000 A 
ATOM      4  C   UNL     1       2.301   5.596  20.097  0.00  0.00    +0.000 A 
ATOM      5  C   UNL     1       1.332   6.110  20.977  0.00  0.00    +0.000 A 
ATOM      6  C   UNL     1       0.909   7.436  20.866  0.00  0.00    +0.000 A 
ATOM      7  F   UNL     1      -0.017   7.904  21.739  0.00  0.00    +0.000 F 
ATOM      8  C   UNL     1       2.746   4.265  20.176  0.00  0.00    +0.000 A 
ATOM      9  O   UNL     1       2.294   3.532  21.042  0.00  0.00    +0.000 OA
ATOM     10  C   UNL     1       3.707   3.782  19.256  0.00  0.00    +0.000 A 
ATOM     11  C   UNL     1       4.180   4.671  18.270  0.00  0.00    +0.000 A 
ATOM     12  N   UNL     1       3.750   5.969  18.204  0.00  0.00    +0.000 N 
ENDROOT
BRANCH   1  16
ATOM     13  C   UNL     1       0.575  11.662  18.744  0.00  0.00    +0.000 C 
ATOM     14  C   UNL     1       0.230  11.713  20.220  0.00  0.00    +0.000 C 
ATOM     15  C   UNL     1       1.145  10.624  20.775  0.00  0.00    +0.000 C 
ATOM     16  N   UNL     1       1.127   9.629  19.726  0.00  0.00    +0.000 N 
ATOM     17  C   UNL     1       0.603  10.158  18.487  0.00  0.00    +0.000 C 
BRANCH  13  18
ATOM     18  N   UNL     1      -0.365  12.368  17.876  0.00  0.00    +0.000 NA
ATOM     19  H   UNL     1       0.171  13.007  17.244  0.00  0.00    +0.000 HD
ATOM     20  H   UNL     1      -1.017  12.946  18.455  0.00  0.00    +0.000 HD
ENDBRANCH  13  18
ENDBRANCH   1  16
BRANCH  12  21
ATOM     21  C   UNL     1       4.256   6.816  17.103  0.00  0.00    +0.000 C 
ATOM     22  C   UNL     1       5.778   6.976  17.149  0.00  0.00    +0.000 C 
ATOM     23  C   UNL     1       5.147   6.124  16.071  0.00  0.00    +0.000 C 
ENDBRANCH  12  21
BRANCH  10  24
ATOM     24  C   UNL     1       4.197   2.360  19.322  0.00  0.00    +0.000 C 
ATOM     25  O   UNL     1       3.672   1.504  18.628  0.00  0.00    +0.000 OA
BRANCH  24  26
ATOM     26  O   UNL     1       5.207   1.969  20.134  0.00  0.00    +0.000 OA
ATOM     27  H   UNL     1       5.893   1.334  19.901  0.00  0.00    +0.000 HD
ENDBRANCH  24  26
ENDBRANCH  10  24
TORSDOF 5
ENDMDL
MODEL 4
REMARK VINA RESULT:      -7.0      3.048      6.645
REMARK  Name = 
REMARK  5 active torsions:
REMARK  status: ('A' for Active; 'I' for Inactive)
REMARK    1  A    between atoms: N_1  and  C_2
REMARK    2  A    between atoms: N_5  and  C_6
REMARK    3  A    between atoms: C_15  and  C_16
REMARK    4  A    between atoms: C_16  and  O_18
REMARK    5  A    between atoms: N_20  and  C_21
REMARK                            x       y       z     vdW  Elec       q    Type
REMARK                         _______ _______ _______ _____ _____    ______ ____
ROOT
ATOM      1  C   UNL     1       2.505   6.266  19.347  0.00  0.00    +0.000 A 
ATOM      2  N   UNL     1       1.811   7.098  20.166  0.00  0.00    +0.000 NA
ATOM      3  C   UNL     1       1.544   8.395  19.862  0.00  0.00    +0.000 A 
ATOM      4  C   UNL     1       2.024   8.929  18.649  0.00  0.00    +0.000 A 
ATOM      5  C   UNL     1       2.742   8.090  17.778  0.00  0.00    +0.000 A 
ATOM      6  C   UNL     1       2.975   6.755  18.116  0.00  0.00    +0.000 A 
ATOM      7  F   UNL     1       3.682   5.976  17.260  0.00  0.00    +0.000 F 
ATOM      8  C   UNL     1       1.766  10.276  18.339  0.00  0.00    +0.000 A 
ATOM      9  O   UNL     1       2.188  10.742  17.293  0.00  0.00    +0.000 OA
ATOM     10  C   UNL     1       1.020  11.079  19.235  0.00  0.00    +0.000 A 
ATOM     11  C   UNL     1       0.547  10.480  20.420  0.00  0.00    +0.000 A 
ATOM     12  N   UNL     1       0.810   9.171  20.720  0.00  0.00    +0.000 N 
ENDROOT
BRANCH   1  16
ATOM     13  C   UNL     1       3.656   2.803  19.962  0.00  0.00    +0.000 C 
ATOM     14  C   UNL     1       2.754   3.059  21.154  0.00  0.00    +0.000 C 
ATOM     15  C   UNL     1       1.836   4.148  20.602  0.00  0.00    +0.000 C 
ATOM     16  N   UNL     1       2.732   4.928  19.776  0.00  0.00    +0.000 N 
ATOM     17  C   UNL     1       3.964   4.224  19.500  0.00  0.00    +0.000 C 
BRANCH  13  18
ATOM     18  N   UNL     1       4.859   2.032  20.266  0.00  0.00    +0.000 NA
ATOM     19  H   UNL     1       5.698   2.585  19.977  0.00  0.00    +0.000 HD
ATOM     20  H   UNL     1       4.853   1.136  19.727  0.00  0.00    +0.000 HD
ENDBRANCH  13  18
ENDBRANCH   1  16
BRANCH  12  21
ATOM     21  C   UNL     1       0.227   8.609  21.957  0.00  0.00    +0.000 C 
ATOM     22  C   UNL     1       0.808   9.256  23.216  0.00  0.00    +0.000 C 
ATOM     23  C   UNL     1      -0.613   9.565  22.805  0.00  0.00    +0.000 C 
ENDBRANCH  12  21
BRANCH  10  24
ATOM     24  C   UNL     1       0.732  12.524  18.923  0.00  0.00    +0.000 C 
ATOM     25  O   UNL     1       1.125  13.398  19.678  0.00  0.00    +0.000 OA
BRANCH  24  26
ATOM     26  O   UNL     1       0.036  12.913  17.828  0.00  0.00    +0.000 OA
ATOM     27  H   UNL     1      -0.183  12.346  17.080  0.00  0.00    +0.000 HD
ENDBRANCH  24  26
ENDBRANCH  10  24
TORSDOF 5
ENDMDL
MODEL 5
REMARK VINA RESULT:      -7.0      2.369      3.561
REMARK  Name = 
REMARK  5 active torsions:
REMARK  status: ('A' for Active; 'I' for Inactive)
REMARK    1  A    between atoms: N_1  and  C_2
REMARK    2  A    between atoms: N_5  and  C_6
REMARK    3  A    between atoms: C_15  and  C_16
REMARK    4  A    between atoms: C_16  and  O_18
REMARK    5  A    between atoms: N_20  and  C_21
REMARK                            x       y       z     vdW  Elec       q    Type
REMARK                         _______ _______ _______ _____ _____    ______ ____
ROOT
ATOM      1  C   UNL     1       1.658   8.196  19.782  0.00  0.00    +0.000 A 
ATOM      2  N   UNL     1       2.554   7.622  18.937  0.00  0.00    +0.000 NA
ATOM      3  C   UNL     1       2.935   6.320  19.024  0.00  0.00    +0.000 A 
ATOM      4  C   UNL     1       2.403   5.515  20.051  0.00  0.00    +0.000 A 
ATOM      5  C   UNL     1       1.468   6.081  20.937  0.00  0.00    +0.000 A 
ATOM      6  C   UNL     1       1.083   7.416  20.800  0.00  0.00    +0.000 A 
ATOM      7  F   UNL     1       0.190   7.934  21.680  0.00  0.00    +0.000 F 
ATOM      8  C   UNL     1       2.810   4.174  20.156  0.00  0.00    +0.000 A 
ATOM      9  O   UNL     1       2.355   3.478  21.050  0.00  0.00    +0.000 OA
ATOM     10  C   UNL     1       3.735   3.639  19.229  0.00  0.00    +0.000 A 
ATOM     11  C   UNL     1       4.214   4.488  18.210  0.00  0.00    +0.000 A 
ATOM     12  N   UNL     1       3.821   5.796  18.120  0.00  0.00    +0.000 N 
ENDROOT
BRANCH   1  16
ATOM     13  C   UNL     1       0.556  11.722  20.005  0.00  0.00    +0.000 C 
ATOM     14  C   UNL     1       1.469  11.745  18.794  0.00  0.00    +0.000 C 
ATOM     15  C   UNL     1       1.402  10.287  18.344  0.00  0.00    +0.000 C 
ATOM     16  N   UNL     1       1.340   9.571  19.599  0.00  0.00    +0.000 N 
ATOM     17  C   UNL     1       1.008  10.442  20.703  0.00  0.00    +0.000 C 
BRANCH  13  18
ATOM     18  N   UNL     1       0.654  12.901  20.862  0.00  0.00    +0.000 NA
ATOM     19  H   UNL     1       1.560  12.866  21.384  0.00  0.00    +0.000 HD
ATOM     20  H   UNL     1      -0.127  12.901  21.557  0.00  0.00    +0.000 HD
ENDBRANCH  13  18
ENDBRANCH   1  16
BRANCH  12  21
ATOM     21  C   UNL     1       4.328   6.599  16.987  0.00  0.00    +0.000 C 
ATOM     22  C   UNL     1       5.824   6.897  17.112  0.00  0.00    +0.000 C 
ATOM     23  C   UNL     1       5.342   5.913  16.071  0.00  0.00    +0.000 C 
ENDBRANCH  12  21
BRANCH  10  24
ATOM     24  C   UNL     1       4.185   2.205  19.322  0.00  0.00    +0.000 C 
ATOM     25  O   UNL     1       3.727   1.374  18.554  0.00  0.00    +0.000 OA
BRANCH  24  26
ATOM     26  O   UNL     1       5.084   1.776  20.239  0.00  0.00    +0.000 OA
ATOM     27  H   UNL     1       4.883   1.204  20.988  0.00  0.00    +0.000 HD
ENDBRANCH  24  26
ENDBRANCH  10  24
TORSDOF 5
ENDMDL
MODEL 6
REMARK VINA RESULT:      -7.0      2.522      3.865
REMARK  Name = 
REMARK  5 active torsions:
REMARK  status: ('A' for Active; 'I' for Inactive)
REMARK    1  A    between atoms: N_1  and  C_2
REMARK    2  A    between atoms: N_5  and  C_6
REMARK    3  A    between atoms: C_15  and  C_16
REMARK    4  A    between atoms: C_16  and  O_18
REMARK    5  A    between atoms: N_20  and  C_21
REMARK                            x       y       z     vdW  Elec       q    Type
REMARK                         _______ _______ _______ _____ _____    ______ ____
ROOT
ATOM      1  C   UNL     1       1.801   8.112  19.477  0.00  0.00    +0.000 A 
ATOM      2  N   UNL     1       2.696   7.484  18.670  0.00  0.00    +0.000 NA
ATOM      3  C   UNL     1       3.084   6.194  18.847  0.00  0.00    +0.000 A 
ATOM      4  C   UNL     1       2.562   5.461  19.931  0.00  0.00    +0.000 A 
ATOM      5  C   UNL     1       1.629   6.083  20.780  0.00  0.00    +0.000 A 
ATOM      6  C   UNL     1       1.236   7.404  20.551  0.00  0.00    +0.000 A 
ATOM      7  F   UNL     1       0.345   7.978  21.397  0.00  0.00    +0.000 F 
ATOM      8  C   UNL     1       2.976   4.133  20.128  0.00  0.00    +0.000 A 
ATOM      9  O   UNL     1       2.530   3.499  21.072  0.00  0.00    +0.000 OA
ATOM     10  C   UNL     1       3.900   3.538  19.236  0.00  0.00    +0.000 A 
ATOM     11  C   UNL     1       4.368   4.315  18.157  0.00  0.00    +0.000 A 
ATOM     12  N   UNL     1       3.968   5.612  17.977  0.00  0.00    +0.000 N 
ENDROOT
BRANCH   1  16
ATOM     13  C   UNL     1       1.688  11.705  18.598  0.00  0.00    +0.000 C 
ATOM     14  C   UNL     1       0.220  11.324  18.587  0.00  0.00    +0.000 C 
ATOM     15  C   UNL     1       0.221  10.114  19.519  0.00  0.00    +0.000 C 
ATOM     16  N   UNL     1       1.476   9.469  19.199  0.00  0.00    +0.000 N 
ATOM     17  C   UNL     1       2.359  10.341  18.458  0.00  0.00    +0.000 C 
BRANCH  13  18
ATOM     18  N   UNL     1       2.080  12.640  17.546  0.00  0.00    +0.000 NA
ATOM     19  H   UNL     1       3.105  12.831  17.627  0.00  0.00    +0.000 HD
ATOM     20  H   UNL     1       1.566  13.544  17.664  0.00  0.00    +0.000 HD
ENDBRANCH  13  18
ENDBRANCH   1  16
BRANCH  12  21
ATOM     21  C   UNL     1       4.465   6.335  16.787  0.00  0.00    +0.000 C 
ATOM     22  C   UNL     1       5.965   6.628  16.872  0.00  0.00    +0.000 C 
ATOM     23  C   UNL     1       5.461   5.582  15.904  0.00  0.00    +0.000 C 
ENDBRANCH  12  21
BRANCH  10  24
ATOM     24  C   UNL     1       4.357   2.116  19.428  0.00  0.00    +0.000 C 
ATOM     25  O   UNL     1       4.948   1.800  20.448  0.00  0.00    +0.000 OA
BRANCH  24  26
ATOM     26  O   UNL     1       4.151   1.149  18.503  0.00  0.00    +0.000 OA
ATOM     27  H   UNL     1       4.165   1.281  17.549  0.00  0.00    +0.000 HD
ENDBRANCH  24  26
ENDBRANCH  10  24
TORSDOF 5
ENDMDL
MODEL 7
REMARK VINA RESULT:      -6.9      4.352      6.008
REMARK  Name = 
REMARK  5 active torsions:
REMARK  status: ('A' for Active; 'I' for Inactive)
REMARK    1  A    between atoms: N_1  and  C_2
REMARK    2  A    between atoms: N_5  and  C_6
REMARK    3  A    between atoms: C_15  and  C_16
REMARK    4  A    between atoms: C_16  and  O_18
REMARK    5  A    between atoms: N_20  and  C_21
REMARK                            x       y       z     vdW  Elec       q    Type
REMARK                         _______ _______ _______ _____ _____    ______ ____
ROOT
ATOM      1  C   UNL     1       3.612   4.082  18.038  0.00  0.00    +0.000 A 
ATOM      2  N   UNL     1       4.634   4.966  17.900  0.00  0.00    +0.000 NA
ATOM      3  C   UNL     1       5.405   5.047  16.784  0.00  0.00    +0.000 A 
ATOM      4  C   UNL     1       5.163   4.162  15.714  0.00  0.00    +0.000 A 
ATOM      5  C   UNL     1       4.108   3.239  15.827  0.00  0.00    +0.000 A 
ATOM      6  C   UNL     1       3.321   3.203  16.980  0.00  0.00    +0.000 A 
ATOM      7  F   UNL     1       2.319   2.292  17.062  0.00  0.00    +0.000 F 
ATOM      8  C   UNL     1       5.971   4.230  14.566  0.00  0.00    +0.000 A 
ATOM      9  O   UNL     1       5.767   3.459  13.642  0.00  0.00    +0.000 OA
ATOM     10  C   UNL     1       7.009   5.189  14.486  0.00  0.00    +0.000 A 
ATOM     11  C   UNL     1       7.186   6.062  15.579  0.00  0.00    +0.000 A 
ATOM     12  N   UNL     1       6.401   5.984  16.697  0.00  0.00    +0.000 N 
ENDROOT
BRANCH   1  16
ATOM     13  C   UNL     1       1.676   3.338  21.103  0.00  0.00    +0.000 C 
ATOM     14  C   UNL     1       2.132   4.764  21.348  0.00  0.00    +0.000 C 
ATOM     15  C   UNL     1       2.348   5.255  19.918  0.00  0.00    +0.000 C 
ATOM     16  N   UNL     1       2.877   4.082  19.257  0.00  0.00    +0.000 N 
ATOM     17  C   UNL     1       2.663   2.882  20.032  0.00  0.00    +0.000 C 
BRANCH  13  18
ATOM     18  N   UNL     1       1.691   2.485  22.289  0.00  0.00    +0.000 NA
ATOM     19  H   UNL     1       1.647   1.484  21.987  0.00  0.00    +0.000 HD
ATOM     20  H   UNL     1       0.855   2.688  22.883  0.00  0.00    +0.000 HD
ENDBRANCH  13  18
ENDBRANCH   1  16
BRANCH  12  21
ATOM     21  C   UNL     1       6.620   6.976  17.772  0.00  0.00    +0.000 C 
ATOM     22  C   UNL     1       7.899   6.697  18.566  0.00  0.00    +0.000 C 
ATOM     23  C   UNL     1       7.845   7.878  17.623  0.00  0.00    +0.000 C 
ENDBRANCH  12  21
BRANCH  10  24
ATOM     24  C   UNL     1       7.886   5.281  13.266  0.00  0.00    +0.000 C 
ATOM     25  O   UNL     1       8.920   5.929  13.308  0.00  0.00    +0.000 OA
BRANCH  24  26
ATOM     26  O   UNL     1       7.579   4.677  12.094  0.00  0.00    +0.000 OA
ATOM     27  H   UNL     1       6.685   4.499  11.779  0.00  0.00    +0.000 HD
ENDBRANCH  24  26
ENDBRANCH  10  24
TORSDOF 5
ENDMDL
MODEL 8
REMARK VINA RESULT:      -6.9      3.091      6.581
REMARK  Name = 
REMARK  5 active torsions:
REMARK  status: ('A' for Active; 'I' for Inactive)
REMARK    1  A    between atoms: N_1  and  C_2
REMARK    2  A    between atoms: N_5  and  C_6
REMARK    3  A    between atoms: C_15  and  C_16
REMARK    4  A    between atoms: C_16  and  O_18
REMARK    5  A    between atoms: N_20  and  C_21
REMARK                            x       y       z     vdW  Elec       q    Type
REMARK                         _______ _______ _______ _____ _____    ______ ____
ROOT
ATOM      1  C   UNL     1       2.388   6.507  19.596  0.00  0.00    +0.000 A 
ATOM      2  N   UNL     1       1.629   7.355  20.338  0.00  0.00    +0.000 NA
ATOM      3  C   UNL     1       1.344   8.629  19.959  0.00  0.00    +0.000 A 
ATOM      4  C   UNL     1       1.874   9.121  18.749  0.00  0.00    +0.000 A 
ATOM      5  C   UNL     1       2.658   8.264  17.956  0.00  0.00    +0.000 A 
ATOM      6  C   UNL     1       2.908   6.953  18.368  0.00  0.00    +0.000 A 
ATOM      7  F   UNL     1       3.680   6.156  17.587  0.00  0.00    +0.000 F 
ATOM      8  C   UNL     1       1.597  10.444  18.363  0.00  0.00    +0.000 A 
ATOM      9  O   UNL     1       2.061  10.873  17.319  0.00  0.00    +0.000 OA
ATOM     10  C   UNL     1       0.784  11.265  19.180  0.00  0.00    +0.000 A 
ATOM     11  C   UNL     1       0.265  10.708  20.366  0.00  0.00    +0.000 A 
ATOM     12  N   UNL     1       0.546   9.422  20.741  0.00  0.00    +0.000 N 
ENDROOT
BRANCH   1  16
ATOM     13  C   UNL     1       2.515   3.298  21.434  0.00  0.00    +0.000 C 
ATOM     14  C   UNL     1       3.178   2.941  20.117  0.00  0.00    +0.000 C 
ATOM     15  C   UNL     1       3.681   4.309  19.660  0.00  0.00    +0.000 C 
ATOM     16  N   UNL     1       2.626   5.197  20.098  0.00  0.00    +0.000 N 
ATOM     17  C   UNL     1       1.751   4.565  21.058  0.00  0.00    +0.000 C 
BRANCH  13  18
ATOM     18  N   UNL     1       1.649   2.255  21.979  0.00  0.00    +0.000 NA
ATOM     19  H   UNL     1       0.705   2.331  21.534  0.00  0.00    +0.000 HD
ATOM     20  H   UNL     1       1.539   2.387  23.011  0.00  0.00    +0.000 HD
ENDBRANCH  13  18
ENDBRANCH   1  16
BRANCH  12  21
ATOM     21  C   UNL     1      -0.086   8.901  21.971  0.00  0.00    +0.000 C 
ATOM     22  C   UNL     1       0.648   9.354  23.236  0.00  0.00    +0.000 C 
ATOM     23  C   UNL     1      -0.707   9.939  22.906  0.00  0.00    +0.000 C 
ENDBRANCH  12  21
BRANCH  10  24
ATOM     24  C   UNL     1       0.474  12.685  18.786  0.00  0.00    +0.000 C 
ATOM     25  O   UNL     1       0.904  13.610  19.457  0.00  0.00    +0.000 OA
BRANCH  24  26
ATOM     26  O   UNL     1      -0.282  12.998  17.707  0.00  0.00    +0.000 OA
ATOM     27  H   UNL     1      -0.952  13.691  17.681  0.00  0.00    +0.000 HD
ENDBRANCH  24  26
ENDBRANCH  10  24
TORSDOF 5
ENDMDL
MODEL 9
REMARK VINA RESULT:      -6.8      0.859      1.183
REMARK  Name = 
REMARK  5 active torsions:
REMARK  status: ('A' for Active; 'I' for Inactive)
REMARK    1  A    between atoms: N_1  and  C_2
REMARK    2  A    between atoms: N_5  and  C_6
REMARK    3  A    between atoms: C_15  and  C_16
REMARK    4  A    between atoms: C_16  and  O_18
REMARK    5  A    between atoms: N_20  and  C_21
REMARK                            x       y       z     vdW  Elec       q    Type
REMARK                         _______ _______ _______ _____ _____    ______ ____
ROOT
ATOM      1  C   UNL     1       1.695   8.480  19.769  0.00  0.00    +0.000 A 
ATOM      2  N   UNL     1       1.856   7.181  20.134  0.00  0.00    +0.000 NA
ATOM      3  C   UNL     1       2.575   6.285  19.408  0.00  0.00    +0.000 A 
ATOM      4  C   UNL     1       3.172   6.700  18.201  0.00  0.00    +0.000 A 
ATOM      5  C   UNL     1       3.027   8.040  17.800  0.00  0.00    +0.000 A 
ATOM      6  C   UNL     1       2.301   8.938  18.586  0.00  0.00    +0.000 A 
ATOM      7  F   UNL     1       2.169  10.220  18.164  0.00  0.00    +0.000 F 
ATOM      8  C   UNL     1       3.901   5.771  17.438  0.00  0.00    +0.000 A 
ATOM      9  O   UNL     1       4.412   6.127  16.388  0.00  0.00    +0.000 OA
ATOM     10  C   UNL     1       4.040   4.437  17.889  0.00  0.00    +0.000 A 
ATOM     11  C   UNL     1       3.440   4.090  19.117  0.00  0.00    +0.000 A 
ATOM     12  N   UNL     1       2.724   4.997  19.850  0.00  0.00    +0.000 N 
ENDROOT
BRANCH   1  16
ATOM     13  C   UNL     1      -0.460  11.066  21.308  0.00  0.00    +0.000 C 
ATOM     14  C   UNL     1      -0.427   9.993  22.380  0.00  0.00    +0.000 C 
ATOM     15  C   UNL     1       0.885   9.285  22.050  0.00  0.00    +0.000 C 
ATOM     16  N   UNL     1       0.912   9.325  20.605  0.00  0.00    +0.000 N 
ATOM     17  C   UNL     1      -0.039  10.275  20.072  0.00  0.00    +0.000 C 
BRANCH  13  18
ATOM     18  N   UNL     1      -1.755  11.722  21.146  0.00  0.00    +0.000 NA
ATOM     19  H   UNL     1      -2.433  11.039  20.737  0.00  0.00    +0.000 HD
ATOM     20  H   UNL     1      -1.664  12.531  20.489  0.00  0.00    +0.000 HD
ENDBRANCH  13  18
ENDBRANCH   1  16
BRANCH  12  21
ATOM     21  C   UNL     1       2.176   4.563  21.153  0.00  0.00    +0.000 C 
ATOM     22  C   UNL     1       1.101   3.484  20.998  0.00  0.00    +0.000 C 
ATOM     23  C   UNL     1       2.456   3.115  21.556  0.00  0.00    +0.000 C 
ENDBRANCH  12  21
BRANCH  10  24
ATOM     24  C   UNL     1       4.817   3.425  17.089  0.00  0.00    +0.000 C 
ATOM     25  O   UNL     1       4.398   2.284  16.982  0.00  0.00    +0.000 OA
BRANCH  24  26
ATOM     26  O   UNL     1       5.987   3.719  16.473  0.00  0.00    +0.000 OA
ATOM     27  H   UNL     1       6.296   3.321  15.652  0.00  0.00    +0.000 HD
ENDBRANCH  24  26
ENDBRANCH  10  24
TORSDOF 5
ENDMDL
