MODEL 1
REMARK VINA RESULT:      -8.2      0.000      0.000
REMARK  Name = 
REMARK  9 active torsions:
REMARK  status: ('A' for Active; 'I' for Inactive)
REMARK    1  A    between atoms: C_1  and  O_2
REMARK    2  A    between atoms: O_2  and  C_3
REMARK    3  A    between atoms: C_7  and  N_8
REMARK    4  A    between atoms: C_9  and  C_11
REMARK    5  A    between atoms: N_14  and  C_15
REMARK    6  A    between atoms: C_15  and  C_16
REMARK    7  A    between atoms: C_19  and  O_20
REMARK    8  A    between atoms: O_20  and  C_21
REMARK    9  A    between atoms: C_25  and  N_26
REMARK                            x       y       z     vdW  Elec       q    Type
REMARK                         _______ _______ _______ _____ _____    ______ ____
ROOT
ATOM      1  C   UNL     1       7.058   6.826  17.400  0.00  0.00    +0.000 A 
ATOM      2  N   UNL     1       6.180   7.410  16.517  0.00  0.00    +0.000 NA
ATOM      3  N   UNL     1       5.444   6.454  15.966  0.00  0.00    +0.000 NA
ATOM      4  N   UNL     1       5.849   5.271  16.487  0.00  0.00    +0.000 N 
ATOM      5  C   UNL     1       6.864   5.453  17.398  0.00  0.00    +0.000 A 
ENDROOT
BRANCH   1   7
ATOM      6  N   UNL     1       8.068   8.925  17.871  0.00  0.00    +0.000 N 
ATOM      7  C   UNL     1       8.012   7.580  18.212  0.00  0.00    +0.000 C 
ATOM      8  O   UNL     1       8.640   7.041  19.118  0.00  0.00    +0.000 OA
ATOM      9  H   UNL     1       7.392   9.227  17.181  0.00  0.00    +0.000 HD
BRANCH   6  14
ATOM     10  C   UNL     1      10.492  11.724  18.111  0.00  0.00    +0.000 A 
ATOM     11  C   UNL     1      10.571  11.901  19.492  0.00  0.00    +0.000 A 
ATOM     12  C   UNL     1       9.831  11.095  20.351  0.00  0.00    +0.000 A 
ATOM     13  C   UNL     1       8.995  10.105  19.831  0.00  0.00    +0.000 A 
ATOM     14  C   UNL     1       8.898   9.913  18.453  0.00  0.00    +0.000 A 
ATOM     15  C   UNL     1       9.662  10.721  17.594  0.00  0.00    +0.000 A 
BRANCH  10  17
ATOM     16  C   UNL     1      10.912  13.959  17.401  0.00  0.00    +0.000 C 
ATOM     17  O   UNL     1      11.268  12.584  17.390  0.00  0.00    +0.000 OA
ENDBRANCH  10  17
ENDBRANCH   6  14
ENDBRANCH   1   7
BRANCH   5  18
ATOM     18  N   UNL     1       7.438   4.460  18.117  0.00  0.00    +0.000 N 
ATOM     19  H   UNL     1       7.077   4.109  18.997  0.00  0.00    +0.000 HD
ATOM     20  H   UNL     1       8.008   3.769  17.617  0.00  0.00    +0.000 HD
ENDBRANCH   5  18
BRANCH   4  21
ATOM     21  C   UNL     1       5.097   4.061  16.198  0.00  0.00    +0.000 C 
BRANCH  21  22
ATOM     22  C   UNL     1       4.054   3.780  17.250  0.00  0.00    +0.000 A 
ATOM     23  C   UNL     1       3.592   2.482  17.464  0.00  0.00    +0.000 A 
ATOM     24  C   UNL     1       2.669   2.227  18.482  0.00  0.00    +0.000 A 
ATOM     25  C   UNL     1       2.183   3.244  19.323  0.00  0.00    +0.000 A 
ATOM     26  C   UNL     1       2.624   4.552  19.092  0.00  0.00    +0.000 A 
ATOM     27 BR   UNL     1       2.092   6.110  20.044  0.00  0.00    +0.000 Br
ATOM     28  C   UNL     1       3.548   4.807  18.058  0.00  0.00    +0.000 A 
BRANCH  25  29
ATOM     29  O   UNL     1       1.322   2.730  20.248  0.00  0.00    +0.000 OA
ATOM     30  C   UNL     1       1.669   2.663  21.618  0.00  0.00    +0.000 C 
ENDBRANCH  25  29
ENDBRANCH  21  22
ENDBRANCH   4  21
TORSDOF 7
ENDMDL
MODEL 2
REMARK VINA RESULT:      -7.8      1.025      1.528
REMARK  Name = 
REMARK  9 active torsions:
REMARK  status: ('A' for Active; 'I' for Inactive)
REMARK    1  A    between atoms: C_1  and  O_2
REMARK    2  A    between atoms: O_2  and  C_3
REMARK    3  A    between atoms: C_7  and  N_8
REMARK    4  A    between atoms: C_9  and  C_11
REMARK    5  A    between atoms: N_14  and  C_15
REMARK    6  A    between atoms: C_15  and  C_16
REMARK    7  A    between atoms: C_19  and  O_20
REMARK    8  A    between atoms: O_20  and  C_21
REMARK    9  A    between atoms: C_25  and  N_26
REMARK                            x       y       z     vdW  Elec       q    Type
REMARK                         _______ _______ _______ _____ _____    ______ ____
ROOT
ATOM      1  C   UNL     1       7.531   7.196  18.032  0.00  0.00    +0.000 A 
ATOM      2  N   UNL     1       8.074   6.256  18.877  0.00  0.00    +0.000 NA
ATOM      3  N   UNL     1       7.455   5.101  18.669  0.00  0.00    +0.000 NA
ATOM      4  N   UNL     1       6.525   5.301  17.705  0.00  0.00    +0.000 N 
ATOM      5  C   UNL     1       6.535   6.605  17.269  0.00  0.00    +0.000 A 
ENDROOT
BRANCH   1   7
ATOM      6  N   UNL     1       8.815   8.933  19.023  0.00  0.00    +0.000 N 
ATOM      7  C   UNL     1       7.987   8.583  17.966  0.00  0.00    +0.000 C 
ATOM      8  O   UNL     1       7.675   9.309  17.026  0.00  0.00    +0.000 OA
ATOM      9  H   UNL     1       9.069   8.176  19.646  0.00  0.00    +0.000 HD
BRANCH   6  14
ATOM     10  C   UNL     1      10.527  12.149  18.321  0.00  0.00    +0.000 A 
ATOM     11  C   UNL     1      10.595  12.709  19.597  0.00  0.00    +0.000 A 
ATOM     12  C   UNL     1      10.082  12.026  20.696  0.00  0.00    +0.000 A 
ATOM     13  C   UNL     1       9.487  10.774  20.524  0.00  0.00    +0.000 A 
ATOM     14  C   UNL     1       9.405  10.199  19.256  0.00  0.00    +0.000 A 
ATOM     15  C   UNL     1       9.941  10.887  18.155  0.00  0.00    +0.000 A 
BRANCH  10  17
ATOM     16  C   UNL     1      10.773  14.317  17.365  0.00  0.00    +0.000 C 
ATOM     17  O   UNL     1      11.065  12.928  17.338  0.00  0.00    +0.000 OA
ENDBRANCH  10  17
ENDBRANCH   6  14
ENDBRANCH   1   7
BRANCH   5  18
ATOM     18  N   UNL     1       5.750   7.090  16.279  0.00  0.00    +0.000 N 
ATOM     19  H   UNL     1       6.022   7.837  15.648  0.00  0.00    +0.000 HD
ATOM     20  H   UNL     1       5.038   6.470  15.879  0.00  0.00    +0.000 HD
ENDBRANCH   5  18
BRANCH   4  21
ATOM     21  C   UNL     1       5.813   4.163  17.146  0.00  0.00    +0.000 C 
BRANCH  21  22
ATOM     22  C   UNL     1       4.572   3.831  17.935  0.00  0.00    +0.000 A 
ATOM     23  C   UNL     1       4.101   2.521  18.002  0.00  0.00    +0.000 A 
ATOM     24  C   UNL     1       2.983   2.218  18.785  0.00  0.00    +0.000 A 
ATOM     25  C   UNL     1       2.305   3.198  19.531  0.00  0.00    +0.000 A 
ATOM     26  C   UNL     1       2.759   4.518  19.444  0.00  0.00    +0.000 A 
ATOM     27 BR   UNL     1       2.002   6.035  20.308  0.00  0.00    +0.000 Br
ATOM     28  C   UNL     1       3.882   4.822  18.646  0.00  0.00    +0.000 A 
BRANCH  25  29
ATOM     29  O   UNL     1       1.274   2.640  20.230  0.00  0.00    +0.000 OA
ATOM     30  C   UNL     1       1.272   2.614  21.644  0.00  0.00    +0.000 C 
ENDBRANCH  25  29
ENDBRANCH  21  22
ENDBRANCH   4  21
TORSDOF 7
ENDMDL
MODEL 3
REMARK VINA RESULT:      -7.6      1.518      2.276
REMARK  Name = 
REMARK  9 active torsions:
REMARK  status: ('A' for Active; 'I' for Inactive)
REMARK    1  A    between atoms: C_1  and  O_2
REMARK    2  A    between atoms: O_2  and  C_3
REMARK    3  A    between atoms: C_7  and  N_8
REMARK    4  A    between atoms: C_9  and  C_11
REMARK    5  A    between atoms: N_14  and  C_15
REMARK    6  A    between atoms: C_15  and  C_16
REMARK    7  A    between atoms: C_19  and  O_20
REMARK    8  A    between atoms: O_20  and  C_21
REMARK    9  A    between atoms: C_25  and  N_26
REMARK                            x       y       z     vdW  Elec       q    Type
REMARK                         _______ _______ _______ _____ _____    ______ ____
ROOT
ATOM      1  C   UNL     1       7.526   7.201  18.041  0.00  0.00    +0.000 A 
ATOM      2  N   UNL     1       8.079   6.252  18.869  0.00  0.00    +0.000 NA
ATOM      3  N   UNL     1       7.455   5.101  18.660  0.00  0.00    +0.000 NA
ATOM      4  N   UNL     1       6.511   5.311  17.712  0.00  0.00    +0.000 N 
ATOM      5  C   UNL     1       6.517   6.619  17.287  0.00  0.00    +0.000 A 
ENDROOT
BRANCH   1   7
ATOM      6  N   UNL     1       8.861   8.915  19.005  0.00  0.00    +0.000 N 
ATOM      7  C   UNL     1       7.983   8.588  17.980  0.00  0.00    +0.000 C 
ATOM      8  O   UNL     1       7.631   9.334  17.070  0.00  0.00    +0.000 OA
ATOM      9  H   UNL     1       9.140   8.145  19.599  0.00  0.00    +0.000 HD
BRANCH   6  14
ATOM     10  C   UNL     1       9.858  12.016  20.780  0.00  0.00    +0.000 A 
ATOM     11  C   UNL     1      10.616  12.661  19.802  0.00  0.00    +0.000 A 
ATOM     12  C   UNL     1      10.798  12.079  18.552  0.00  0.00    +0.000 A 
ATOM     13  C   UNL     1      10.225  10.837  18.270  0.00  0.00    +0.000 A 
ATOM     14  C   UNL     1       9.466  10.174  19.235  0.00  0.00    +0.000 A 
ATOM     15  C   UNL     1       9.274  10.777  20.489  0.00  0.00    +0.000 A 
BRANCH  10  17
ATOM     16  C   UNL     1       8.486  13.175  22.345  0.00  0.00    +0.000 C 
ATOM     17  O   UNL     1       9.766  12.699  21.958  0.00  0.00    +0.000 OA
ENDBRANCH  10  17
ENDBRANCH   6  14
ENDBRANCH   1   7
BRANCH   5  18
ATOM     18  N   UNL     1       5.719   7.115  16.313  0.00  0.00    +0.000 N 
ATOM     19  H   UNL     1       6.022   7.295  15.362  0.00  0.00    +0.000 HD
ATOM     20  H   UNL     1       4.710   6.949  16.385  0.00  0.00    +0.000 HD
ENDBRANCH   5  18
BRANCH   4  21
ATOM     21  C   UNL     1       5.789   4.180  17.153  0.00  0.00    +0.000 C 
BRANCH  21  22
ATOM     22  C   UNL     1       4.551   3.853  17.948  0.00  0.00    +0.000 A 
ATOM     23  C   UNL     1       4.071   2.545  18.012  0.00  0.00    +0.000 A 
ATOM     24  C   UNL     1       2.957   2.246  18.800  0.00  0.00    +0.000 A 
ATOM     25  C   UNL     1       2.289   3.227  19.555  0.00  0.00    +0.000 A 
ATOM     26  C   UNL     1       2.752   4.545  19.471  0.00  0.00    +0.000 A 
ATOM     27 BR   UNL     1       2.009   6.063  20.345  0.00  0.00    +0.000 Br
ATOM     28  C   UNL     1       3.871   4.845  18.667  0.00  0.00    +0.000 A 
BRANCH  25  29
ATOM     29  O   UNL     1       1.258   2.673  20.257  0.00  0.00    +0.000 OA
ATOM     30  C   UNL     1       1.313   2.543  21.664  0.00  0.00    +0.000 C 
ENDBRANCH  25  29
ENDBRANCH  21  22
ENDBRANCH   4  21
TORSDOF 7
ENDMDL
MODEL 4
REMARK VINA RESULT:      -7.6      1.521      2.068
REMARK  Name = 
REMARK  9 active torsions:
REMARK  status: ('A' for Active; 'I' for Inactive)
REMARK    1  A    between atoms: C_1  and  O_2
REMARK    2  A    between atoms: O_2  and  C_3
REMARK    3  A    between atoms: C_7  and  N_8
REMARK    4  A    between atoms: C_9  and  C_11
REMARK    5  A    between atoms: N_14  and  C_15
REMARK    6  A    between atoms: C_15  and  C_16
REMARK    7  A    between atoms: C_19  and  O_20
REMARK    8  A    between atoms: O_20  and  C_21
REMARK    9  A    between atoms: C_25  and  N_26
REMARK                            x       y       z     vdW  Elec       q    Type
REMARK                         _______ _______ _______ _____ _____    ______ ____
ROOT
ATOM      1  C   UNL     1       7.855   7.310  18.259  0.00  0.00    +0.000 A 
ATOM      2  N   UNL     1       8.377   6.467  19.212  0.00  0.00    +0.000 NA
ATOM      3  N   UNL     1       7.900   5.248  18.998  0.00  0.00    +0.000 NA
ATOM      4  N   UNL     1       7.080   5.310  17.922  0.00  0.00    +0.000 N 
ATOM      5  C   UNL     1       7.020   6.589  17.418  0.00  0.00    +0.000 A 
ENDROOT
BRANCH   1   7
ATOM      6  N   UNL     1       9.038   9.155  19.176  0.00  0.00    +0.000 N 
ATOM      7  C   UNL     1       8.182   8.732  18.170  0.00  0.00    +0.000 C 
ATOM      8  O   UNL     1       7.751   9.425  17.253  0.00  0.00    +0.000 OA
ATOM      9  H   UNL     1       9.395   8.424  19.780  0.00  0.00    +0.000 HD
BRANCH   6  14
ATOM     10  C   UNL     1      10.601  12.434  18.416  0.00  0.00    +0.000 A 
ATOM     11  C   UNL     1      10.527  13.067  19.657  0.00  0.00    +0.000 A 
ATOM     12  C   UNL     1       9.968  12.415  20.751  0.00  0.00    +0.000 A 
ATOM     13  C   UNL     1       9.468  11.118  20.610  0.00  0.00    +0.000 A 
ATOM     14  C   UNL     1       9.528  10.468  19.377  0.00  0.00    +0.000 A 
ATOM     15  C   UNL     1      10.110  11.128  18.282  0.00  0.00    +0.000 A 
BRANCH  10  17
ATOM     16  C   UNL     1      10.904  14.585  17.439  0.00  0.00    +0.000 C 
ATOM     17  O   UNL     1      11.169  13.190  17.434  0.00  0.00    +0.000 OA
ENDBRANCH  10  17
ENDBRANCH   6  14
ENDBRANCH   1   7
BRANCH   5  18
ATOM     18  N   UNL     1       6.319   6.949  16.318  0.00  0.00    +0.000 N 
ATOM     19  H   UNL     1       6.399   6.493  15.415  0.00  0.00    +0.000 HD
ATOM     20  H   UNL     1       5.415   7.412  16.451  0.00  0.00    +0.000 HD
ENDBRANCH   5  18
BRANCH   4  21
ATOM     21  C   UNL     1       6.553   4.084  17.347  0.00  0.00    +0.000 C 
BRANCH  21  22
ATOM     22  C   UNL     1       5.087   3.903  17.651  0.00  0.00    +0.000 A 
ATOM     23  C   UNL     1       4.132   4.014  16.641  0.00  0.00    +0.000 A 
ATOM     24  C   UNL     1       2.783   3.787  16.925  0.00  0.00    +0.000 A 
ATOM     25  C   UNL     1       2.339   3.433  18.212  0.00  0.00    +0.000 A 
ATOM     26  C   UNL     1       3.293   3.348  19.233  0.00  0.00    +0.000 A 
ATOM     27 BR   UNL     1       2.959   2.937  21.061  0.00  0.00    +0.000 Br
ATOM     28  C   UNL     1       4.652   3.587  18.945  0.00  0.00    +0.000 A 
BRANCH  25  29
ATOM     29  O   UNL     1       0.989   3.238  18.217  0.00  0.00    +0.000 OA
ATOM     30  C   UNL     1       0.413   2.093  18.816  0.00  0.00    +0.000 C 
ENDBRANCH  25  29
ENDBRANCH  21  22
ENDBRANCH   4  21
TORSDOF 7
ENDMDL
MODEL 5
REMARK VINA RESULT:      -7.6      6.931      9.194
REMARK  Name = 
REMARK  9 active torsions:
REMARK  status: ('A' for Active; 'I' for Inactive)
REMARK    1  A    between atoms: C_1  and  O_2
REMARK    2  A    between atoms: O_2  and  C_3
REMARK    3  A    between atoms: C_7  and  N_8
REMARK    4  A    between atoms: C_9  and  C_11
REMARK    5  A    between atoms: N_14  and  C_15
REMARK    6  A    between atoms: C_15  and  C_16
REMARK    7  A    between atoms: C_19  and  O_20
REMARK    8  A    between atoms: O_20  and  C_21
REMARK    9  A    between atoms: C_25  and  N_26
REMARK                            x       y       z     vdW  Elec       q    Type
REMARK                         _______ _______ _______ _____ _____    ______ ____
ROOT
ATOM      1  C   UNL     1       1.430   8.926  19.476  0.00  0.00    +0.000 A 
ATOM      2  N   UNL     1       0.706   8.902  20.646  0.00  0.00    +0.000 NA
ATOM      3  N   UNL     1       0.100  10.073  20.786  0.00  0.00    +0.000 NA
ATOM      4  N   UNL     1       0.435  10.840  19.721  0.00  0.00    +0.000 N 
ATOM      5  C   UNL     1       1.271  10.160  18.865  0.00  0.00    +0.000 A 
ENDROOT
BRANCH   1   7
ATOM      6  N   UNL     1       2.410   6.812  19.946  0.00  0.00    +0.000 N 
ATOM      7  C   UNL     1       2.208   7.791  18.983  0.00  0.00    +0.000 C 
ATOM      8  O   UNL     1       2.584   7.739  17.815  0.00  0.00    +0.000 OA
ATOM      9  H   UNL     1       1.926   6.960  20.823  0.00  0.00    +0.000 HD
BRANCH   6  14
ATOM     10  C   UNL     1       5.243   4.529  19.219  0.00  0.00    +0.000 A 
ATOM     11  C   UNL     1       4.658   3.284  19.453  0.00  0.00    +0.000 A 
ATOM     12  C   UNL     1       3.327   3.190  19.844  0.00  0.00    +0.000 A 
ATOM     13  C   UNL     1       2.567   4.350  20.015  0.00  0.00    +0.000 A 
ATOM     14  C   UNL     1       3.132   5.605  19.791  0.00  0.00    +0.000 A 
ATOM     15  C   UNL     1       4.473   5.689  19.379  0.00  0.00    +0.000 A 
BRANCH  10  17
ATOM     16  C   UNL     1       7.385   5.570  19.189  0.00  0.00    +0.000 C 
ATOM     17  O   UNL     1       6.553   4.472  18.845  0.00  0.00    +0.000 OA
ENDBRANCH  10  17
ENDBRANCH   6  14
ENDBRANCH   1   7
BRANCH   5  18
ATOM     18  N   UNL     1       1.734  10.652  17.692  0.00  0.00    +0.000 N 
ATOM     19  H   UNL     1       2.417  10.184  17.106  0.00  0.00    +0.000 HD
ATOM     20  H   UNL     1       1.132  11.295  17.166  0.00  0.00    +0.000 HD
ENDBRANCH   5  18
BRANCH   4  21
ATOM     21  C   UNL     1      -0.226  12.118  19.518  0.00  0.00    +0.000 C 
BRANCH  21  22
ATOM     22  C   UNL     1      -1.647  11.949  19.043  0.00  0.00    +0.000 A 
ATOM     23  C   UNL     1      -2.718  12.289  19.868  0.00  0.00    +0.000 A 
ATOM     24  C   UNL     1      -4.028  12.182  19.394  0.00  0.00    +0.000 A 
ATOM     25  C   UNL     1      -4.318  11.746  18.089  0.00  0.00    +0.000 A 
ATOM     26  C   UNL     1      -3.246  11.378  17.268  0.00  0.00    +0.000 A 
ATOM     27 BR   UNL     1      -3.359  10.714  15.489  0.00  0.00    +0.000 Br
ATOM     28  C   UNL     1      -1.926  11.478  17.753  0.00  0.00    +0.000 A 
BRANCH  25  29
ATOM     29  O   UNL     1      -5.664  11.760  17.866  0.00  0.00    +0.000 OA
ATOM     30  C   UNL     1      -6.269  12.770  17.082  0.00  0.00    +0.000 C 
ENDBRANCH  25  29
ENDBRANCH  21  22
ENDBRANCH   4  21
TORSDOF 7
ENDMDL
MODEL 6
REMARK VINA RESULT:      -7.4      1.915      2.756
REMARK  Name = 
REMARK  9 active torsions:
REMARK  status: ('A' for Active; 'I' for Inactive)
REMARK    1  A    between atoms: C_1  and  O_2
REMARK    2  A    between atoms: O_2  and  C_3
REMARK    3  A    between atoms: C_7  and  N_8
REMARK    4  A    between atoms: C_9  and  C_11
REMARK    5  A    between atoms: N_14  and  C_15
REMARK    6  A    between atoms: C_15  and  C_16
REMARK    7  A    between atoms: C_19  and  O_20
REMARK    8  A    between atoms: O_20  and  C_21
REMARK    9  A    between atoms: C_25  and  N_26
REMARK                            x       y       z     vdW  Elec       q    Type
REMARK                         _______ _______ _______ _____ _____    ______ ____
ROOT
ATOM      1  C   UNL     1       7.873   7.429  18.313  0.00  0.00    +0.000 A 
ATOM      2  N   UNL     1       8.406   6.553  19.231  0.00  0.00    +0.000 NA
ATOM      3  N   UNL     1       7.906   5.347  18.997  0.00  0.00    +0.000 NA
ATOM      4  N   UNL     1       7.060   5.450  17.944  0.00  0.00    +0.000 N 
ATOM      5  C   UNL     1       7.006   6.743  17.476  0.00  0.00    +0.000 A 
ENDROOT
BRANCH   1   7
ATOM      6  N   UNL     1       9.139   9.223  19.222  0.00  0.00    +0.000 N 
ATOM      7  C   UNL     1       8.219   8.848  18.253  0.00  0.00    +0.000 C 
ATOM      8  O   UNL     1       7.748   9.579  17.386  0.00  0.00    +0.000 OA
ATOM      9  H   UNL     1       9.516   8.466  19.779  0.00  0.00    +0.000 HD
BRANCH   6  14
ATOM     10  C   UNL     1       9.835  12.448  20.920  0.00  0.00    +0.000 A 
ATOM     11  C   UNL     1      10.640  13.087  19.976  0.00  0.00    +0.000 A 
ATOM     12  C   UNL     1      10.951  12.461  18.773  0.00  0.00    +0.000 A 
ATOM     13  C   UNL     1      10.464  11.179  18.508  0.00  0.00    +0.000 A 
ATOM     14  C   UNL     1       9.661  10.521  19.439  0.00  0.00    +0.000 A 
ATOM     15  C   UNL     1       9.338  11.168  20.643  0.00  0.00    +0.000 A 
BRANCH  10  17
ATOM     16  C   UNL     1       8.679  12.666  22.991  0.00  0.00    +0.000 C 
ATOM     17  O   UNL     1       9.614  13.176  22.052  0.00  0.00    +0.000 OA
ENDBRANCH  10  17
ENDBRANCH   6  14
ENDBRANCH   1   7
BRANCH   5  18
ATOM     18  N   UNL     1       6.284   7.141  16.403  0.00  0.00    +0.000 N 
ATOM     19  H   UNL     1       6.481   6.866  15.447  0.00  0.00    +0.000 HD
ATOM     20  H   UNL     1       5.302   7.396  16.549  0.00  0.00    +0.000 HD
ENDBRANCH   5  18
BRANCH   4  21
ATOM     21  C   UNL     1       6.500   4.247  17.350  0.00  0.00    +0.000 C 
BRANCH  21  22
ATOM     22  C   UNL     1       5.056   4.049  17.734  0.00  0.00    +0.000 A 
ATOM     23  C   UNL     1       4.039   4.245  16.801  0.00  0.00    +0.000 A 
ATOM     24  C   UNL     1       2.709   4.001  17.154  0.00  0.00    +0.000 A 
ATOM     25  C   UNL     1       2.345   3.547  18.434  0.00  0.00    +0.000 A 
ATOM     26  C   UNL     1       3.362   3.376  19.381  0.00  0.00    +0.000 A 
ATOM     27 BR   UNL     1       3.144   2.821  21.188  0.00  0.00    +0.000 Br
ATOM     28  C   UNL     1       4.702   3.632  19.024  0.00  0.00    +0.000 A 
BRANCH  25  29
ATOM     29  O   UNL     1       0.996   3.358  18.511  0.00  0.00    +0.000 OA
ATOM     30  C   UNL     1       0.446   2.080  18.766  0.00  0.00    +0.000 C 
ENDBRANCH  25  29
ENDBRANCH  21  22
ENDBRANCH   4  21
TORSDOF 7
ENDMDL
MODEL 7
REMARK VINA RESULT:      -7.3      6.727      9.489
REMARK  Name = 
REMARK  9 active torsions:
REMARK  status: ('A' for Active; 'I' for Inactive)
REMARK    1  A    between atoms: C_1  and  O_2
REMARK    2  A    between atoms: O_2  and  C_3
REMARK    3  A    between atoms: C_7  and  N_8
REMARK    4  A    between atoms: C_9  and  C_11
REMARK    5  A    between atoms: N_14  and  C_15
REMARK    6  A    between atoms: C_15  and  C_16
REMARK    7  A    between atoms: C_19  and  O_20
REMARK    8  A    between atoms: O_20  and  C_21
REMARK    9  A    between atoms: C_25  and  N_26
REMARK                            x       y       z     vdW  Elec       q    Type
REMARK                         _______ _______ _______ _____ _____    ______ ____
ROOT
ATOM      1  C   UNL     1       1.375   8.742  19.858  0.00  0.00    +0.000 A 
ATOM      2  N   UNL     1       0.701   8.943  21.041  0.00  0.00    +0.000 NA
ATOM      3  N   UNL     1       0.141  10.144  21.003  0.00  0.00    +0.000 NA
ATOM      4  N   UNL     1       0.455  10.708  19.812  0.00  0.00    +0.000 N 
ATOM      5  C   UNL     1       1.230   9.862  19.053  0.00  0.00    +0.000 A 
ENDROOT
BRANCH   1   7
ATOM      6  N   UNL     1       1.783   6.462  20.391  0.00  0.00    +0.000 N 
ATOM      7  C   UNL     1       2.094   7.511  19.536  0.00  0.00    +0.000 C 
ATOM      8  O   UNL     1       2.850   7.452  18.571  0.00  0.00    +0.000 OA
ATOM      9  H   UNL     1       1.046   6.650  21.059  0.00  0.00    +0.000 HD
BRANCH   6  14
ATOM     10  C   UNL     1       3.673   3.514  19.164  0.00  0.00    +0.000 A 
ATOM     11  C   UNL     1       3.430   2.590  20.180  0.00  0.00    +0.000 A 
ATOM     12  C   UNL     1       2.638   2.932  21.271  0.00  0.00    +0.000 A 
ATOM     13  C   UNL     1       2.085   4.211  21.359  0.00  0.00    +0.000 A 
ATOM     14  C   UNL     1       2.319   5.152  20.356  0.00  0.00    +0.000 A 
ATOM     15  C   UNL     1       3.106   4.792  19.249  0.00  0.00    +0.000 A 
BRANCH  10  17
ATOM     16  C   UNL     1       4.771   3.932  17.092  0.00  0.00    +0.000 C 
ATOM     17  O   UNL     1       4.468   3.046  18.159  0.00  0.00    +0.000 OA
ENDBRANCH  10  17
ENDBRANCH   6  14
ENDBRANCH   1   7
BRANCH   5  18
ATOM     18  N   UNL     1       1.659  10.131  17.798  0.00  0.00    +0.000 N 
ATOM     19  H   UNL     1       2.627  10.303  17.549  0.00  0.00    +0.000 HD
ATOM     20  H   UNL     1       1.102   9.782  17.012  0.00  0.00    +0.000 HD
ENDBRANCH   5  18
BRANCH   4  21
ATOM     21  C   UNL     1      -0.172  11.959  19.420  0.00  0.00    +0.000 C 
BRANCH  21  22
ATOM     22  C   UNL     1      -1.555  11.746  18.860  0.00  0.00    +0.000 A 
ATOM     23  C   UNL     1      -2.683  12.132  19.584  0.00  0.00    +0.000 A 
ATOM     24  C   UNL     1      -3.956  11.981  19.028  0.00  0.00    +0.000 A 
ATOM     25  C   UNL     1      -4.153  11.455  17.739  0.00  0.00    +0.000 A 
ATOM     26  C   UNL     1      -3.024  11.042  17.022  0.00  0.00    +0.000 A 
ATOM     27 BR   UNL     1      -3.010  10.258  15.288  0.00  0.00    +0.000 Br
ATOM     28  C   UNL     1      -1.742  11.186  17.589  0.00  0.00    +0.000 A 
BRANCH  25  29
ATOM     29  O   UNL     1      -5.480  11.443  17.423  0.00  0.00    +0.000 OA
ATOM     30  C   UNL     1      -6.448  10.956  18.332  0.00  0.00    +0.000 C 
ENDBRANCH  25  29
ENDBRANCH  21  22
ENDBRANCH   4  21
TORSDOF 7
ENDMDL
MODEL 8
REMARK VINA RESULT:      -7.2      6.815      9.713
REMARK  Name = 
REMARK  9 active torsions:
REMARK  status: ('A' for Active; 'I' for Inactive)
REMARK    1  A    between atoms: C_1  and  O_2
REMARK    2  A    between atoms: O_2  and  C_3
REMARK    3  A    between atoms: C_7  and  N_8
REMARK    4  A    between atoms: C_9  and  C_11
REMARK    5  A    between atoms: N_14  and  C_15
REMARK    6  A    between atoms: C_15  and  C_16
REMARK    7  A    between atoms: C_19  and  O_20
REMARK    8  A    between atoms: O_20  and  C_21
REMARK    9  A    between atoms: C_25  and  N_26
REMARK                            x       y       z     vdW  Elec       q    Type
REMARK                         _______ _______ _______ _____ _____    ______ ____
ROOT
ATOM      1  C   UNL     1       1.497   8.980  19.218  0.00  0.00    +0.000 A 
ATOM      2  N   UNL     1       2.081   9.684  18.191  0.00  0.00    +0.000 NA
ATOM      3  N   UNL     1       1.406  10.813  18.023  0.00  0.00    +0.000 NA
ATOM      4  N   UNL     1       0.400  10.831  18.929  0.00  0.00    +0.000 N 
ATOM      5  C   UNL     1       0.416   9.697  19.709  0.00  0.00    +0.000 A 
ENDROOT
BRANCH   1   7
ATOM      6  N   UNL     1       2.697   6.986  18.735  0.00  0.00    +0.000 N 
ATOM      7  C   UNL     1       1.992   7.692  19.700  0.00  0.00    +0.000 C 
ATOM      8  O   UNL     1       1.814   7.338  20.863  0.00  0.00    +0.000 OA
ATOM      9  H   UNL     1       2.855   7.479  17.865  0.00  0.00    +0.000 HD
BRANCH   6  14
ATOM     10  C   UNL     1       2.962   3.297  19.029  0.00  0.00    +0.000 A 
ATOM     11  C   UNL     1       4.341   3.131  19.160  0.00  0.00    +0.000 A 
ATOM     12  C   UNL     1       5.189   4.233  19.159  0.00  0.00    +0.000 A 
ATOM     13  C   UNL     1       4.662   5.519  19.017  0.00  0.00    +0.000 A 
ATOM     14  C   UNL     1       3.287   5.707  18.880  0.00  0.00    +0.000 A 
ATOM     15  C   UNL     1       2.437   4.589  18.900  0.00  0.00    +0.000 A 
BRANCH  10  17
ATOM     16  C   UNL     1       0.860   2.205  18.784  0.00  0.00    +0.000 C 
ATOM     17  O   UNL     1       2.253   2.131  19.044  0.00  0.00    +0.000 OA
ENDBRANCH  10  17
ENDBRANCH   6  14
ENDBRANCH   1   7
BRANCH   5  18
ATOM     18  N   UNL     1      -0.438   9.456  20.730  0.00  0.00    +0.000 N 
ATOM     19  H   UNL     1      -0.646   8.532  21.096  0.00  0.00    +0.000 HD
ATOM     20  H   UNL     1      -0.590  10.199  21.420  0.00  0.00    +0.000 HD
ENDBRANCH   5  18
BRANCH   4  21
ATOM     21  C   UNL     1      -0.398  12.034  19.096  0.00  0.00    +0.000 C 
BRANCH  21  22
ATOM     22  C   UNL     1      -1.816  11.840  18.622  0.00  0.00    +0.000 A 
ATOM     23  C   UNL     1      -2.892  12.203  19.432  0.00  0.00    +0.000 A 
ATOM     24  C   UNL     1      -4.200  12.072  18.957  0.00  0.00    +0.000 A 
ATOM     25  C   UNL     1      -4.483  11.588  17.667  0.00  0.00    +0.000 A 
ATOM     26  C   UNL     1      -3.406  11.197  16.864  0.00  0.00    +0.000 A 
ATOM     27 BR   UNL     1      -3.509  10.469  15.109  0.00  0.00    +0.000 Br
ATOM     28  C   UNL     1      -2.088  11.322  17.349  0.00  0.00    +0.000 A 
BRANCH  25  29
ATOM     29  O   UNL     1      -5.828  11.587  17.440  0.00  0.00    +0.000 OA
ATOM     30  C   UNL     1      -6.530  12.786  17.173  0.00  0.00    +0.000 C 
ENDBRANCH  25  29
ENDBRANCH  21  22
ENDBRANCH   4  21
TORSDOF 7
ENDMDL
MODEL 9
REMARK VINA RESULT:      -7.2      7.538     10.027
REMARK  Name = 
REMARK  9 active torsions:
REMARK  status: ('A' for Active; 'I' for Inactive)
REMARK    1  A    between atoms: C_1  and  O_2
REMARK    2  A    between atoms: O_2  and  C_3
REMARK    3  A    between atoms: C_7  and  N_8
REMARK    4  A    between atoms: C_9  and  C_11
REMARK    5  A    between atoms: N_14  and  C_15
REMARK    6  A    between atoms: C_15  and  C_16
REMARK    7  A    between atoms: C_19  and  O_20
REMARK    8  A    between atoms: O_20  and  C_21
REMARK    9  A    between atoms: C_25  and  N_26
REMARK                            x       y       z     vdW  Elec       q    Type
REMARK                         _______ _______ _______ _____ _____    ______ ____
ROOT
ATOM      1  C   UNL     1       0.933   9.819  19.359  0.00  0.00    +0.000 A 
ATOM      2  N   UNL     1       0.356   9.328  20.508  0.00  0.00    +0.000 NA
ATOM      3  N   UNL     1      -0.278  10.323  21.114  0.00  0.00    +0.000 NA
ATOM      4  N   UNL     1      -0.107  11.438  20.364  0.00  0.00    +0.000 N 
ATOM      5  C   UNL     1       0.649  11.171  19.246  0.00  0.00    +0.000 A 
ENDROOT
BRANCH   1   7
ATOM      6  N   UNL     1       2.052   7.762  18.949  0.00  0.00    +0.000 N 
ATOM      7  C   UNL     1       1.695   8.996  18.422  0.00  0.00    +0.000 C 
ATOM      8  O   UNL     1       1.930   9.385  17.281  0.00  0.00    +0.000 OA
ATOM      9  H   UNL     1       1.671   7.554  19.863  0.00  0.00    +0.000 HD
BRANCH   6  14
ATOM     10  C   UNL     1       3.005   4.389  17.731  0.00  0.00    +0.000 A 
ATOM     11  C   UNL     1       4.200   4.665  17.066  0.00  0.00    +0.000 A 
ATOM     12  C   UNL     1       4.700   5.963  17.020  0.00  0.00    +0.000 A 
ATOM     13  C   UNL     1       4.000   7.002  17.637  0.00  0.00    +0.000 A 
ATOM     14  C   UNL     1       2.802   6.749  18.305  0.00  0.00    +0.000 A 
ATOM     15  C   UNL     1       2.313   5.433  18.360  0.00  0.00    +0.000 A 
BRANCH  10  17
ATOM     16  C   UNL     1       1.452   2.708  18.390  0.00  0.00    +0.000 C 
ATOM     17  O   UNL     1       2.632   3.078  17.693  0.00  0.00    +0.000 OA
ENDBRANCH  10  17
ENDBRANCH   6  14
ENDBRANCH   1   7
BRANCH   5  18
ATOM     18  N   UNL     1       0.946  12.078  18.286  0.00  0.00    +0.000 N 
ATOM     19  H   UNL     1       0.374  12.885  18.065  0.00  0.00    +0.000 HD
ATOM     20  H   UNL     1       1.931  12.207  18.032  0.00  0.00    +0.000 HD
ENDBRANCH   5  18
BRANCH   4  21
ATOM     21  C   UNL     1      -0.842  12.647  20.694  0.00  0.00    +0.000 C 
BRANCH  21  22
ATOM     22  C   UNL     1      -2.322  12.491  20.452  0.00  0.00    +0.000 A 
ATOM     23  C   UNL     1      -3.242  12.786  21.458  0.00  0.00    +0.000 A 
ATOM     24  C   UNL     1      -4.612  12.693  21.201  0.00  0.00    +0.000 A 
ATOM     25  C   UNL     1      -5.114  12.316  19.942  0.00  0.00    +0.000 A 
ATOM     26  C   UNL     1      -4.192  11.993  18.940  0.00  0.00    +0.000 A 
ATOM     27 BR   UNL     1      -4.598  11.411  17.175  0.00  0.00    +0.000 Br
ATOM     28  C   UNL     1      -2.810  12.078  19.205  0.00  0.00    +0.000 A 
BRANCH  25  29
ATOM     29  O   UNL     1      -6.479  12.333  19.945  0.00  0.00    +0.000 OA
ATOM     30  C   UNL     1      -7.228  11.149  20.137  0.00  0.00    +0.000 C 
ENDBRANCH  25  29
ENDBRANCH  21  22
ENDBRANCH   4  21
TORSDOF 7
ENDMDL
