MODEL 1
REMARK VINA RESULT:      -6.7      0.000      0.000
REMARK  Name = 
REMARK  13 active torsions:
REMARK  status: ('A' for Active; 'I' for Inactive)
REMARK    1  A    between atoms: C_1  and  O_2
REMARK    2  A    between atoms: O_2  and  C_3
REMARK    3  A    between atoms: C_7  and  C_8
REMARK    4  A    between atoms: C_8  and  N_9
REMARK    5  A    between atoms: C_11  and  C_12
REMARK    6  A    between atoms: C_12  and  O_13
REMARK    7  A    between atoms: C_12  and  C_14
REMARK    8  A    between atoms: C_17  and  O_18
REMARK    9  A    between atoms: O_18  and  C_19
REMARK   10  A    between atoms: C_20  and  O_21
REMARK   11  A    between atoms: O_21  and  C_22
REMARK   12  A    between atoms: C_23  and  O_24
REMARK   13  A    between atoms: O_24  and  C_25
REMARK                            x       y       z     vdW  Elec       q    Type
REMARK                         _______ _______ _______ _____ _____    ______ ____
ROOT
ATOM      1  C   UNL     1       1.325  10.442  18.691  0.00  0.00    +0.000 C 
ENDROOT
BRANCH   1   2
ATOM      2  C   UNL     1      -0.161  10.728  18.544  0.00  0.00    +0.000 A 
ATOM      3  C   UNL     1      -0.928   9.889  17.719  0.00  0.00    +0.000 A 
ATOM      4  C   UNL     1      -2.297  10.059  17.589  0.00  0.00    +0.000 A 
ATOM      5  C   UNL     1      -2.947  11.106  18.251  0.00  0.00    +0.000 A 
ATOM      6  C   UNL     1      -2.206  11.995  19.061  0.00  0.00    +0.000 A 
ATOM      7  C   UNL     1      -0.805  11.799  19.217  0.00  0.00    +0.000 A 
BRANCH   5   8
ATOM      8  O   UNL     1      -4.313  11.230  18.193  0.00  0.00    +0.000 OA
ATOM      9  C   UNL     1      -4.850  11.781  16.992  0.00  0.00    +0.000 C 
ENDBRANCH   5   8
BRANCH   6  10
ATOM     10  O   UNL     1      -2.775  13.033  19.764  0.00  0.00    +0.000 OA
ATOM     11  C   UNL     1      -3.426  12.746  20.998  0.00  0.00    +0.000 C 
ENDBRANCH   6  10
BRANCH   7  12
ATOM     12  O   UNL     1       0.063  12.576  19.949  0.00  0.00    +0.000 OA
ATOM     13  C   UNL     1       0.127  12.427  21.361  0.00  0.00    +0.000 C 
ENDBRANCH   7  12
ENDBRANCH   1   2
BRANCH   1  16
ATOM     14  N   UNL     1       1.756   7.193  20.303  0.00  0.00    +0.000 N 
ATOM     15  C   UNL     1       1.924   7.928  19.160  0.00  0.00    +0.000 A 
ATOM     16  C   UNL     1       1.426   9.170  19.488  0.00  0.00    +0.000 A 
ATOM     17  N   UNL     1       0.958   9.134  20.784  0.00  0.00    +0.000 NA
ATOM     18  N   UNL     1       1.188   7.927  21.277  0.00  0.00    +0.000 NA
BRANCH  14  19
ATOM     19  C   UNL     1       2.128   5.810  20.552  0.00  0.00    +0.000 C 
BRANCH  19  24
ATOM     20  C   UNL     1       5.035   4.990  18.222  0.00  0.00    +0.000 A 
ATOM     21  C   UNL     1       4.368   4.321  17.193  0.00  0.00    +0.000 A 
ATOM     22  C   UNL     1       2.995   4.091  17.266  0.00  0.00    +0.000 A 
ATOM     23  C   UNL     1       2.274   4.553  18.363  0.00  0.00    +0.000 A 
ATOM     24  C   UNL     1       2.921   5.245  19.400  0.00  0.00    +0.000 A 
ATOM     25  C   UNL     1       4.313   5.432  19.333  0.00  0.00    +0.000 A 
BRANCH  20  27
ATOM     26  C   UNL     1       6.783   6.379  17.391  0.00  0.00    +0.000 C 
ATOM     27  O   UNL     1       6.374   5.167  18.011  0.00  0.00    +0.000 OA
ENDBRANCH  20  27
ENDBRANCH  19  24
ENDBRANCH  14  19
ENDBRANCH   1  16
BRANCH   1  28
ATOM     28  O   UNL     1       1.895  10.302  17.381  0.00  0.00    +0.000 OA
ATOM     29  H   UNL     1       1.708  11.142  16.924  0.00  0.00    +0.000 HD
ENDBRANCH   1  28
TORSDOF 9
ENDMDL
MODEL 2
REMARK VINA RESULT:      -6.6      4.642      7.667
REMARK  Name = 
REMARK  13 active torsions:
REMARK  status: ('A' for Active; 'I' for Inactive)
REMARK    1  A    between atoms: C_1  and  O_2
REMARK    2  A    between atoms: O_2  and  C_3
REMARK    3  A    between atoms: C_7  and  C_8
REMARK    4  A    between atoms: C_8  and  N_9
REMARK    5  A    between atoms: C_11  and  C_12
REMARK    6  A    between atoms: C_12  and  O_13
REMARK    7  A    between atoms: C_12  and  C_14
REMARK    8  A    between atoms: C_17  and  O_18
REMARK    9  A    between atoms: O_18  and  C_19
REMARK   10  A    between atoms: C_20  and  O_21
REMARK   11  A    between atoms: O_21  and  C_22
REMARK   12  A    between atoms: C_23  and  O_24
REMARK   13  A    between atoms: O_24  and  C_25
REMARK                            x       y       z     vdW  Elec       q    Type
REMARK                         _______ _______ _______ _____ _____    ______ ____
ROOT
ATOM      1  C   UNL     1       4.937   3.892  17.969  0.00  0.00    +0.000 C 
ENDROOT
BRANCH   1   2
ATOM      2  C   UNL     1       4.117   5.144  18.237  0.00  0.00    +0.000 A 
ATOM      3  C   UNL     1       4.281   6.249  17.385  0.00  0.00    +0.000 A 
ATOM      4  C   UNL     1       3.522   7.398  17.539  0.00  0.00    +0.000 A 
ATOM      5  C   UNL     1       2.596   7.502  18.581  0.00  0.00    +0.000 A 
ATOM      6  C   UNL     1       2.428   6.428  19.484  0.00  0.00    +0.000 A 
ATOM      7  C   UNL     1       3.186   5.237  19.304  0.00  0.00    +0.000 A 
BRANCH   5   8
ATOM      8  O   UNL     1       1.784   8.603  18.690  0.00  0.00    +0.000 OA
ATOM      9  C   UNL     1       2.125   9.727  17.880  0.00  0.00    +0.000 C 
ENDBRANCH   5   8
BRANCH   6  10
ATOM     10  O   UNL     1       1.520   6.443  20.519  0.00  0.00    +0.000 OA
ATOM     11  C   UNL     1       1.371   7.637  21.279  0.00  0.00    +0.000 C 
ENDBRANCH   6  10
BRANCH   7  12
ATOM     12  O   UNL     1       3.158   4.111  20.095  0.00  0.00    +0.000 OA
ATOM     13  C   UNL     1       2.094   3.179  19.963  0.00  0.00    +0.000 C 
ENDBRANCH   7  12
ENDBRANCH   1   2
BRANCH   1  16
ATOM     14  N   UNL     1       6.681   4.643  14.849  0.00  0.00    +0.000 N 
ATOM     15  C   UNL     1       5.486   4.326  15.437  0.00  0.00    +0.000 A 
ATOM     16  C   UNL     1       5.796   4.207  16.775  0.00  0.00    +0.000 A 
ATOM     17  N   UNL     1       7.147   4.424  16.940  0.00  0.00    +0.000 NA
ATOM     18  N   UNL     1       7.670   4.713  15.759  0.00  0.00    +0.000 NA
BRANCH  14  19
ATOM     19  C   UNL     1       6.956   4.914  13.448  0.00  0.00    +0.000 C 
BRANCH  19  24
ATOM     20  C   UNL     1       4.459   3.005  11.286  0.00  0.00    +0.000 A 
ATOM     21  C   UNL     1       5.170   1.830  11.035  0.00  0.00    +0.000 A 
ATOM     22  C   UNL     1       6.467   1.667  11.519  0.00  0.00    +0.000 A 
ATOM     23  C   UNL     1       7.054   2.673  12.281  0.00  0.00    +0.000 A 
ATOM     24  C   UNL     1       6.349   3.855  12.560  0.00  0.00    +0.000 A 
ATOM     25  C   UNL     1       5.058   4.024  12.031  0.00  0.00    +0.000 A 
BRANCH  20  27
ATOM     26  C   UNL     1       2.920   3.962   9.739  0.00  0.00    +0.000 C 
ATOM     27  O   UNL     1       3.191   3.024  10.772  0.00  0.00    +0.000 OA
ENDBRANCH  20  27
ENDBRANCH  19  24
ENDBRANCH  14  19
ENDBRANCH   1  16
BRANCH   1  28
ATOM     28  O   UNL     1       5.722   3.600  19.134  0.00  0.00    +0.000 OA
ATOM     29  H   UNL     1       5.280   4.062  19.869  0.00  0.00    +0.000 HD
ENDBRANCH   1  28
TORSDOF 9
ENDMDL
MODEL 3
REMARK VINA RESULT:      -6.6      4.935      8.378
REMARK  Name = 
REMARK  13 active torsions:
REMARK  status: ('A' for Active; 'I' for Inactive)
REMARK    1  A    between atoms: C_1  and  O_2
REMARK    2  A    between atoms: O_2  and  C_3
REMARK    3  A    between atoms: C_7  and  C_8
REMARK    4  A    between atoms: C_8  and  N_9
REMARK    5  A    between atoms: C_11  and  C_12
REMARK    6  A    between atoms: C_12  and  O_13
REMARK    7  A    between atoms: C_12  and  C_14
REMARK    8  A    between atoms: C_17  and  O_18
REMARK    9  A    between atoms: O_18  and  C_19
REMARK   10  A    between atoms: C_20  and  O_21
REMARK   11  A    between atoms: O_21  and  C_22
REMARK   12  A    between atoms: C_23  and  O_24
REMARK   13  A    between atoms: O_24  and  C_25
REMARK                            x       y       z     vdW  Elec       q    Type
REMARK                         _______ _______ _______ _____ _____    ______ ____
ROOT
ATOM      1  C   UNL     1       6.202   4.048  17.386  0.00  0.00    +0.000 C 
ENDROOT
BRANCH   1   2
ATOM      2  C   UNL     1       5.005   4.938  17.683  0.00  0.00    +0.000 A 
ATOM      3  C   UNL     1       5.087   6.303  17.360  0.00  0.00    +0.000 A 
ATOM      4  C   UNL     1       4.012   7.156  17.551  0.00  0.00    +0.000 A 
ATOM      5  C   UNL     1       2.823   6.682  18.113  0.00  0.00    +0.000 A 
ATOM      6  C   UNL     1       2.712   5.324  18.488  0.00  0.00    +0.000 A 
ATOM      7  C   UNL     1       3.807   4.443  18.261  0.00  0.00    +0.000 A 
BRANCH   5   8
ATOM      8  O   UNL     1       1.727   7.501  18.228  0.00  0.00    +0.000 OA
ATOM      9  C   UNL     1       1.777   8.487  19.258  0.00  0.00    +0.000 C 
ENDBRANCH   5   8
BRANCH   6  10
ATOM     10  O   UNL     1       1.568   4.776  19.023  0.00  0.00    +0.000 OA
ATOM     11  C   UNL     1       1.375   4.839  20.432  0.00  0.00    +0.000 C 
ENDBRANCH   6  10
BRANCH   7  12
ATOM     12  O   UNL     1       3.873   3.107  18.579  0.00  0.00    +0.000 OA
ATOM     13  C   UNL     1       4.206   2.709  19.902  0.00  0.00    +0.000 C 
ENDBRANCH   7  12
ENDBRANCH   1   2
BRANCH   1  16
ATOM     14  N   UNL     1       7.286   4.856  13.993  0.00  0.00    +0.000 N 
ATOM     15  C   UNL     1       6.565   4.002  14.785  0.00  0.00    +0.000 A 
ATOM     16  C   UNL     1       6.738   4.505  16.057  0.00  0.00    +0.000 A 
ATOM     17  N   UNL     1       7.564   5.606  15.992  0.00  0.00    +0.000 NA
ATOM     18  N   UNL     1       7.871   5.823  14.723  0.00  0.00    +0.000 NA
BRANCH  14  19
ATOM     19  C   UNL     1       7.445   4.832  12.549  0.00  0.00    +0.000 C 
BRANCH  19  24
ATOM     20  C   UNL     1       4.547   2.803  11.120  0.00  0.00    +0.000 A 
ATOM     21  C   UNL     1       5.162   1.564  10.928  0.00  0.00    +0.000 A 
ATOM     22  C   UNL     1       6.516   1.389  11.213  0.00  0.00    +0.000 A 
ATOM     23  C   UNL     1       7.260   2.452  11.716  0.00  0.00    +0.000 A 
ATOM     24  C   UNL     1       6.657   3.702  11.934  0.00  0.00    +0.000 A 
ATOM     25  C   UNL     1       5.302   3.875  11.603  0.00  0.00    +0.000 A 
BRANCH  20  27
ATOM     26  C   UNL     1       2.785   3.740   9.820  0.00  0.00    +0.000 C 
ATOM     27  O   UNL     1       3.213   2.828  10.823  0.00  0.00    +0.000 OA
ENDBRANCH  20  27
ENDBRANCH  19  24
ENDBRANCH  14  19
ENDBRANCH   1  16
BRANCH   1  28
ATOM     28  O   UNL     1       7.165   4.209  18.438  0.00  0.00    +0.000 OA
ATOM     29  H   UNL     1       8.023   4.323  17.992  0.00  0.00    +0.000 HD
ENDBRANCH   1  28
TORSDOF 9
ENDMDL
MODEL 4
REMARK VINA RESULT:      -6.6      1.214      1.799
REMARK  Name = 
REMARK  13 active torsions:
REMARK  status: ('A' for Active; 'I' for Inactive)
REMARK    1  A    between atoms: C_1  and  O_2
REMARK    2  A    between atoms: O_2  and  C_3
REMARK    3  A    between atoms: C_7  and  C_8
REMARK    4  A    between atoms: C_8  and  N_9
REMARK    5  A    between atoms: C_11  and  C_12
REMARK    6  A    between atoms: C_12  and  O_13
REMARK    7  A    between atoms: C_12  and  C_14
REMARK    8  A    between atoms: C_17  and  O_18
REMARK    9  A    between atoms: O_18  and  C_19
REMARK   10  A    between atoms: C_20  and  O_21
REMARK   11  A    between atoms: O_21  and  C_22
REMARK   12  A    between atoms: C_23  and  O_24
REMARK   13  A    between atoms: O_24  and  C_25
REMARK                            x       y       z     vdW  Elec       q    Type
REMARK                         _______ _______ _______ _____ _____    ______ ____
ROOT
ATOM      1  C   UNL     1       1.578  10.514  18.671  0.00  0.00    +0.000 C 
ENDROOT
BRANCH   1   2
ATOM      2  C   UNL     1       0.068  10.643  18.544  0.00  0.00    +0.000 A 
ATOM      3  C   UNL     1      -0.573   9.996  17.473  0.00  0.00    +0.000 A 
ATOM      4  C   UNL     1      -1.951  10.025  17.333  0.00  0.00    +0.000 A 
ATOM      5  C   UNL     1      -2.740  10.739  18.240  0.00  0.00    +0.000 A 
ATOM      6  C   UNL     1      -2.132  11.435  19.309  0.00  0.00    +0.000 A 
ATOM      7  C   UNL     1      -0.719  11.377  19.468  0.00  0.00    +0.000 A 
BRANCH   5   8
ATOM      8  O   UNL     1      -4.110  10.703  18.155  0.00  0.00    +0.000 OA
ATOM      9  C   UNL     1      -4.694  11.351  17.026  0.00  0.00    +0.000 C 
ENDBRANCH   5   8
BRANCH   6  10
ATOM     10  O   UNL     1      -2.842  12.138  20.257  0.00  0.00    +0.000 OA
ATOM     11  C   UNL     1      -3.004  13.542  20.085  0.00  0.00    +0.000 C 
ENDBRANCH   6  10
BRANCH   7  12
ATOM     12  O   UNL     1       0.030  12.005  20.436  0.00  0.00    +0.000 OA
ATOM     13  C   UNL     1       0.025  11.509  21.768  0.00  0.00    +0.000 C 
ENDBRANCH   7  12
ENDBRANCH   1   2
BRANCH   1  16
ATOM     14  N   UNL     1       2.400   6.956  18.716  0.00  0.00    +0.000 N 
ATOM     15  C   UNL     1       2.370   8.108  17.977  0.00  0.00    +0.000 A 
ATOM     16  C   UNL     1       1.855   9.046  18.846  0.00  0.00    +0.000 A 
ATOM     17  N   UNL     1       1.573   8.432  20.047  0.00  0.00    +0.000 NA
ATOM     18  N   UNL     1       1.933   7.162  19.962  0.00  0.00    +0.000 NA
BRANCH  14  19
ATOM     19  C   UNL     1       2.876   5.640  18.322  0.00  0.00    +0.000 C 
BRANCH  19  24
ATOM     20  C   UNL     1       6.354   5.762  16.757  0.00  0.00    +0.000 A 
ATOM     21  C   UNL     1       7.151   5.464  17.864  0.00  0.00    +0.000 A 
ATOM     22  C   UNL     1       6.581   5.269  19.121  0.00  0.00    +0.000 A 
ATOM     23  C   UNL     1       5.200   5.348  19.274  0.00  0.00    +0.000 A 
ATOM     24  C   UNL     1       4.377   5.628  18.171  0.00  0.00    +0.000 A 
ATOM     25  C   UNL     1       4.970   5.864  16.918  0.00  0.00    +0.000 A 
BRANCH  20  27
ATOM     26  C   UNL     1       6.910   4.869  14.620  0.00  0.00    +0.000 C 
ATOM     27  O   UNL     1       7.040   5.907  15.583  0.00  0.00    +0.000 OA
ENDBRANCH  20  27
ENDBRANCH  19  24
ENDBRANCH  14  19
ENDBRANCH   1  16
BRANCH   1  28
ATOM     28  O   UNL     1       2.184  11.038  17.481  0.00  0.00    +0.000 OA
ATOM     29  H   UNL     1       1.485  11.552  17.036  0.00  0.00    +0.000 HD
ENDBRANCH   1  28
TORSDOF 9
ENDMDL
MODEL 5
REMARK VINA RESULT:      -6.6      1.070      1.187
REMARK  Name = 
REMARK  13 active torsions:
REMARK  status: ('A' for Active; 'I' for Inactive)
REMARK    1  A    between atoms: C_1  and  O_2
REMARK    2  A    between atoms: O_2  and  C_3
REMARK    3  A    between atoms: C_7  and  C_8
REMARK    4  A    between atoms: C_8  and  N_9
REMARK    5  A    between atoms: C_11  and  C_12
REMARK    6  A    between atoms: C_12  and  O_13
REMARK    7  A    between atoms: C_12  and  C_14
REMARK    8  A    between atoms: C_17  and  O_18
REMARK    9  A    between atoms: O_18  and  C_19
REMARK   10  A    between atoms: C_20  and  O_21
REMARK   11  A    between atoms: O_21  and  C_22
REMARK   12  A    between atoms: C_23  and  O_24
REMARK   13  A    between atoms: O_24  and  C_25
REMARK                            x       y       z     vdW  Elec       q    Type
REMARK                         _______ _______ _______ _____ _____    ______ ____
ROOT
ATOM      1  C   UNL     1       1.177  11.073  18.903  0.00  0.00    +0.000 C 
ENDROOT
BRANCH   1   2
ATOM      2  C   UNL     1      -0.327  11.085  18.678  0.00  0.00    +0.000 A 
ATOM      3  C   UNL     1      -0.880  10.145  17.792  0.00  0.00    +0.000 A 
ATOM      4  C   UNL     1      -2.248  10.064  17.587  0.00  0.00    +0.000 A 
ATOM      5  C   UNL     1      -3.115  10.951  18.232  0.00  0.00    +0.000 A 
ATOM      6  C   UNL     1      -2.596  11.937  19.102  0.00  0.00    +0.000 A 
ATOM      7  C   UNL     1      -1.193  11.997  19.334  0.00  0.00    +0.000 A 
BRANCH   5   8
ATOM      8  O   UNL     1      -4.475  10.824  18.098  0.00  0.00    +0.000 OA
ATOM      9  C   UNL     1      -5.090  11.610  17.079  0.00  0.00    +0.000 C 
ENDBRANCH   5   8
BRANCH   6  10
ATOM     10  O   UNL     1      -3.385  12.829  19.793  0.00  0.00    +0.000 OA
ATOM     11  C   UNL     1      -3.643  12.586  21.171  0.00  0.00    +0.000 C 
ENDBRANCH   6  10
BRANCH   7  12
ATOM     12  O   UNL     1      -0.525  12.897  20.131  0.00  0.00    +0.000 OA
ATOM     13  C   UNL     1      -0.309  14.224  19.672  0.00  0.00    +0.000 C 
ENDBRANCH   7  12
ENDBRANCH   1   2
BRANCH   1  16
ATOM     14  N   UNL     1       1.980   7.548  19.420  0.00  0.00    +0.000 N 
ATOM     15  C   UNL     1       1.453   8.688  19.967  0.00  0.00    +0.000 A 
ATOM     16  C   UNL     1       1.575   9.624  18.963  0.00  0.00    +0.000 A 
ATOM     17  N   UNL     1       2.185   9.035  17.876  0.00  0.00    +0.000 NA
ATOM     18  N   UNL     1       2.404   7.761  18.161  0.00  0.00    +0.000 NA
BRANCH  14  19
ATOM     19  C   UNL     1       2.091   6.227  20.016  0.00  0.00    +0.000 C 
BRANCH  19  24
ATOM     20  C   UNL     1       5.140   4.464  18.551  0.00  0.00    +0.000 A 
ATOM     21  C   UNL     1       4.554   3.747  17.506  0.00  0.00    +0.000 A 
ATOM     22  C   UNL     1       3.176   3.792  17.297  0.00  0.00    +0.000 A 
ATOM     23  C   UNL     1       2.376   4.576  18.123  0.00  0.00    +0.000 A 
ATOM     24  C   UNL     1       2.948   5.319  19.169  0.00  0.00    +0.000 A 
ATOM     25  C   UNL     1       4.333   5.232  19.393  0.00  0.00    +0.000 A 
BRANCH  20  27
ATOM     26  C   UNL     1       7.277   5.311  17.924  0.00  0.00    +0.000 C 
ATOM     27  O   UNL     1       6.501   4.349  18.627  0.00  0.00    +0.000 OA
ENDBRANCH  20  27
ENDBRANCH  19  24
ENDBRANCH  14  19
ENDBRANCH   1  16
BRANCH   1  28
ATOM     28  O   UNL     1       1.808  11.760  17.813  0.00  0.00    +0.000 OA
ATOM     29  H   UNL     1       1.851  12.695  18.083  0.00  0.00    +0.000 HD
ENDBRANCH   1  28
TORSDOF 9
ENDMDL
MODEL 6
REMARK VINA RESULT:      -6.5      6.242      9.198
REMARK  Name = 
REMARK  13 active torsions:
REMARK  status: ('A' for Active; 'I' for Inactive)
REMARK    1  A    between atoms: C_1  and  O_2
REMARK    2  A    between atoms: O_2  and  C_3
REMARK    3  A    between atoms: C_7  and  C_8
REMARK    4  A    between atoms: C_8  and  N_9
REMARK    5  A    between atoms: C_11  and  C_12
REMARK    6  A    between atoms: C_12  and  O_13
REMARK    7  A    between atoms: C_12  and  C_14
REMARK    8  A    between atoms: C_17  and  O_18
REMARK    9  A    between atoms: O_18  and  C_19
REMARK   10  A    between atoms: C_20  and  O_21
REMARK   11  A    between atoms: O_21  and  C_22
REMARK   12  A    between atoms: C_23  and  O_24
REMARK   13  A    between atoms: O_24  and  C_25
REMARK                            x       y       z     vdW  Elec       q    Type
REMARK                         _______ _______ _______ _____ _____    ______ ____
ROOT
ATOM      1  C   UNL     1       7.286   5.267  17.459  0.00  0.00    +0.000 C 
ENDROOT
BRANCH   1   2
ATOM      2  C   UNL     1       5.857   5.092  17.947  0.00  0.00    +0.000 A 
ATOM      3  C   UNL     1       5.466   5.743  19.129  0.00  0.00    +0.000 A 
ATOM      4  C   UNL     1       4.164   5.672  19.596  0.00  0.00    +0.000 A 
ATOM      5  C   UNL     1       3.208   4.910  18.917  0.00  0.00    +0.000 A 
ATOM      6  C   UNL     1       3.569   4.209  17.745  0.00  0.00    +0.000 A 
ATOM      7  C   UNL     1       4.900   4.309  17.251  0.00  0.00    +0.000 A 
BRANCH   5   8
ATOM      8  O   UNL     1       1.898   4.903  19.327  0.00  0.00    +0.000 OA
ATOM      9  C   UNL     1       1.671   4.749  20.727  0.00  0.00    +0.000 C 
ENDBRANCH   5   8
BRANCH   6  10
ATOM     10  O   UNL     1       2.681   3.459  17.007  0.00  0.00    +0.000 OA
ATOM     11  C   UNL     1       2.246   2.207  17.528  0.00  0.00    +0.000 C 
ENDBRANCH   6  10
BRANCH   7  12
ATOM     12  O   UNL     1       5.419   3.682  16.142  0.00  0.00    +0.000 OA
ATOM     13  C   UNL     1       5.465   4.368  14.898  0.00  0.00    +0.000 C 
ENDBRANCH   7  12
ENDBRANCH   1   2
BRANCH   1  16
ATOM     14  N   UNL     1       7.979   8.825  17.907  0.00  0.00    +0.000 N 
ATOM     15  C   UNL     1       7.385   7.870  17.125  0.00  0.00    +0.000 A 
ATOM     16  C   UNL     1       7.661   6.688  17.778  0.00  0.00    +0.000 A 
ATOM     17  N   UNL     1       8.422   6.963  18.894  0.00  0.00    +0.000 NA
ATOM     18  N   UNL     1       8.587   8.274  18.974  0.00  0.00    +0.000 NA
BRANCH  14  19
ATOM     19  C   UNL     1       7.991  10.266  17.722  0.00  0.00    +0.000 C 
BRANCH  19  24
ATOM     20  C   UNL     1      11.281  12.092  18.355  0.00  0.00    +0.000 A 
ATOM     21  C   UNL     1      11.407  11.936  19.737  0.00  0.00    +0.000 A 
ATOM     22  C   UNL     1      10.418  11.287  20.473  0.00  0.00    +0.000 A 
ATOM     23  C   UNL     1       9.302  10.766  19.825  0.00  0.00    +0.000 A 
ATOM     24  C   UNL     1       9.164  10.895  18.433  0.00  0.00    +0.000 A 
ATOM     25  C   UNL     1      10.149  11.589  17.709  0.00  0.00    +0.000 A 
BRANCH  20  27
ATOM     26  C   UNL     1      12.060  13.469  16.574  0.00  0.00    +0.000 C 
ATOM     27  O   UNL     1      12.333  12.727  17.755  0.00  0.00    +0.000 OA
ENDBRANCH  20  27
ENDBRANCH  19  24
ENDBRANCH  14  19
ENDBRANCH   1  16
BRANCH   1  28
ATOM     28  O   UNL     1       8.122   4.323  18.145  0.00  0.00    +0.000 OA
ATOM     29  H   UNL     1       8.755   4.858  18.657  0.00  0.00    +0.000 HD
ENDBRANCH   1  28
TORSDOF 9
ENDMDL
MODEL 7
REMARK VINA RESULT:      -6.3      1.339      1.748
REMARK  Name = 
REMARK  13 active torsions:
REMARK  status: ('A' for Active; 'I' for Inactive)
REMARK    1  A    between atoms: C_1  and  O_2
REMARK    2  A    between atoms: O_2  and  C_3
REMARK    3  A    between atoms: C_7  and  C_8
REMARK    4  A    between atoms: C_8  and  N_9
REMARK    5  A    between atoms: C_11  and  C_12
REMARK    6  A    between atoms: C_12  and  O_13
REMARK    7  A    between atoms: C_12  and  C_14
REMARK    8  A    between atoms: C_17  and  O_18
REMARK    9  A    between atoms: O_18  and  C_19
REMARK   10  A    between atoms: C_20  and  O_21
REMARK   11  A    between atoms: O_21  and  C_22
REMARK   12  A    between atoms: C_23  and  O_24
REMARK   13  A    between atoms: O_24  and  C_25
REMARK                            x       y       z     vdW  Elec       q    Type
REMARK                         _______ _______ _______ _____ _____    ______ ____
ROOT
ATOM      1  C   UNL     1       1.535  10.465  18.678  0.00  0.00    +0.000 C 
ENDROOT
BRANCH   1   2
ATOM      2  C   UNL     1       0.030  10.657  18.579  0.00  0.00    +0.000 A 
ATOM      3  C   UNL     1      -0.650  10.090  17.488  0.00  0.00    +0.000 A 
ATOM      4  C   UNL     1      -2.027  10.179  17.369  0.00  0.00    +0.000 A 
ATOM      5  C   UNL     1      -2.777  10.876  18.321  0.00  0.00    +0.000 A 
ATOM      6  C   UNL     1      -2.129  11.494  19.414  0.00  0.00    +0.000 A 
ATOM      7  C   UNL     1      -0.717  11.374  19.550  0.00  0.00    +0.000 A 
BRANCH   5   8
ATOM      8  O   UNL     1      -4.148  10.898  18.255  0.00  0.00    +0.000 OA
ATOM      9  C   UNL     1      -4.718  11.312  17.014  0.00  0.00    +0.000 C 
ENDBRANCH   5   8
BRANCH   6  10
ATOM     10  O   UNL     1      -2.798  12.176  20.406  0.00  0.00    +0.000 OA
ATOM     11  C   UNL     1      -2.897  13.593  20.312  0.00  0.00    +0.000 C 
ENDBRANCH   6  10
BRANCH   7  12
ATOM     12  O   UNL     1       0.069  11.924  20.537  0.00  0.00    +0.000 OA
ATOM     13  C   UNL     1       0.015  11.401  21.857  0.00  0.00    +0.000 C 
ENDBRANCH   7  12
ENDBRANCH   1   2
BRANCH   1  16
ATOM     14  N   UNL     1       1.894   7.022  19.843  0.00  0.00    +0.000 N 
ATOM     15  C   UNL     1       1.536   8.303  20.170  0.00  0.00    +0.000 A 
ATOM     16  C   UNL     1       1.745   9.012  19.007  0.00  0.00    +0.000 A 
ATOM     17  N   UNL     1       2.239   8.156  18.046  0.00  0.00    +0.000 NA
ATOM     18  N   UNL     1       2.302   6.939  18.563  0.00  0.00    +0.000 NA
BRANCH  14  19
ATOM     19  C   UNL     1       1.854   5.832  20.676  0.00  0.00    +0.000 C 
BRANCH  19  24
ATOM     20  C   UNL     1       3.121   3.200  18.222  0.00  0.00    +0.000 A 
ATOM     21  C   UNL     1       2.027   2.332  18.177  0.00  0.00    +0.000 A 
ATOM     22  C   UNL     1       0.902   2.565  18.966  0.00  0.00    +0.000 A 
ATOM     23  C   UNL     1       0.854   3.685  19.792  0.00  0.00    +0.000 A 
ATOM     24  C   UNL     1       1.936   4.579  19.839  0.00  0.00    +0.000 A 
ATOM     25  C   UNL     1       3.081   4.310  19.069  0.00  0.00    +0.000 A 
BRANCH  20  27
ATOM     26  C   UNL     1       4.787   3.924  16.681  0.00  0.00    +0.000 C 
ATOM     27  O   UNL     1       4.147   2.866  17.382  0.00  0.00    +0.000 OA
ENDBRANCH  20  27
ENDBRANCH  19  24
ENDBRANCH  14  19
ENDBRANCH   1  16
BRANCH   1  28
ATOM     28  O   UNL     1       2.125  10.823  17.420  0.00  0.00    +0.000 OA
ATOM     29  H   UNL     1       1.725  10.225  16.764  0.00  0.00    +0.000 HD
ENDBRANCH   1  28
TORSDOF 9
ENDMDL
MODEL 8
REMARK VINA RESULT:      -6.3      2.078      3.244
REMARK  Name = 
REMARK  13 active torsions:
REMARK  status: ('A' for Active; 'I' for Inactive)
REMARK    1  A    between atoms: C_1  and  O_2
REMARK    2  A    between atoms: O_2  and  C_3
REMARK    3  A    between atoms: C_7  and  C_8
REMARK    4  A    between atoms: C_8  and  N_9
REMARK    5  A    between atoms: C_11  and  C_12
REMARK    6  A    between atoms: C_12  and  O_13
REMARK    7  A    between atoms: C_12  and  C_14
REMARK    8  A    between atoms: C_17  and  O_18
REMARK    9  A    between atoms: O_18  and  C_19
REMARK   10  A    between atoms: C_20  and  O_21
REMARK   11  A    between atoms: O_21  and  C_22
REMARK   12  A    between atoms: C_23  and  O_24
REMARK   13  A    between atoms: O_24  and  C_25
REMARK                            x       y       z     vdW  Elec       q    Type
REMARK                         _______ _______ _______ _____ _____    ______ ____
ROOT
ATOM      1  C   UNL     1       0.499  10.737  18.092  0.00  0.00    +0.000 C 
ENDROOT
BRANCH   1   2
ATOM      2  C   UNL     1       0.269  11.438  19.421  0.00  0.00    +0.000 A 
ATOM      3  C   UNL     1      -0.895  11.137  20.147  0.00  0.00    +0.000 A 
ATOM      4  C   UNL     1      -1.136  11.697  21.392  0.00  0.00    +0.000 A 
ATOM      5  C   UNL     1      -0.236  12.615  21.941  0.00  0.00    +0.000 A 
ATOM      6  C   UNL     1       0.929  12.974  21.227  0.00  0.00    +0.000 A 
ATOM      7  C   UNL     1       1.189  12.374  19.963  0.00  0.00    +0.000 A 
BRANCH   5   8
ATOM      8  O   UNL     1      -0.426  13.110  23.208  0.00  0.00    +0.000 OA
ATOM      9  C   UNL     1      -1.516  14.013  23.380  0.00  0.00    +0.000 C 
ENDBRANCH   5   8
BRANCH   6  10
ATOM     10  O   UNL     1       1.875  13.850  21.711  0.00  0.00    +0.000 OA
ATOM     11  C   UNL     1       1.643  15.249  21.575  0.00  0.00    +0.000 C 
ENDBRANCH   6  10
BRANCH   7  12
ATOM     12  O   UNL     1       2.258  12.621  19.134  0.00  0.00    +0.000 OA
ATOM     13  C   UNL     1       2.241  13.753  18.275  0.00  0.00    +0.000 C 
ENDBRANCH   7  12
ENDBRANCH   1   2
BRANCH   1  16
ATOM     14  N   UNL     1       2.164   7.683  19.207  0.00  0.00    +0.000 N 
ATOM     15  C   UNL     1       1.242   8.651  19.505  0.00  0.00    +0.000 A 
ATOM     16  C   UNL     1       1.276   9.489  18.411  0.00  0.00    +0.000 A 
ATOM     17  N   UNL     1       2.219   9.021  17.521  0.00  0.00    +0.000 NA
ATOM     18  N   UNL     1       2.736   7.905  18.009  0.00  0.00    +0.000 NA
BRANCH  14  19
ATOM     19  C   UNL     1       2.535   6.516  19.989  0.00  0.00    +0.000 C 
BRANCH  19  24
ATOM     20  C   UNL     1       5.376   4.499  18.434  0.00  0.00    +0.000 A 
ATOM     21  C   UNL     1       4.679   3.751  17.483  0.00  0.00    +0.000 A 
ATOM     22  C   UNL     1       3.293   3.858  17.369  0.00  0.00    +0.000 A 
ATOM     23  C   UNL     1       2.596   4.736  18.195  0.00  0.00    +0.000 A 
ATOM     24  C   UNL     1       3.280   5.511  19.146  0.00  0.00    +0.000 A 
ATOM     25  C   UNL     1       4.672   5.362  19.278  0.00  0.00    +0.000 A 
BRANCH  20  27
ATOM     26  C   UNL     1       7.542   5.456  18.176  0.00  0.00    +0.000 C 
ATOM     27  O   UNL     1       6.730   4.315  18.422  0.00  0.00    +0.000 OA
ENDBRANCH  20  27
ENDBRANCH  19  24
ENDBRANCH  14  19
ENDBRANCH   1  16
BRANCH   1  28
ATOM     28  O   UNL     1      -0.777  10.440  17.505  0.00  0.00    +0.000 OA
ATOM     29  H   UNL     1      -1.124  11.295  17.189  0.00  0.00    +0.000 HD
ENDBRANCH   1  28
TORSDOF 9
ENDMDL
MODEL 9
REMARK VINA RESULT:      -6.3      2.633      8.545
REMARK  Name = 
REMARK  13 active torsions:
REMARK  status: ('A' for Active; 'I' for Inactive)
REMARK    1  A    between atoms: C_1  and  O_2
REMARK    2  A    between atoms: O_2  and  C_3
REMARK    3  A    between atoms: C_7  and  C_8
REMARK    4  A    between atoms: C_8  and  N_9
REMARK    5  A    between atoms: C_11  and  C_12
REMARK    6  A    between atoms: C_12  and  O_13
REMARK    7  A    between atoms: C_12  and  C_14
REMARK    8  A    between atoms: C_17  and  O_18
REMARK    9  A    between atoms: O_18  and  C_19
REMARK   10  A    between atoms: C_20  and  O_21
REMARK   11  A    between atoms: O_21  and  C_22
REMARK   12  A    between atoms: C_23  and  O_24
REMARK   13  A    between atoms: O_24  and  C_25
REMARK                            x       y       z     vdW  Elec       q    Type
REMARK                         _______ _______ _______ _____ _____    ______ ____
ROOT
ATOM      1  C   UNL     1       4.481   3.034  19.124  0.00  0.00    +0.000 C 
ENDROOT
BRANCH   1   2
ATOM      2  C   UNL     1       5.080   3.734  17.914  0.00  0.00    +0.000 A 
ATOM      3  C   UNL     1       4.441   3.590  16.671  0.00  0.00    +0.000 A 
ATOM      4  C   UNL     1       4.901   4.249  15.542  0.00  0.00    +0.000 A 
ATOM      5  C   UNL     1       6.047   5.048  15.606  0.00  0.00    +0.000 A 
ATOM      6  C   UNL     1       6.741   5.189  16.828  0.00  0.00    +0.000 A 
ATOM      7  C   UNL     1       6.248   4.536  17.993  0.00  0.00    +0.000 A 
BRANCH   5   8
ATOM      8  O   UNL     1       6.460   5.769  14.513  0.00  0.00    +0.000 OA
ATOM      9  C   UNL     1       7.208   5.057  13.528  0.00  0.00    +0.000 C 
ENDBRANCH   5   8
BRANCH   6  10
ATOM     10  O   UNL     1       7.861   5.976  16.978  0.00  0.00    +0.000 OA
ATOM     11  C   UNL     1       7.688   7.370  17.213  0.00  0.00    +0.000 C 
ENDBRANCH   6  10
BRANCH   7  12
ATOM     12  O   UNL     1       6.807   4.553  19.250  0.00  0.00    +0.000 OA
ATOM     13  C   UNL     1       7.293   5.773  19.792  0.00  0.00    +0.000 C 
ENDBRANCH   7  12
ENDBRANCH   1   2
BRANCH   1  16
ATOM     14  N   UNL     1       2.074   5.485  20.363  0.00  0.00    +0.000 N 
ATOM     15  C   UNL     1       3.391   5.212  20.106  0.00  0.00    +0.000 A 
ATOM     16  C   UNL     1       3.373   3.926  19.612  0.00  0.00    +0.000 A 
ATOM     17  N   UNL     1       2.073   3.466  19.615  0.00  0.00    +0.000 NA
ATOM     18  N   UNL     1       1.288   4.437  20.053  0.00  0.00    +0.000 NA
BRANCH  14  19
ATOM     19  C   UNL     1       1.488   6.712  20.875  0.00  0.00    +0.000 C 
BRANCH  19  24
ATOM     20  C   UNL     1       1.095  10.103  19.172  0.00  0.00    +0.000 A 
ATOM     21  C   UNL     1       1.778   9.878  17.975  0.00  0.00    +0.000 A 
ATOM     22  C   UNL     1       2.404   8.657  17.732  0.00  0.00    +0.000 A 
ATOM     23  C   UNL     1       2.329   7.640  18.679  0.00  0.00    +0.000 A 
ATOM     24  C   UNL     1       1.631   7.839  19.882  0.00  0.00    +0.000 A 
ATOM     25  C   UNL     1       1.041   9.090  20.131  0.00  0.00    +0.000 A 
BRANCH  20  27
ATOM     26  C   UNL     1       0.253  11.834  20.576  0.00  0.00    +0.000 C 
ATOM     27  O   UNL     1       0.509  11.335  19.270  0.00  0.00    +0.000 OA
ENDBRANCH  20  27
ENDBRANCH  19  24
ENDBRANCH  14  19
ENDBRANCH   1  16
BRANCH   1  28
ATOM     28  O   UNL     1       3.996   1.747  18.714  0.00  0.00    +0.000 OA
ATOM     29  H   UNL     1       4.767   1.152  18.753  0.00  0.00    +0.000 HD
ENDBRANCH   1  28
TORSDOF 9
ENDMDL
