MODEL 1
REMARK VINA RESULT:      -8.3      0.000      0.000
REMARK  Name = 
REMARK  5 active torsions:
REMARK  status: ('A' for Active; 'I' for Inactive)
REMARK    1  A    between atoms: O_1  and  C_2
REMARK    2  A    between atoms: C_2  and  C_3
REMARK    3  A    between atoms: C_2  and  C_21
REMARK    4  A    between atoms: C_5  and  C_6
REMARK    5  A    between atoms: C_12  and  C_13
REMARK                            x       y       z     vdW  Elec       q    Type
REMARK                         _______ _______ _______ _____ _____    ______ ____
ROOT
ATOM      1  C   UNL     1       3.191   5.894  18.096  0.00  0.00    +0.000 A 
ATOM      2  C   UNL     1       3.025   4.822  18.990  0.00  0.00    +0.000 A 
ATOM      3  C   UNL     1       2.306   4.993  20.159  0.00  0.00    +0.000 A 
ATOM      4  N   UNL     1       1.757   6.191  20.469  0.00  0.00    +0.000 NA
ATOM      5  C   UNL     1       1.878   7.242  19.645  0.00  0.00    +0.000 A 
ATOM      6  C   UNL     1       1.309   8.455  20.024  0.00  0.00    +0.000 A 
ATOM      7  C   UNL     1       1.401   9.579  19.181  0.00  0.00    +0.000 A 
ATOM      8  C   UNL     1       2.036   9.488  17.953  0.00  0.00    +0.000 A 
ATOM      9  C   UNL     1       2.619   8.280  17.570  0.00  0.00    +0.000 A 
ATOM     10  C   UNL     1       2.576   7.140  18.410  0.00  0.00    +0.000 A 
ENDROOT
BRANCH   3  11
ATOM     11  C   UNL     1       2.149   3.837  21.135  0.00  0.00    +0.000 C 
ATOM     12  F   UNL     1       2.950   2.770  20.840  0.00  0.00    +0.000 F 
ATOM     13  F   UNL     1       2.467   4.179  22.418  0.00  0.00    +0.000 F 
ATOM     14  F   UNL     1       0.883   3.338  21.176  0.00  0.00    +0.000 F 
ENDBRANCH   3  11
BRANCH   6  15
ATOM     15  C   UNL     1       0.585   8.627  21.339  0.00  0.00    +0.000 C 
ATOM     16  F   UNL     1      -0.450   7.789  21.608  0.00  0.00    +0.000 F 
ATOM     17  F   UNL     1       1.439   8.497  22.399  0.00  0.00    +0.000 F 
ATOM     18  F   UNL     1       0.067   9.887  21.460  0.00  0.00    +0.000 F 
ENDBRANCH   6  15
BRANCH   1  19
ATOM     19  C   UNL     1       4.077   5.661  16.874  0.00  0.00    +0.000 C 
BRANCH  19  20
ATOM     20  C   UNL     1       5.489   6.353  16.987  0.00  0.00    +0.000 C 
ATOM     21  C   UNL     1       6.173   6.266  18.368  0.00  0.00    +0.000 C 
ATOM     22  C   UNL     1       6.808   4.911  18.655  0.00  0.00    +0.000 C 
ATOM     23  C   UNL     1       7.749   4.523  17.525  0.00  0.00    +0.000 C 
ATOM     24  C   UNL     1       7.074   4.638  16.162  0.00  0.00    +0.000 C 
ATOM     25  N   UNL     1       6.453   5.946  15.935  0.00  0.00    +0.000 NA
ATOM     26  H   UNL     1       6.005   5.951  15.022  0.00  0.00    +0.000 HD
ENDBRANCH  19  20
BRANCH  19  27
ATOM     27  O   UNL     1       4.202   4.249  16.676  0.00  0.00    +0.000 OA
ATOM     28  H   UNL     1       4.581   3.874  17.488  0.00  0.00    +0.000 HD
ENDBRANCH  19  27
ENDBRANCH   1  19
TORSDOF 5
ENDMDL
MODEL 2
REMARK VINA RESULT:      -8.3      0.052      1.040
REMARK  Name = 
REMARK  5 active torsions:
REMARK  status: ('A' for Active; 'I' for Inactive)
REMARK    1  A    between atoms: O_1  and  C_2
REMARK    2  A    between atoms: C_2  and  C_3
REMARK    3  A    between atoms: C_2  and  C_21
REMARK    4  A    between atoms: C_5  and  C_6
REMARK    5  A    between atoms: C_12  and  C_13
REMARK                            x       y       z     vdW  Elec       q    Type
REMARK                         _______ _______ _______ _____ _____    ______ ____
ROOT
ATOM      1  C   UNL     1       3.196   5.874  18.085  0.00  0.00    +0.000 A 
ATOM      2  C   UNL     1       3.035   4.805  18.985  0.00  0.00    +0.000 A 
ATOM      3  C   UNL     1       2.331   4.985  20.162  0.00  0.00    +0.000 A 
ATOM      4  N   UNL     1       1.793   6.188  20.474  0.00  0.00    +0.000 NA
ATOM      5  C   UNL     1       1.911   7.234  19.645  0.00  0.00    +0.000 A 
ATOM      6  C   UNL     1       1.353   8.452  20.027  0.00  0.00    +0.000 A 
ATOM      7  C   UNL     1       1.442   9.573  19.179  0.00  0.00    +0.000 A 
ATOM      8  C   UNL     1       2.061   9.474  17.943  0.00  0.00    +0.000 A 
ATOM      9  C   UNL     1       2.632   8.261  17.558  0.00  0.00    +0.000 A 
ATOM     10  C   UNL     1       2.593   7.124  18.402  0.00  0.00    +0.000 A 
ENDROOT
BRANCH   3  11
ATOM     11  C   UNL     1       2.179   3.834  21.143  0.00  0.00    +0.000 C 
ATOM     12  F   UNL     1       0.916   3.309  21.167  0.00  0.00    +0.000 F 
ATOM     13  F   UNL     1       2.998   2.780  20.857  0.00  0.00    +0.000 F 
ATOM     14  F   UNL     1       2.447   4.187  22.431  0.00  0.00    +0.000 F 
ENDBRANCH   3  11
BRANCH   6  15
ATOM     15  C   UNL     1       0.647   8.634  21.350  0.00  0.00    +0.000 C 
ATOM     16  F   UNL     1       1.384   8.511  22.484  0.00  0.00    +0.000 F 
ATOM     17  F   UNL     1       0.056   9.864  21.435  0.00  0.00    +0.000 F 
ATOM     18  F   UNL     1      -0.380   7.742  21.491  0.00  0.00    +0.000 F 
ENDBRANCH   6  15
BRANCH   1  19
ATOM     19  C   UNL     1       4.065   5.631  16.853  0.00  0.00    +0.000 C 
BRANCH  19  20
ATOM     20  C   UNL     1       5.474   6.333  16.936  0.00  0.00    +0.000 C 
ATOM     21  C   UNL     1       6.173   6.280  18.312  0.00  0.00    +0.000 C 
ATOM     22  C   UNL     1       6.819   4.936  18.622  0.00  0.00    +0.000 C 
ATOM     23  C   UNL     1       7.751   4.528  17.491  0.00  0.00    +0.000 C 
ATOM     24  C   UNL     1       7.062   4.610  16.133  0.00  0.00    +0.000 C 
ATOM     25  N   UNL     1       6.430   5.909  15.884  0.00  0.00    +0.000 NA
ATOM     26  H   UNL     1       5.974   5.891  14.975  0.00  0.00    +0.000 HD
ENDBRANCH  19  20
BRANCH  19  27
ATOM     27  O   UNL     1       4.198   4.217  16.671  0.00  0.00    +0.000 OA
ATOM     28  H   UNL     1       5.000   3.937  17.141  0.00  0.00    +0.000 HD
ENDBRANCH  19  27
ENDBRANCH   1  19
TORSDOF 5
ENDMDL
MODEL 3
REMARK VINA RESULT:      -8.1      0.055      1.040
REMARK  Name = 
REMARK  5 active torsions:
REMARK  status: ('A' for Active; 'I' for Inactive)
REMARK    1  A    between atoms: O_1  and  C_2
REMARK    2  A    between atoms: C_2  and  C_3
REMARK    3  A    between atoms: C_2  and  C_21
REMARK    4  A    between atoms: C_5  and  C_6
REMARK    5  A    between atoms: C_12  and  C_13
REMARK                            x       y       z     vdW  Elec       q    Type
REMARK                         _______ _______ _______ _____ _____    ______ ____
ROOT
ATOM      1  C   UNL     1       3.203   5.891  18.075  0.00  0.00    +0.000 A 
ATOM      2  C   UNL     1       3.032   4.820  18.969  0.00  0.00    +0.000 A 
ATOM      3  C   UNL     1       2.319   4.997  20.140  0.00  0.00    +0.000 A 
ATOM      4  N   UNL     1       1.779   6.199  20.452  0.00  0.00    +0.000 NA
ATOM      5  C   UNL     1       1.906   7.249  19.627  0.00  0.00    +0.000 A 
ATOM      6  C   UNL     1       1.346   8.466  20.008  0.00  0.00    +0.000 A 
ATOM      7  C   UNL     1       1.444   9.589  19.165  0.00  0.00    +0.000 A 
ATOM      8  C   UNL     1       2.074   9.493  17.934  0.00  0.00    +0.000 A 
ATOM      9  C   UNL     1       2.647   8.281  17.550  0.00  0.00    +0.000 A 
ATOM     10  C   UNL     1       2.599   7.142  18.390  0.00  0.00    +0.000 A 
ENDROOT
BRANCH   3  11
ATOM     11  C   UNL     1       2.156   3.843  21.117  0.00  0.00    +0.000 C 
ATOM     12  F   UNL     1       2.460   4.180  22.407  0.00  0.00    +0.000 F 
ATOM     13  F   UNL     1       0.878   3.364  21.165  0.00  0.00    +0.000 F 
ATOM     14  F   UNL     1       2.952   2.777  20.826  0.00  0.00    +0.000 F 
ENDBRANCH   3  11
BRANCH   6  15
ATOM     15  C   UNL     1       0.628   8.644  21.325  0.00  0.00    +0.000 C 
ATOM     16  F   UNL     1       0.021   9.837  21.560  0.00  0.00    +0.000 F 
ATOM     17  F   UNL     1      -0.350   7.703  21.491  0.00  0.00    +0.000 F 
ATOM     18  F   UNL     1       1.475   8.459  22.383  0.00  0.00    +0.000 F 
ENDBRANCH   6  15
BRANCH   1  19
ATOM     19  C   UNL     1       4.083   5.651  16.850  0.00  0.00    +0.000 C 
BRANCH  19  20
ATOM     20  C   UNL     1       5.498   6.341  16.954  0.00  0.00    +0.000 C 
ATOM     21  C   UNL     1       6.170   6.292  18.343  0.00  0.00    +0.000 C 
ATOM     22  C   UNL     1       6.796   4.944  18.677  0.00  0.00    +0.000 C 
ATOM     23  C   UNL     1       7.745   4.518  17.567  0.00  0.00    +0.000 C 
ATOM     24  C   UNL     1       7.083   4.595  16.195  0.00  0.00    +0.000 C 
ATOM     25  N   UNL     1       6.469   5.898  15.924  0.00  0.00    +0.000 NA
ATOM     26  H   UNL     1       6.029   5.877  15.007  0.00  0.00    +0.000 HD
ENDBRANCH  19  20
BRANCH  19  27
ATOM     27  O   UNL     1       4.205   4.238  16.657  0.00  0.00    +0.000 OA
ATOM     28  H   UNL     1       5.042   3.960  17.064  0.00  0.00    +0.000 HD
ENDBRANCH  19  27
ENDBRANCH   1  19
TORSDOF 5
ENDMDL
MODEL 4
REMARK VINA RESULT:      -8.0      1.906      2.799
REMARK  Name = 
REMARK  5 active torsions:
REMARK  status: ('A' for Active; 'I' for Inactive)
REMARK    1  A    between atoms: O_1  and  C_2
REMARK    2  A    between atoms: C_2  and  C_3
REMARK    3  A    between atoms: C_2  and  C_21
REMARK    4  A    between atoms: C_5  and  C_6
REMARK    5  A    between atoms: C_12  and  C_13
REMARK                            x       y       z     vdW  Elec       q    Type
REMARK                         _______ _______ _______ _____ _____    ______ ____
ROOT
ATOM      1  C   UNL     1       4.546   4.811  16.751  0.00  0.00    +0.000 A 
ATOM      2  C   UNL     1       4.474   3.459  17.133  0.00  0.00    +0.000 A 
ATOM      3  C   UNL     1       3.712   3.083  18.223  0.00  0.00    +0.000 A 
ATOM      4  N   UNL     1       3.029   4.001  18.946  0.00  0.00    +0.000 NA
ATOM      5  C   UNL     1       3.057   5.300  18.617  0.00  0.00    +0.000 A 
ATOM      6  C   UNL     1       2.350   6.203  19.407  0.00  0.00    +0.000 A 
ATOM      7  C   UNL     1       2.341   7.575  19.087  0.00  0.00    +0.000 A 
ATOM      8  C   UNL     1       3.013   8.041  17.968  0.00  0.00    +0.000 A 
ATOM      9  C   UNL     1       3.732   7.146  17.178  0.00  0.00    +0.000 A 
ATOM     10  C   UNL     1       3.792   5.766  17.491  0.00  0.00    +0.000 A 
ENDROOT
BRANCH   3  11
ATOM     11  C   UNL     1       3.656   1.623  18.648  0.00  0.00    +0.000 C 
ATOM     12  F   UNL     1       3.995   0.757  17.646  0.00  0.00    +0.000 F 
ATOM     13  F   UNL     1       4.511   1.335  19.673  0.00  0.00    +0.000 F 
ATOM     14  F   UNL     1       2.419   1.231  19.061  0.00  0.00    +0.000 F 
ENDBRANCH   3  11
BRANCH   6  15
ATOM     15  C   UNL     1       1.579   5.768  20.631  0.00  0.00    +0.000 C 
ATOM     16  F   UNL     1       0.591   4.851  20.466  0.00  0.00    +0.000 F 
ATOM     17  F   UNL     1       2.408   5.237  21.580  0.00  0.00    +0.000 F 
ATOM     18  F   UNL     1       0.980   6.833  21.246  0.00  0.00    +0.000 F 
ENDBRANCH   6  15
BRANCH   1  19
ATOM     19  C   UNL     1       5.482   5.168  15.598  0.00  0.00    +0.000 C 
BRANCH  19  20
ATOM     20  C   UNL     1       7.003   5.180  16.012  0.00  0.00    +0.000 C 
ATOM     21  C   UNL     1       7.636   6.575  16.210  0.00  0.00    +0.000 C 
ATOM     22  C   UNL     1       7.265   7.236  17.532  0.00  0.00    +0.000 C 
ATOM     23  C   UNL     1       7.571   6.299  18.691  0.00  0.00    +0.000 C 
ATOM     24  C   UNL     1       6.966   4.915  18.474  0.00  0.00    +0.000 C 
ATOM     25  N   UNL     1       7.324   4.326  17.181  0.00  0.00    +0.000 NA
ATOM     26  H   UNL     1       6.875   3.417  17.091  0.00  0.00    +0.000 HD
ENDBRANCH  19  20
BRANCH  19  27
ATOM     27  O   UNL     1       5.241   4.250  14.526  0.00  0.00    +0.000 OA
ATOM     28  H   UNL     1       4.438   4.546  14.065  0.00  0.00    +0.000 HD
ENDBRANCH  19  27
ENDBRANCH   1  19
TORSDOF 5
ENDMDL
MODEL 5
REMARK VINA RESULT:      -8.0      1.095      1.628
REMARK  Name = 
REMARK  5 active torsions:
REMARK  status: ('A' for Active; 'I' for Inactive)
REMARK    1  A    between atoms: O_1  and  C_2
REMARK    2  A    between atoms: C_2  and  C_3
REMARK    3  A    between atoms: C_2  and  C_21
REMARK    4  A    between atoms: C_5  and  C_6
REMARK    5  A    between atoms: C_12  and  C_13
REMARK                            x       y       z     vdW  Elec       q    Type
REMARK                         _______ _______ _______ _____ _____    ______ ____
ROOT
ATOM      1  C   UNL     1       3.470   5.055  18.186  0.00  0.00    +0.000 A 
ATOM      2  C   UNL     1       3.183   4.076  19.154  0.00  0.00    +0.000 A 
ATOM      3  C   UNL     1       2.439   4.402  20.274  0.00  0.00    +0.000 A 
ATOM      4  N   UNL     1       1.981   5.662  20.463  0.00  0.00    +0.000 NA
ATOM      5  C   UNL     1       2.220   6.627  19.565  0.00  0.00    +0.000 A 
ATOM      6  C   UNL     1       1.740   7.909  19.822  0.00  0.00    +0.000 A 
ATOM      7  C   UNL     1       1.956   8.949  18.896  0.00  0.00    +0.000 A 
ATOM      8  C   UNL     1       2.626   8.705  17.707  0.00  0.00    +0.000 A 
ATOM      9  C   UNL     1       3.119   7.427  17.448  0.00  0.00    +0.000 A 
ATOM     10  C   UNL     1       2.951   6.368  18.373  0.00  0.00    +0.000 A 
ENDROOT
BRANCH   3  11
ATOM     11  C   UNL     1       2.150   3.347  21.331  0.00  0.00    +0.000 C 
ATOM     12  F   UNL     1       2.320   3.804  22.609  0.00  0.00    +0.000 F 
ATOM     13  F   UNL     1       0.866   2.886  21.283  0.00  0.00    +0.000 F 
ATOM     14  F   UNL     1       2.953   2.252  21.230  0.00  0.00    +0.000 F 
ENDBRANCH   3  11
BRANCH   6  15
ATOM     15  C   UNL     1       0.987   8.248  21.086  0.00  0.00    +0.000 C 
ATOM     16  F   UNL     1      -0.079   7.472  21.416  0.00  0.00    +0.000 F 
ATOM     17  F   UNL     1       1.807   8.217  22.180  0.00  0.00    +0.000 F 
ATOM     18  F   UNL     1       0.501   9.525  21.049  0.00  0.00    +0.000 F 
ENDBRANCH   6  15
BRANCH   1  19
ATOM     19  C   UNL     1       4.377   4.650  17.025  0.00  0.00    +0.000 C 
BRANCH  19  20
ATOM     20  C   UNL     1       5.789   4.126  17.491  0.00  0.00    +0.000 C 
ATOM     21  C   UNL     1       7.001   4.659  16.696  0.00  0.00    +0.000 C 
ATOM     22  C   UNL     1       7.401   6.082  17.065  0.00  0.00    +0.000 C 
ATOM     23  C   UNL     1       7.608   6.196  18.568  0.00  0.00    +0.000 C 
ATOM     24  C   UNL     1       6.419   5.641  19.346  0.00  0.00    +0.000 C 
ATOM     25  N   UNL     1       6.049   4.282  18.943  0.00  0.00    +0.000 NA
ATOM     26  H   UNL     1       5.241   3.981  19.483  0.00  0.00    +0.000 HD
ENDBRANCH  19  20
BRANCH  19  27
ATOM     27  O   UNL     1       3.689   3.669  16.242  0.00  0.00    +0.000 OA
ATOM     28  H   UNL     1       2.876   4.082  15.907  0.00  0.00    +0.000 HD
ENDBRANCH  19  27
ENDBRANCH   1  19
TORSDOF 5
ENDMDL
MODEL 6
REMARK VINA RESULT:      -8.0      1.911      2.990
REMARK  Name = 
REMARK  5 active torsions:
REMARK  status: ('A' for Active; 'I' for Inactive)
REMARK    1  A    between atoms: O_1  and  C_2
REMARK    2  A    between atoms: C_2  and  C_3
REMARK    3  A    between atoms: C_2  and  C_21
REMARK    4  A    between atoms: C_5  and  C_6
REMARK    5  A    between atoms: C_12  and  C_13
REMARK                            x       y       z     vdW  Elec       q    Type
REMARK                         _______ _______ _______ _____ _____    ______ ____
ROOT
ATOM      1  C   UNL     1       4.555   4.797  16.755  0.00  0.00    +0.000 A 
ATOM      2  C   UNL     1       4.494   3.446  17.140  0.00  0.00    +0.000 A 
ATOM      3  C   UNL     1       3.742   3.068  18.237  0.00  0.00    +0.000 A 
ATOM      4  N   UNL     1       3.060   3.985  18.963  0.00  0.00    +0.000 NA
ATOM      5  C   UNL     1       3.079   5.283  18.631  0.00  0.00    +0.000 A 
ATOM      6  C   UNL     1       2.373   6.184  19.425  0.00  0.00    +0.000 A 
ATOM      7  C   UNL     1       2.355   7.555  19.102  0.00  0.00    +0.000 A 
ATOM      8  C   UNL     1       3.015   8.022  17.976  0.00  0.00    +0.000 A 
ATOM      9  C   UNL     1       3.733   7.129  17.183  0.00  0.00    +0.000 A 
ATOM     10  C   UNL     1       3.803   5.750  17.499  0.00  0.00    +0.000 A 
ENDROOT
BRANCH   3  11
ATOM     11  C   UNL     1       3.697   1.609  18.666  0.00  0.00    +0.000 C 
ATOM     12  F   UNL     1       2.460   1.209  19.089  0.00  0.00    +0.000 F 
ATOM     13  F   UNL     1       4.025   0.750  17.657  0.00  0.00    +0.000 F 
ATOM     14  F   UNL     1       4.541   1.326  19.697  0.00  0.00    +0.000 F 
ENDBRANCH   3  11
BRANCH   6  15
ATOM     15  C   UNL     1       1.614   5.748  20.656  0.00  0.00    +0.000 C 
ATOM     16  F   UNL     1       2.309   5.121  21.640  0.00  0.00    +0.000 F 
ATOM     17  F   UNL     1       1.003   6.808  21.266  0.00  0.00    +0.000 F 
ATOM     18  F   UNL     1       0.596   4.894  20.336  0.00  0.00    +0.000 F 
ENDBRANCH   6  15
BRANCH   1  19
ATOM     19  C   UNL     1       5.481   5.156  15.593  0.00  0.00    +0.000 C 
BRANCH  19  20
ATOM     20  C   UNL     1       7.005   5.181  15.996  0.00  0.00    +0.000 C 
ATOM     21  C   UNL     1       7.624   6.581  16.200  0.00  0.00    +0.000 C 
ATOM     22  C   UNL     1       7.256   7.228  17.529  0.00  0.00    +0.000 C 
ATOM     23  C   UNL     1       7.580   6.286  18.679  0.00  0.00    +0.000 C 
ATOM     24  C   UNL     1       6.989   4.898  18.457  0.00  0.00    +0.000 C 
ATOM     25  N   UNL     1       7.343   4.321  17.156  0.00  0.00    +0.000 NA
ATOM     26  H   UNL     1       6.903   3.409  17.063  0.00  0.00    +0.000 HD
ENDBRANCH  19  20
BRANCH  19  27
ATOM     27  O   UNL     1       5.238   4.232  14.527  0.00  0.00    +0.000 OA
ATOM     28  H   UNL     1       5.842   3.481  14.650  0.00  0.00    +0.000 HD
ENDBRANCH  19  27
ENDBRANCH   1  19
TORSDOF 5
ENDMDL
MODEL 7
REMARK VINA RESULT:      -7.9      1.086      1.618
REMARK  Name = 
REMARK  5 active torsions:
REMARK  status: ('A' for Active; 'I' for Inactive)
REMARK    1  A    between atoms: O_1  and  C_2
REMARK    2  A    between atoms: C_2  and  C_3
REMARK    3  A    between atoms: C_2  and  C_21
REMARK    4  A    between atoms: C_5  and  C_6
REMARK    5  A    between atoms: C_12  and  C_13
REMARK                            x       y       z     vdW  Elec       q    Type
REMARK                         _______ _______ _______ _____ _____    ______ ____
ROOT
ATOM      1  C   UNL     1       3.413   5.061  18.210  0.00  0.00    +0.000 A 
ATOM      2  C   UNL     1       3.131   4.088  19.184  0.00  0.00    +0.000 A 
ATOM      3  C   UNL     1       2.401   4.421  20.311  0.00  0.00    +0.000 A 
ATOM      4  N   UNL     1       1.952   5.684  20.501  0.00  0.00    +0.000 NA
ATOM      5  C   UNL     1       2.186   6.645  19.597  0.00  0.00    +0.000 A 
ATOM      6  C   UNL     1       1.717   7.931  19.854  0.00  0.00    +0.000 A 
ATOM      7  C   UNL     1       1.928   8.966  18.923  0.00  0.00    +0.000 A 
ATOM      8  C   UNL     1       2.583   8.715  17.728  0.00  0.00    +0.000 A 
ATOM      9  C   UNL     1       3.067   7.433  17.467  0.00  0.00    +0.000 A 
ATOM     10  C   UNL     1       2.902   6.378  18.397  0.00  0.00    +0.000 A 
ENDROOT
BRANCH   3  11
ATOM     11  C   UNL     1       2.118   3.371  21.375  0.00  0.00    +0.000 C 
ATOM     12  F   UNL     1       2.900   2.257  21.254  0.00  0.00    +0.000 F 
ATOM     13  F   UNL     1       2.338   3.828  22.642  0.00  0.00    +0.000 F 
ATOM     14  F   UNL     1       0.835   2.916  21.351  0.00  0.00    +0.000 F 
ENDBRANCH   3  11
BRANCH   6  15
ATOM     15  C   UNL     1       0.978   8.278  21.126  0.00  0.00    +0.000 C 
ATOM     16  F   UNL     1       1.695   8.340  22.278  0.00  0.00    +0.000 F 
ATOM     17  F   UNL     1       0.353   9.489  21.024  0.00  0.00    +0.000 F 
ATOM     18  F   UNL     1      -0.026   7.385  21.377  0.00  0.00    +0.000 F 
ENDBRANCH   6  15
BRANCH   1  19
ATOM     19  C   UNL     1       4.304   4.648  17.040  0.00  0.00    +0.000 C 
BRANCH  19  20
ATOM     20  C   UNL     1       5.713   4.104  17.493  0.00  0.00    +0.000 C 
ATOM     21  C   UNL     1       6.919   4.576  16.653  0.00  0.00    +0.000 C 
ATOM     22  C   UNL     1       7.364   6.001  16.961  0.00  0.00    +0.000 C 
ATOM     23  C   UNL     1       7.609   6.162  18.454  0.00  0.00    +0.000 C 
ATOM     24  C   UNL     1       6.424   5.668  19.278  0.00  0.00    +0.000 C 
ATOM     25  N   UNL     1       6.011   4.305  18.932  0.00  0.00    +0.000 NA
ATOM     26  H   UNL     1       5.208   4.044  19.501  0.00  0.00    +0.000 HD
ENDBRANCH  19  20
BRANCH  19  27
ATOM     27  O   UNL     1       3.597   3.678  16.260  0.00  0.00    +0.000 OA
ATOM     28  H   UNL     1       2.666   3.952  16.230  0.00  0.00    +0.000 HD
ENDBRANCH  19  27
ENDBRANCH   1  19
TORSDOF 5
ENDMDL
MODEL 8
REMARK VINA RESULT:      -7.8      0.564      1.040
REMARK  Name = 
REMARK  5 active torsions:
REMARK  status: ('A' for Active; 'I' for Inactive)
REMARK    1  A    between atoms: O_1  and  C_2
REMARK    2  A    between atoms: C_2  and  C_3
REMARK    3  A    between atoms: C_2  and  C_21
REMARK    4  A    between atoms: C_5  and  C_6
REMARK    5  A    between atoms: C_12  and  C_13
REMARK                            x       y       z     vdW  Elec       q    Type
REMARK                         _______ _______ _______ _____ _____    ______ ____
ROOT
ATOM      1  C   UNL     1       3.142   5.509  18.175  0.00  0.00    +0.000 A 
ATOM      2  C   UNL     1       2.963   4.499  19.138  0.00  0.00    +0.000 A 
ATOM      3  C   UNL     1       2.290   4.770  20.315  0.00  0.00    +0.000 A 
ATOM      4  N   UNL     1       1.798   6.006  20.567  0.00  0.00    +0.000 NA
ATOM      5  C   UNL     1       1.933   6.999  19.678  0.00  0.00    +0.000 A 
ATOM      6  C   UNL     1       1.424   8.255  19.999  0.00  0.00    +0.000 A 
ATOM      7  C   UNL     1       1.532   9.322  19.087  0.00  0.00    +0.000 A 
ATOM      8  C   UNL     1       2.122   9.132  17.847  0.00  0.00    +0.000 A 
ATOM      9  C   UNL     1       2.646   7.881  17.522  0.00  0.00    +0.000 A 
ATOM     10  C   UNL     1       2.586   6.796  18.430  0.00  0.00    +0.000 A 
ENDROOT
BRANCH   3  11
ATOM     11  C   UNL     1       2.120   3.682  21.364  0.00  0.00    +0.000 C 
ATOM     12  F   UNL     1       2.922   2.595  21.149  0.00  0.00    +0.000 F 
ATOM     13  F   UNL     1       2.425   4.107  22.624  0.00  0.00    +0.000 F 
ATOM     14  F   UNL     1       0.852   3.188  21.424  0.00  0.00    +0.000 F 
ENDBRANCH   3  11
BRANCH   6  15
ATOM     15  C   UNL     1       0.751   8.535  21.322  0.00  0.00    +0.000 C 
ATOM     16  F   UNL     1       0.231   9.775  21.519  0.00  0.00    +0.000 F 
ATOM     17  F   UNL     1      -0.285   7.671  21.548  0.00  0.00    +0.000 F 
ATOM     18  F   UNL     1       1.607   8.335  22.368  0.00  0.00    +0.000 F 
ENDBRANCH   6  15
BRANCH   1  19
ATOM     19  C   UNL     1       3.977   5.168  16.943  0.00  0.00    +0.000 C 
BRANCH  19  20
ATOM     20  C   UNL     1       5.229   6.109  16.758  0.00  0.00    +0.000 C 
ATOM     21  C   UNL     1       6.471   5.751  17.603  0.00  0.00    +0.000 C 
ATOM     22  C   UNL     1       7.268   4.574  17.055  0.00  0.00    +0.000 C 
ATOM     23  C   UNL     1       7.619   4.812  15.593  0.00  0.00    +0.000 C 
ATOM     24  C   UNL     1       6.391   5.193  14.772  0.00  0.00    +0.000 C 
ATOM     25  N   UNL     1       5.637   6.310  15.347  0.00  0.00    +0.000 NA
ATOM     26  H   UNL     1       4.824   6.500  14.765  0.00  0.00    +0.000 HD
ENDBRANCH  19  20
BRANCH  19  27
ATOM     27  O   UNL     1       4.368   3.793  17.035  0.00  0.00    +0.000 OA
ATOM     28  H   UNL     1       3.831   3.384  17.734  0.00  0.00    +0.000 HD
ENDBRANCH  19  27
ENDBRANCH   1  19
TORSDOF 5
ENDMDL
MODEL 9
REMARK VINA RESULT:      -7.7      2.187      4.615
REMARK  Name = 
REMARK  5 active torsions:
REMARK  status: ('A' for Active; 'I' for Inactive)
REMARK    1  A    between atoms: O_1  and  C_2
REMARK    2  A    between atoms: C_2  and  C_3
REMARK    3  A    between atoms: C_2  and  C_21
REMARK    4  A    between atoms: C_5  and  C_6
REMARK    5  A    between atoms: C_12  and  C_13
REMARK                            x       y       z     vdW  Elec       q    Type
REMARK                         _______ _______ _______ _____ _____    ______ ____
ROOT
ATOM      1  C   UNL     1       4.938   5.816  18.051  0.00  0.00    +0.000 A 
ATOM      2  C   UNL     1       4.121   6.939  17.829  0.00  0.00    +0.000 A 
ATOM      3  C   UNL     1       2.838   6.979  18.344  0.00  0.00    +0.000 A 
ATOM      4  N   UNL     1       2.343   5.943  19.061  0.00  0.00    +0.000 NA
ATOM      5  C   UNL     1       3.086   4.855  19.309  0.00  0.00    +0.000 A 
ATOM      6  C   UNL     1       2.517   3.812  20.036  0.00  0.00    +0.000 A 
ATOM      7  C   UNL     1       3.268   2.658  20.331  0.00  0.00    +0.000 A 
ATOM      8  C   UNL     1       4.590   2.555  19.924  0.00  0.00    +0.000 A 
ATOM      9  C   UNL     1       5.162   3.589  19.185  0.00  0.00    +0.000 A 
ATOM     10  C   UNL     1       4.425   4.748  18.841  0.00  0.00    +0.000 A 
ENDROOT
BRANCH   3  11
ATOM     11  C   UNL     1       1.948   8.184  18.081  0.00  0.00    +0.000 C 
ATOM     12  F   UNL     1       2.604   9.216  17.468  0.00  0.00    +0.000 F 
ATOM     13  F   UNL     1       0.892   7.897  17.266  0.00  0.00    +0.000 F 
ATOM     14  F   UNL     1       1.419   8.718  19.217  0.00  0.00    +0.000 F 
ENDBRANCH   3  11
BRANCH   6  15
ATOM     15  C   UNL     1       1.090   3.859  20.529  0.00  0.00    +0.000 C 
ATOM     16  F   UNL     1       0.556   5.077  20.809  0.00  0.00    +0.000 F 
ATOM     17  F   UNL     1       0.233   3.288  19.630  0.00  0.00    +0.000 F 
ATOM     18  F   UNL     1       0.935   3.128  21.674  0.00  0.00    +0.000 F 
ENDBRANCH   6  15
BRANCH   1  19
ATOM     19  C   UNL     1       6.307   5.798  17.374  0.00  0.00    +0.000 C 
BRANCH  19  20
ATOM     20  C   UNL     1       6.607   4.449  16.614  0.00  0.00    +0.000 C 
ATOM     21  C   UNL     1       5.405   3.798  15.896  0.00  0.00    +0.000 C 
ATOM     22  C   UNL     1       5.041   4.467  14.577  0.00  0.00    +0.000 C 
ATOM     23  C   UNL     1       6.266   4.555  13.677  0.00  0.00    +0.000 C 
ATOM     24  C   UNL     1       7.457   5.173  14.403  0.00  0.00    +0.000 C 
ATOM     25  N   UNL     1       7.757   4.519  15.679  0.00  0.00    +0.000 NA
ATOM     26  H   UNL     1       8.545   4.989  16.119  0.00  0.00    +0.000 HD
ENDBRANCH  19  20
BRANCH  19  27
ATOM     27  O   UNL     1       6.384   6.922  16.490  0.00  0.00    +0.000 OA
ATOM     28  H   UNL     1       6.262   6.590  15.586  0.00  0.00    +0.000 HD
ENDBRANCH  19  27
ENDBRANCH   1  19
TORSDOF 5
ENDMDL
