MODEL 1
REMARK VINA RESULT:      -7.8      0.000      0.000
REMARK  Name = 
REMARK  6 active torsions:
REMARK  status: ('A' for Active; 'I' for Inactive)
REMARK    1  A    between atoms: C_1  and  C_2
REMARK    2  A    between atoms: C_2  and  C_3
REMARK    3  A    between atoms: C_2  and  S_18
REMARK    4  A    between atoms: C_3  and  C_4
REMARK    5  A    between atoms: N_9  and  C_10
REMARK    6  A    between atoms: S_18  and  C_21
REMARK                            x       y       z     vdW  Elec       q    Type
REMARK                         _______ _______ _______ _____ _____    ______ ____
ROOT
ATOM      1  C   UNL     1      -0.643  13.415  19.526  0.00  0.00    +0.000 C 
ATOM      2  C   UNL     1      -0.346  12.276  20.503  0.00  0.00    +0.000 C 
ENDROOT
BRANCH   2   3
ATOM      3  S   UNL     1      -0.538  12.867  22.213  0.00  0.00    +0.000 S 
ATOM      4  O   UNL     1      -0.615  11.712  23.095  0.00  0.00    +0.000 OA
ATOM      5  O   UNL     1       0.425  13.914  22.459  0.00  0.00    +0.000 OA
BRANCH   3   6
ATOM      6  C   UNL     1      -2.153  13.597  22.236  0.00  0.00    +0.000 A 
ATOM      7  C   UNL     1      -2.353  14.980  22.175  0.00  0.00    +0.000 A 
ATOM      8  C   UNL     1      -3.664  15.481  22.075  0.00  0.00    +0.000 A 
ATOM      9  C   UNL     1      -4.752  14.595  22.080  0.00  0.00    +0.000 A 
ATOM     10  C   UNL     1      -4.497  13.236  22.313  0.00  0.00    +0.000 A 
ATOM     11  C   UNL     1      -3.226  12.721  22.334  0.00  0.00    +0.000 A 
ATOM     12  N   UNL     1      -5.577  12.358  22.530  0.00  0.00    +0.000 N 
ATOM     13  C   UNL     1      -6.370  12.285  21.400  0.00  0.00    +0.000 C 
ATOM     14  O   UNL     1      -6.390  11.299  20.673  0.00  0.00    +0.000 OA
ATOM     15  C   UNL     1      -7.225  13.519  21.176  0.00  0.00    +0.000 C 
ATOM     16  S   UNL     1      -6.436  15.107  21.754  0.00  0.00    +0.000 S 
ATOM     17  H   UNL     1      -6.154  12.797  23.246  0.00  0.00    +0.000 HD
ENDBRANCH   3   6
ENDBRANCH   2   3
BRANCH   2  18
ATOM     18  C   UNL     1       1.081  11.742  20.375  0.00  0.00    +0.000 C 
BRANCH  18  19
ATOM     19  C   UNL     1       1.360  11.011  19.081  0.00  0.00    +0.000 C 
ATOM     20  O   UNL     1       1.601  11.624  18.042  0.00  0.00    +0.000 OA
ATOM     21  N   UNL     1       1.344   9.629  19.148  0.00  0.00    +0.000 N 
ATOM     22  C   UNL     1       1.783   8.831  17.996  0.00  0.00    +0.000 C 
ATOM     23  C   UNL     1       2.735   7.703  18.437  0.00  0.00    +0.000 C 
ATOM     24  N   UNL     1       2.146   6.918  19.537  0.00  0.00    +0.000 N 
ATOM     25  C   UNL     1       1.687   7.697  20.697  0.00  0.00    +0.000 C 
ATOM     26  C   UNL     1       0.751   8.831  20.235  0.00  0.00    +0.000 C 
BRANCH  24  27
ATOM     27  C   UNL     1       1.890   5.566  19.430  0.00  0.00    +0.000 A 
ATOM     28  C   UNL     1       2.082   4.882  18.219  0.00  0.00    +0.000 A 
ATOM     29  C   UNL     1       1.801   3.518  18.088  0.00  0.00    +0.000 A 
ATOM     30  C   UNL     1       1.324   2.799  19.177  0.00  0.00    +0.000 A 
ATOM     31  C   UNL     1       1.133   3.446  20.391  0.00  0.00    +0.000 A 
ATOM     32  C   UNL     1       1.414   4.810  20.511  0.00  0.00    +0.000 A 
ENDBRANCH  24  27
ENDBRANCH  18  19
ENDBRANCH   2  18
TORSDOF 5
ENDMDL
MODEL 2
REMARK VINA RESULT:      -7.7      5.742     11.582
REMARK  Name = 
REMARK  6 active torsions:
REMARK  status: ('A' for Active; 'I' for Inactive)
REMARK    1  A    between atoms: C_1  and  C_2
REMARK    2  A    between atoms: C_2  and  C_3
REMARK    3  A    between atoms: C_2  and  S_18
REMARK    4  A    between atoms: C_3  and  C_4
REMARK    5  A    between atoms: N_9  and  C_10
REMARK    6  A    between atoms: S_18  and  C_21
REMARK                            x       y       z     vdW  Elec       q    Type
REMARK                         _______ _______ _______ _____ _____    ______ ____
ROOT
ATOM      1  C   UNL     1       1.515   3.403  18.212  0.00  0.00    +0.000 C 
ATOM      2  C   UNL     1       2.708   4.330  17.972  0.00  0.00    +0.000 C 
ENDROOT
BRANCH   2   3
ATOM      3  S   UNL     1       4.256   3.379  18.072  0.00  0.00    +0.000 S 
ATOM      4  O   UNL     1       4.929   3.722  19.314  0.00  0.00    +0.000 OA
ATOM      5  O   UNL     1       3.982   1.999  17.744  0.00  0.00    +0.000 OA
BRANCH   3   6
ATOM      6  C   UNL     1       5.260   4.056  16.778  0.00  0.00    +0.000 A 
ATOM      7  C   UNL     1       6.428   4.782  17.034  0.00  0.00    +0.000 A 
ATOM      8  C   UNL     1       7.237   5.184  15.956  0.00  0.00    +0.000 A 
ATOM      9  C   UNL     1       6.844   4.891  14.640  0.00  0.00    +0.000 A 
ATOM     10  C   UNL     1       5.583   4.313  14.441  0.00  0.00    +0.000 A 
ATOM     11  C   UNL     1       4.818   3.843  15.478  0.00  0.00    +0.000 A 
ATOM     12  N   UNL     1       5.076   4.198  13.132  0.00  0.00    +0.000 N 
ATOM     13  C   UNL     1       5.873   3.355  12.381  0.00  0.00    +0.000 C 
ATOM     14  O   UNL     1       5.518   2.227  12.059  0.00  0.00    +0.000 OA
ATOM     15  C   UNL     1       7.197   3.973  11.971  0.00  0.00    +0.000 C 
ATOM     16  S   UNL     1       7.893   5.175  13.218  0.00  0.00    +0.000 S 
ATOM     17  H   UNL     1       5.175   5.121  12.712  0.00  0.00    +0.000 HD
ENDBRANCH   3   6
ENDBRANCH   2   3
BRANCH   2  18
ATOM     18  C   UNL     1       2.807   5.449  19.010  0.00  0.00    +0.000 C 
BRANCH  18  19
ATOM     19  C   UNL     1       2.880   6.841  18.421  0.00  0.00    +0.000 C 
ATOM     20  O   UNL     1       3.453   7.052  17.353  0.00  0.00    +0.000 OA
ATOM     21  N   UNL     1       2.254   7.840  19.146  0.00  0.00    +0.000 N 
ATOM     22  C   UNL     1       2.109   9.183  18.571  0.00  0.00    +0.000 C 
ATOM     23  C   UNL     1       0.677   9.717  18.771  0.00  0.00    +0.000 C 
ATOM     24  N   UNL     1       0.268   9.606  20.182  0.00  0.00    +0.000 N 
ATOM     25  C   UNL     1       0.416   8.272  20.784  0.00  0.00    +0.000 C 
ATOM     26  C   UNL     1       1.848   7.749  20.558  0.00  0.00    +0.000 C 
BRANCH  24  27
ATOM     27  C   UNL     1      -0.080  10.705  20.943  0.00  0.00    +0.000 A 
ATOM     28  C   UNL     1       0.255  12.006  20.537  0.00  0.00    +0.000 A 
ATOM     29  C   UNL     1      -0.066  13.127  21.311  0.00  0.00    +0.000 A 
ATOM     30  C   UNL     1      -0.741  12.970  22.515  0.00  0.00    +0.000 A 
ATOM     31  C   UNL     1      -1.095  11.695  22.938  0.00  0.00    +0.000 A 
ATOM     32  C   UNL     1      -0.766  10.581  22.160  0.00  0.00    +0.000 A 
ENDBRANCH  24  27
ENDBRANCH  18  19
ENDBRANCH   2  18
TORSDOF 5
ENDMDL
MODEL 3
REMARK VINA RESULT:      -7.5      5.058     10.955
REMARK  Name = 
REMARK  6 active torsions:
REMARK  status: ('A' for Active; 'I' for Inactive)
REMARK    1  A    between atoms: C_1  and  C_2
REMARK    2  A    between atoms: C_2  and  C_3
REMARK    3  A    between atoms: C_2  and  S_18
REMARK    4  A    between atoms: C_3  and  C_4
REMARK    5  A    between atoms: N_9  and  C_10
REMARK    6  A    between atoms: S_18  and  C_21
REMARK                            x       y       z     vdW  Elec       q    Type
REMARK                         _______ _______ _______ _____ _____    ______ ____
ROOT
ATOM      1  C   UNL     1       0.764   4.320  20.572  0.00  0.00    +0.000 C 
ATOM      2  C   UNL     1       1.779   4.681  19.485  0.00  0.00    +0.000 C 
ENDROOT
BRANCH   2   3
ATOM      3  S   UNL     1       2.847   3.248  19.140  0.00  0.00    +0.000 S 
ATOM      4  O   UNL     1       3.367   2.746  20.402  0.00  0.00    +0.000 OA
ATOM      5  O   UNL     1       2.166   2.364  18.224  0.00  0.00    +0.000 OA
BRANCH   3   6
ATOM      6  C   UNL     1       4.238   3.945  18.291  0.00  0.00    +0.000 A 
ATOM      7  C   UNL     1       5.454   4.209  18.929  0.00  0.00    +0.000 A 
ATOM      8  C   UNL     1       6.550   4.649  18.165  0.00  0.00    +0.000 A 
ATOM      9  C   UNL     1       6.401   4.856  16.784  0.00  0.00    +0.000 A 
ATOM     10  C   UNL     1       5.118   4.737  16.233  0.00  0.00    +0.000 A 
ATOM     11  C   UNL     1       4.057   4.235  16.944  0.00  0.00    +0.000 A 
ATOM     12  N   UNL     1       4.898   5.137  14.901  0.00  0.00    +0.000 N 
ATOM     13  C   UNL     1       5.629   4.346  14.036  0.00  0.00    +0.000 C 
ATOM     14  O   UNL     1       5.109   3.500  13.318  0.00  0.00    +0.000 OA
ATOM     15  C   UNL     1       7.116   4.652  14.039  0.00  0.00    +0.000 C 
ATOM     16  S   UNL     1       7.773   5.213  15.692  0.00  0.00    +0.000 S 
ATOM     17  H   UNL     1       5.294   6.073  14.823  0.00  0.00    +0.000 HD
ENDBRANCH   3   6
ENDBRANCH   2   3
BRANCH   2  18
ATOM     18  C   UNL     1       2.699   5.832  19.892  0.00  0.00    +0.000 C 
BRANCH  18  19
ATOM     19  C   UNL     1       2.527   7.090  19.069  0.00  0.00    +0.000 C 
ATOM     20  O   UNL     1       2.980   7.172  17.928  0.00  0.00    +0.000 OA
ATOM     21  N   UNL     1       1.822   8.118  19.670  0.00  0.00    +0.000 N 
ATOM     22  C   UNL     1       1.442   9.303  18.891  0.00  0.00    +0.000 C 
ATOM     23  C   UNL     1      -0.032   9.677  19.140  0.00  0.00    +0.000 C 
ATOM     24  N   UNL     1      -0.312   9.777  20.583  0.00  0.00    +0.000 N 
ATOM     25  C   UNL     1       0.071   8.606  21.387  0.00  0.00    +0.000 C 
ATOM     26  C   UNL     1       1.542   8.237  21.111  0.00  0.00    +0.000 C 
BRANCH  24  27
ATOM     27  C   UNL     1      -0.754  10.944  21.175  0.00  0.00    +0.000 A 
ATOM     28  C   UNL     1      -0.966  11.022  22.560  0.00  0.00    +0.000 A 
ATOM     29  C   UNL     1      -1.440  12.189  23.170  0.00  0.00    +0.000 A 
ATOM     30  C   UNL     1      -1.708  13.315  22.402  0.00  0.00    +0.000 A 
ATOM     31  C   UNL     1      -1.499  13.271  21.029  0.00  0.00    +0.000 A 
ATOM     32  C   UNL     1      -1.028  12.099  20.428  0.00  0.00    +0.000 A 
ENDBRANCH  24  27
ENDBRANCH  18  19
ENDBRANCH   2  18
TORSDOF 5
ENDMDL
MODEL 4
REMARK VINA RESULT:      -7.5      1.448      1.774
REMARK  Name = 
REMARK  6 active torsions:
REMARK  status: ('A' for Active; 'I' for Inactive)
REMARK    1  A    between atoms: C_1  and  C_2
REMARK    2  A    between atoms: C_2  and  C_3
REMARK    3  A    between atoms: C_2  and  S_18
REMARK    4  A    between atoms: C_3  and  C_4
REMARK    5  A    between atoms: N_9  and  C_10
REMARK    6  A    between atoms: S_18  and  C_21
REMARK                            x       y       z     vdW  Elec       q    Type
REMARK                         _______ _______ _______ _____ _____    ______ ____
ROOT
ATOM      1  C   UNL     1      -1.441  11.761  20.173  0.00  0.00    +0.000 C 
ATOM      2  C   UNL     1      -0.413  12.141  21.241  0.00  0.00    +0.000 C 
ENDROOT
BRANCH   2   3
ATOM      3  S   UNL     1      -0.311  13.952  21.380  0.00  0.00    +0.000 S 
ATOM      4  O   UNL     1       0.479  14.281  22.556  0.00  0.00    +0.000 OA
ATOM      5  O   UNL     1       0.030  14.504  20.089  0.00  0.00    +0.000 OA
BRANCH   3   6
ATOM      6  C   UNL     1      -1.970  14.447  21.761  0.00  0.00    +0.000 A 
ATOM      7  C   UNL     1      -2.708  15.303  20.936  0.00  0.00    +0.000 A 
ATOM      8  C   UNL     1      -4.058  15.555  21.240  0.00  0.00    +0.000 A 
ATOM      9  C   UNL     1      -4.635  14.981  22.383  0.00  0.00    +0.000 A 
ATOM     10  C   UNL     1      -3.802  14.272  23.259  0.00  0.00    +0.000 A 
ATOM     11  C   UNL     1      -2.507  13.950  22.942  0.00  0.00    +0.000 A 
ATOM     12  N   UNL     1      -4.303  13.864  24.511  0.00  0.00    +0.000 N 
ATOM     13  C   UNL     1      -5.336  12.961  24.343  0.00  0.00    +0.000 C 
ATOM     14  O   UNL     1      -5.212  11.766  24.586  0.00  0.00    +0.000 OA
ATOM     15  C   UNL     1      -6.629  13.596  23.865  0.00  0.00    +0.000 C 
ATOM     16  S   UNL     1      -6.385  15.070  22.748  0.00  0.00    +0.000 S 
ATOM     17  H   UNL     1      -4.725  14.693  24.926  0.00  0.00    +0.000 HD
ENDBRANCH   3   6
ENDBRANCH   2   3
BRANCH   2  18
ATOM     18  C   UNL     1       0.994  11.641  20.912  0.00  0.00    +0.000 C 
BRANCH  18  19
ATOM     19  C   UNL     1       1.139  11.052  19.526  0.00  0.00    +0.000 C 
ATOM     20  O   UNL     1       1.223  11.773  18.533  0.00  0.00    +0.000 OA
ATOM     21  N   UNL     1       1.188   9.671  19.455  0.00  0.00    +0.000 N 
ATOM     22  C   UNL     1       1.512   9.011  18.184  0.00  0.00    +0.000 C 
ATOM     23  C   UNL     1       2.557   7.898  18.391  0.00  0.00    +0.000 C 
ATOM     24  N   UNL     1       2.142   6.982  19.468  0.00  0.00    +0.000 N 
ATOM     25  C   UNL     1       1.800   7.621  20.748  0.00  0.00    +0.000 C 
ATOM     26  C   UNL     1       0.768   8.743  20.518  0.00  0.00    +0.000 C 
BRANCH  24  27
ATOM     27  C   UNL     1       1.931   5.634  19.256  0.00  0.00    +0.000 A 
ATOM     28  C   UNL     1       1.464   4.800  20.285  0.00  0.00    +0.000 A 
ATOM     29  C   UNL     1       1.271   3.428  20.092  0.00  0.00    +0.000 A 
ATOM     30  C   UNL     1       1.536   2.855  18.855  0.00  0.00    +0.000 A 
ATOM     31  C   UNL     1       1.990   3.657  17.815  0.00  0.00    +0.000 A 
ATOM     32  C   UNL     1       2.183   5.027  18.017  0.00  0.00    +0.000 A 
ENDBRANCH  24  27
ENDBRANCH  18  19
ENDBRANCH   2  18
TORSDOF 5
ENDMDL
MODEL 5
REMARK VINA RESULT:      -7.4      5.126     10.918
REMARK  Name = 
REMARK  6 active torsions:
REMARK  status: ('A' for Active; 'I' for Inactive)
REMARK    1  A    between atoms: C_1  and  C_2
REMARK    2  A    between atoms: C_2  and  C_3
REMARK    3  A    between atoms: C_2  and  S_18
REMARK    4  A    between atoms: C_3  and  C_4
REMARK    5  A    between atoms: N_9  and  C_10
REMARK    6  A    between atoms: S_18  and  C_21
REMARK                            x       y       z     vdW  Elec       q    Type
REMARK                         _______ _______ _______ _____ _____    ______ ____
ROOT
ATOM      1  C   UNL     1       0.300   3.802  20.553  0.00  0.00    +0.000 C 
ATOM      2  C   UNL     1       1.505   4.262  19.729  0.00  0.00    +0.000 C 
ENDROOT
BRANCH   2   3
ATOM      3  S   UNL     1       2.726   2.917  19.620  0.00  0.00    +0.000 S 
ATOM      4  O   UNL     1       3.506   2.901  20.847  0.00  0.00    +0.000 OA
ATOM      5  O   UNL     1       2.065   1.719  19.155  0.00  0.00    +0.000 OA
BRANCH   3   6
ATOM      6  C   UNL     1       3.840   3.451  18.349  0.00  0.00    +0.000 A 
ATOM      7  C   UNL     1       3.468   3.519  17.002  0.00  0.00    +0.000 A 
ATOM      8  C   UNL     1       4.365   4.066  16.068  0.00  0.00    +0.000 A 
ATOM      9  C   UNL     1       5.633   4.498  16.488  0.00  0.00    +0.000 A 
ATOM     10  C   UNL     1       6.010   4.249  17.814  0.00  0.00    +0.000 A 
ATOM     11  C   UNL     1       5.124   3.790  18.756  0.00  0.00    +0.000 A 
ATOM     12  N   UNL     1       7.342   4.480  18.209  0.00  0.00    +0.000 N 
ATOM     13  C   UNL     1       7.649   5.823  18.097  0.00  0.00    +0.000 C 
ATOM     14  O   UNL     1       7.782   6.552  19.073  0.00  0.00    +0.000 OA
ATOM     15  C   UNL     1       7.837   6.288  16.664  0.00  0.00    +0.000 C 
ATOM     16  S   UNL     1       6.766   5.391  15.428  0.00  0.00    +0.000 S 
ATOM     17  H   UNL     1       7.924   4.005  17.521  0.00  0.00    +0.000 HD
ENDBRANCH   3   6
ENDBRANCH   2   3
BRANCH   2  18
ATOM     18  C   UNL     1       2.221   5.463  20.347  0.00  0.00    +0.000 C 
BRANCH  18  19
ATOM     19  C   UNL     1       2.261   6.690  19.462  0.00  0.00    +0.000 C 
ATOM     20  O   UNL     1       2.693   6.632  18.312  0.00  0.00    +0.000 OA
ATOM     21  N   UNL     1       1.769   7.856  20.019  0.00  0.00    +0.000 N 
ATOM     22  C   UNL     1       1.592   9.052  19.186  0.00  0.00    +0.000 C 
ATOM     23  C   UNL     1       0.217   9.701  19.436  0.00  0.00    +0.000 C 
ATOM     24  N   UNL     1      -0.005   9.920  20.876  0.00  0.00    +0.000 N 
ATOM     25  C   UNL     1       0.178   8.739  21.734  0.00  0.00    +0.000 C 
ATOM     26  C   UNL     1       1.550   8.094  21.456  0.00  0.00    +0.000 C 
BRANCH  24  27
ATOM     27  C   UNL     1      -0.214  11.175  21.413  0.00  0.00    +0.000 A 
ATOM     28  C   UNL     1       0.512  12.289  20.962  0.00  0.00    +0.000 A 
ATOM     29  C   UNL     1       0.331  13.562  21.515  0.00  0.00    +0.000 A 
ATOM     30  C   UNL     1      -0.592  13.751  22.536  0.00  0.00    +0.000 A 
ATOM     31  C   UNL     1      -1.332  12.670  22.997  0.00  0.00    +0.000 A 
ATOM     32  C   UNL     1      -1.142  11.401  22.440  0.00  0.00    +0.000 A 
ENDBRANCH  24  27
ENDBRANCH  18  19
ENDBRANCH   2  18
TORSDOF 5
ENDMDL
MODEL 6
REMARK VINA RESULT:      -7.4      2.589      3.603
REMARK  Name = 
REMARK  6 active torsions:
REMARK  status: ('A' for Active; 'I' for Inactive)
REMARK    1  A    between atoms: C_1  and  C_2
REMARK    2  A    between atoms: C_2  and  C_3
REMARK    3  A    between atoms: C_2  and  S_18
REMARK    4  A    between atoms: C_3  and  C_4
REMARK    5  A    between atoms: N_9  and  C_10
REMARK    6  A    between atoms: S_18  and  C_21
REMARK                            x       y       z     vdW  Elec       q    Type
REMARK                         _______ _______ _______ _____ _____    ______ ____
ROOT
ATOM      1  C   UNL     1      -0.814  11.730  22.257  0.00  0.00    +0.000 C 
ATOM      2  C   UNL     1      -0.102  11.429  20.936  0.00  0.00    +0.000 C 
ENDROOT
BRANCH   2   3
ATOM      3  S   UNL     1      -0.527  12.699  19.705  0.00  0.00    +0.000 S 
ATOM      4  O   UNL     1      -0.643  13.980  20.384  0.00  0.00    +0.000 OA
ATOM      5  O   UNL     1       0.340  12.552  18.559  0.00  0.00    +0.000 OA
BRANCH   3   6
ATOM      6  C   UNL     1      -2.172  12.273  19.199  0.00  0.00    +0.000 A 
ATOM      7  C   UNL     1      -2.431  11.472  18.082  0.00  0.00    +0.000 A 
ATOM      8  C   UNL     1      -3.753  11.076  17.812  0.00  0.00    +0.000 A 
ATOM      9  C   UNL     1      -4.798  11.520  18.638  0.00  0.00    +0.000 A 
ATOM     10  C   UNL     1      -4.497  12.455  19.638  0.00  0.00    +0.000 A 
ATOM     11  C   UNL     1      -3.208  12.791  19.966  0.00  0.00    +0.000 A 
ATOM     12  N   UNL     1      -5.547  13.073  20.344  0.00  0.00    +0.000 N 
ATOM     13  C   UNL     1      -6.257  12.134  21.068  0.00  0.00    +0.000 C 
ATOM     14  O   UNL     1      -6.182  12.049  22.288  0.00  0.00    +0.000 OA
ATOM     15  C   UNL     1      -7.151  11.254  20.213  0.00  0.00    +0.000 C 
ATOM     16  S   UNL     1      -6.477  10.915  18.507  0.00  0.00    +0.000 S 
ATOM     17  H   UNL     1      -6.191  13.422  19.636  0.00  0.00    +0.000 HD
ENDBRANCH   3   6
ENDBRANCH   2   3
BRANCH   2  18
ATOM     18  C   UNL     1      -0.507  10.080  20.340  0.00  0.00    +0.000 C 
BRANCH  18  19
ATOM     19  C   UNL     1       0.140   8.884  21.004  0.00  0.00    +0.000 C 
ATOM     20  O   UNL     1      -0.288   8.437  22.067  0.00  0.00    +0.000 OA
ATOM     21  N   UNL     1       1.218   8.329  20.337  0.00  0.00    +0.000 N 
ATOM     22  C   UNL     1       1.795   7.061  20.801  0.00  0.00    +0.000 C 
ATOM     23  C   UNL     1       2.029   6.097  19.622  0.00  0.00    +0.000 C 
ATOM     24  N   UNL     1       2.787   6.758  18.545  0.00  0.00    +0.000 N 
ATOM     25  C   UNL     1       2.234   8.037  18.072  0.00  0.00    +0.000 C 
ATOM     26  C   UNL     1       1.992   8.980  19.267  0.00  0.00    +0.000 C 
BRANCH  24  27
ATOM     27  C   UNL     1       4.017   6.301  18.115  0.00  0.00    +0.000 A 
ATOM     28  C   UNL     1       4.504   6.617  16.837  0.00  0.00    +0.000 A 
ATOM     29  C   UNL     1       5.736   6.139  16.376  0.00  0.00    +0.000 A 
ATOM     30  C   UNL     1       6.517   5.332  17.194  0.00  0.00    +0.000 A 
ATOM     31  C   UNL     1       6.066   5.010  18.468  0.00  0.00    +0.000 A 
ATOM     32  C   UNL     1       4.832   5.490  18.917  0.00  0.00    +0.000 A 
ENDBRANCH  24  27
ENDBRANCH  18  19
ENDBRANCH   2  18
TORSDOF 5
ENDMDL
MODEL 7
REMARK VINA RESULT:      -7.4      3.289      9.764
REMARK  Name = 
REMARK  6 active torsions:
REMARK  status: ('A' for Active; 'I' for Inactive)
REMARK    1  A    between atoms: C_1  and  C_2
REMARK    2  A    between atoms: C_2  and  C_3
REMARK    3  A    between atoms: C_2  and  S_18
REMARK    4  A    between atoms: C_3  and  C_4
REMARK    5  A    between atoms: N_9  and  C_10
REMARK    6  A    between atoms: S_18  and  C_21
REMARK                            x       y       z     vdW  Elec       q    Type
REMARK                         _______ _______ _______ _____ _____    ______ ____
ROOT
ATOM      1  C   UNL     1      -0.464  10.107  19.370  0.00  0.00    +0.000 C 
ATOM      2  C   UNL     1       0.771  10.289  20.255  0.00  0.00    +0.000 C 
ENDROOT
BRANCH   2   3
ATOM      3  S   UNL     1       0.873   8.926  21.456  0.00  0.00    +0.000 S 
ATOM      4  O   UNL     1       1.890   9.255  22.443  0.00  0.00    +0.000 OA
ATOM      5  O   UNL     1      -0.462   8.564  21.871  0.00  0.00    +0.000 OA
BRANCH   3   6
ATOM      6  C   UNL     1       1.535   7.576  20.517  0.00  0.00    +0.000 A 
ATOM      7  C   UNL     1       2.346   7.767  19.394  0.00  0.00    +0.000 A 
ATOM      8  C   UNL     1       2.932   6.650  18.771  0.00  0.00    +0.000 A 
ATOM      9  C   UNL     1       2.666   5.360  19.257  0.00  0.00    +0.000 A 
ATOM     10  C   UNL     1       1.714   5.221  20.277  0.00  0.00    +0.000 A 
ATOM     11  C   UNL     1       1.193   6.299  20.946  0.00  0.00    +0.000 A 
ATOM     12  N   UNL     1       1.274   3.934  20.640  0.00  0.00    +0.000 N 
ATOM     13  C   UNL     1       2.322   3.197  21.158  0.00  0.00    +0.000 C 
ATOM     14  O   UNL     1       2.416   2.935  22.352  0.00  0.00    +0.000 OA
ATOM     15  C   UNL     1       3.312   2.724  20.109  0.00  0.00    +0.000 C 
ATOM     16  S   UNL     1       3.516   3.897  18.672  0.00  0.00    +0.000 S 
ATOM     17  H   UNL     1       1.014   3.472  19.770  0.00  0.00    +0.000 HD
ENDBRANCH   3   6
ENDBRANCH   2   3
BRANCH   2  18
ATOM     18  C   UNL     1       0.737  11.588  21.060  0.00  0.00    +0.000 C 
BRANCH  18  19
ATOM     19  C   UNL     1      -0.074  12.696  20.423  0.00  0.00    +0.000 C 
ATOM     20  O   UNL     1       0.299  13.242  19.386  0.00  0.00    +0.000 OA
ATOM     21  N   UNL     1      -1.251  13.035  21.067  0.00  0.00    +0.000 N 
ATOM     22  C   UNL     1      -2.195  13.962  20.432  0.00  0.00    +0.000 C 
ATOM     23  C   UNL     1      -3.637  13.428  20.521  0.00  0.00    +0.000 C 
ATOM     24  N   UNL     1      -3.977  13.061  21.907  0.00  0.00    +0.000 N 
ATOM     25  C   UNL     1      -3.039  12.142  22.568  0.00  0.00    +0.000 C 
ATOM     26  C   UNL     1      -1.601  12.684  22.454  0.00  0.00    +0.000 C 
BRANCH  24  27
ATOM     27  C   UNL     1      -5.012  13.657  22.600  0.00  0.00    +0.000 A 
ATOM     28  C   UNL     1      -5.102  15.053  22.716  0.00  0.00    +0.000 A 
ATOM     29  C   UNL     1      -6.130  15.670  23.438  0.00  0.00    +0.000 A 
ATOM     30  C   UNL     1      -7.102  14.897  24.061  0.00  0.00    +0.000 A 
ATOM     31  C   UNL     1      -7.045  13.513  23.956  0.00  0.00    +0.000 A 
ATOM     32  C   UNL     1      -6.013  12.906  23.234  0.00  0.00    +0.000 A 
ENDBRANCH  24  27
ENDBRANCH  18  19
ENDBRANCH   2  18
TORSDOF 5
ENDMDL
MODEL 8
REMARK VINA RESULT:      -7.2      1.250      1.538
REMARK  Name = 
REMARK  6 active torsions:
REMARK  status: ('A' for Active; 'I' for Inactive)
REMARK    1  A    between atoms: C_1  and  C_2
REMARK    2  A    between atoms: C_2  and  C_3
REMARK    3  A    between atoms: C_2  and  S_18
REMARK    4  A    between atoms: C_3  and  C_4
REMARK    5  A    between atoms: N_9  and  C_10
REMARK    6  A    between atoms: S_18  and  C_21
REMARK                            x       y       z     vdW  Elec       q    Type
REMARK                         _______ _______ _______ _____ _____    ______ ____
ROOT
ATOM      1  C   UNL     1       0.954  12.618  21.150  0.00  0.00    +0.000 C 
ATOM      2  C   UNL     1      -0.520  13.030  21.152  0.00  0.00    +0.000 C 
ENDROOT
BRANCH   2   3
ATOM      3  S   UNL     1      -1.121  13.155  22.865  0.00  0.00    +0.000 S 
ATOM      4  O   UNL     1      -1.281  11.811  23.397  0.00  0.00    +0.000 OA
ATOM      5  O   UNL     1      -0.327  14.134  23.571  0.00  0.00    +0.000 OA
BRANCH   3   6
ATOM      6  C   UNL     1      -2.761  13.805  22.697  0.00  0.00    +0.000 A 
ATOM      7  C   UNL     1      -3.014  15.163  22.479  0.00  0.00    +0.000 A 
ATOM      8  C   UNL     1      -4.333  15.587  22.236  0.00  0.00    +0.000 A 
ATOM      9  C   UNL     1      -5.381  14.653  22.255  0.00  0.00    +0.000 A 
ATOM     10  C   UNL     1      -5.088  13.339  22.645  0.00  0.00    +0.000 A 
ATOM     11  C   UNL     1      -3.802  12.891  22.809  0.00  0.00    +0.000 A 
ATOM     12  N   UNL     1      -6.144  12.435  22.874  0.00  0.00    +0.000 N 
ATOM     13  C   UNL     1      -6.845  12.211  21.705  0.00  0.00    +0.000 C 
ATOM     14  O   UNL     1      -6.769  11.157  21.083  0.00  0.00    +0.000 OA
ATOM     15  C   UNL     1      -7.732  13.372  21.294  0.00  0.00    +0.000 C 
ATOM     16  S   UNL     1      -7.055  15.047  21.759  0.00  0.00    +0.000 S 
ATOM     17  H   UNL     1      -6.791  12.914  23.498  0.00  0.00    +0.000 HD
ENDBRANCH   3   6
ENDBRANCH   2   3
BRANCH   2  18
ATOM     18  C   UNL     1      -1.418  12.018  20.439  0.00  0.00    +0.000 C 
BRANCH  18  19
ATOM     19  C   UNL     1      -0.882  11.536  19.109  0.00  0.00    +0.000 C 
ATOM     20  O   UNL     1      -1.037  12.196  18.083  0.00  0.00    +0.000 OA
ATOM     21  N   UNL     1      -0.202  10.331  19.129  0.00  0.00    +0.000 N 
ATOM     22  C   UNL     1       0.513   9.870  17.933  0.00  0.00    +0.000 C 
ATOM     23  C   UNL     1       1.924   9.366  18.293  0.00  0.00    +0.000 C 
ATOM     24  N   UNL     1       1.866   8.383  19.389  0.00  0.00    +0.000 N 
ATOM     25  C   UNL     1       1.144   8.817  20.594  0.00  0.00    +0.000 C 
ATOM     26  C   UNL     1      -0.257   9.334  20.212  0.00  0.00    +0.000 C 
BRANCH  24  27
ATOM     27  C   UNL     1       2.315   7.085  19.246  0.00  0.00    +0.000 A 
ATOM     28  C   UNL     1       3.106   6.705  18.150  0.00  0.00    +0.000 A 
ATOM     29  C   UNL     1       3.545   5.387  17.978  0.00  0.00    +0.000 A 
ATOM     30  C   UNL     1       3.205   4.414  18.909  0.00  0.00    +0.000 A 
ATOM     31  C   UNL     1       2.431   4.762  20.009  0.00  0.00    +0.000 A 
ATOM     32  C   UNL     1       1.995   6.080  20.171  0.00  0.00    +0.000 A 
ENDBRANCH  24  27
ENDBRANCH  18  19
ENDBRANCH   2  18
TORSDOF 5
ENDMDL
MODEL 9
REMARK VINA RESULT:      -7.2      2.710      3.557
REMARK  Name = 
REMARK  6 active torsions:
REMARK  status: ('A' for Active; 'I' for Inactive)
REMARK    1  A    between atoms: C_1  and  C_2
REMARK    2  A    between atoms: C_2  and  C_3
REMARK    3  A    between atoms: C_2  and  S_18
REMARK    4  A    between atoms: C_3  and  C_4
REMARK    5  A    between atoms: N_9  and  C_10
REMARK    6  A    between atoms: S_18  and  C_21
REMARK                            x       y       z     vdW  Elec       q    Type
REMARK                         _______ _______ _______ _____ _____    ______ ____
ROOT
ATOM      1  C   UNL     1      -2.503  10.265  17.841  0.00  0.00    +0.000 C 
ATOM      2  C   UNL     1      -1.588  10.505  19.044  0.00  0.00    +0.000 C 
ENDROOT
BRANCH   2   3
ATOM      3  S   UNL     1      -1.612  12.268  19.493  0.00  0.00    +0.000 S 
ATOM      4  O   UNL     1      -0.753  12.461  20.650  0.00  0.00    +0.000 OA
ATOM      5  O   UNL     1      -1.425  13.060  18.300  0.00  0.00    +0.000 OA
BRANCH   3   6
ATOM      6  C   UNL     1      -3.265  12.540  20.072  0.00  0.00    +0.000 A 
ATOM      7  C   UNL     1      -4.385  12.388  19.247  0.00  0.00    +0.000 A 
ATOM      8  C   UNL     1      -5.671  12.503  19.806  0.00  0.00    +0.000 A 
ATOM      9  C   UNL     1      -5.815  12.807  21.169  0.00  0.00    +0.000 A 
ATOM     10  C   UNL     1      -4.661  13.114  21.903  0.00  0.00    +0.000 A 
ATOM     11  C   UNL     1      -3.399  12.932  21.398  0.00  0.00    +0.000 A 
ATOM     12  N   UNL     1      -4.789  13.623  23.210  0.00  0.00    +0.000 N 
ATOM     13  C   UNL     1      -5.382  12.686  24.034  0.00  0.00    +0.000 C 
ATOM     14  O   UNL     1      -4.756  12.074  24.892  0.00  0.00    +0.000 OA
ATOM     15  C   UNL     1      -6.872  12.518  23.794  0.00  0.00    +0.000 C 
ATOM     16  S   UNL     1      -7.389  12.774  22.020  0.00  0.00    +0.000 S 
ATOM     17  H   UNL     1      -5.452  14.394  23.146  0.00  0.00    +0.000 HD
ENDBRANCH   3   6
ENDBRANCH   2   3
BRANCH   2  18
ATOM     18  C   UNL     1      -0.130  10.139  18.760  0.00  0.00    +0.000 C 
BRANCH  18  19
ATOM     19  C   UNL     1       0.480   9.184  19.763  0.00  0.00    +0.000 C 
ATOM     20  O   UNL     1      -0.036   9.001  20.864  0.00  0.00    +0.000 OA
ATOM     21  N   UNL     1       1.629   8.529  19.356  0.00  0.00    +0.000 N 
ATOM     22  C   UNL     1       2.190   7.449  20.178  0.00  0.00    +0.000 C 
ATOM     23  C   UNL     1       2.556   6.229  19.311  0.00  0.00    +0.000 C 
ATOM     24  N   UNL     1       3.397   6.630  18.169  0.00  0.00    +0.000 N 
ATOM     25  C   UNL     1       2.861   7.718  17.337  0.00  0.00    +0.000 C 
ATOM     26  C   UNL     1       2.484   8.922  18.223  0.00  0.00    +0.000 C 
BRANCH  24  27
ATOM     27  C   UNL     1       4.672   6.137  17.977  0.00  0.00    +0.000 A 
ATOM     28  C   UNL     1       5.157   5.058  18.733  0.00  0.00    +0.000 A 
ATOM     29  C   UNL     1       6.456   4.565  18.569  0.00  0.00    +0.000 A 
ATOM     30  C   UNL     1       7.305   5.142  17.632  0.00  0.00    +0.000 A 
ATOM     31  C   UNL     1       6.850   6.205  16.862  0.00  0.00    +0.000 A 
ATOM     32  C   UNL     1       5.551   6.692  17.035  0.00  0.00    +0.000 A 
ENDBRANCH  24  27
ENDBRANCH  18  19
ENDBRANCH   2  18
TORSDOF 5
ENDMDL
