MODEL 1
REMARK VINA RESULT:      -8.5      0.000      0.000
REMARK  Name = 
REMARK  7 active torsions:
REMARK  status: ('A' for Active; 'I' for Inactive)
REMARK    1  A    between atoms: C_2  and  C_3
REMARK    2  A    between atoms: C_2  and  C_17
REMARK    3  A    between atoms: C_7  and  C_8
REMARK    4  A    between atoms: C_12  and  O_13
REMARK    5  A    between atoms: C_20  and  O_21
REMARK    6  A    between atoms: C_22  and  O_23
REMARK    7  A    between atoms: C_24  and  O_25
REMARK                            x       y       z     vdW  Elec       q    Type
REMARK                         _______ _______ _______ _____ _____    ______ ____
ROOT
ATOM      1  C   UNL     1       4.212   5.038  19.361  0.00  0.00    +0.000 A 
ATOM      2  C   UNL     1       3.620   3.887  19.857  0.00  0.00    +0.000 A 
ATOM      3  C   UNL     1       2.351   3.996  20.403  0.00  0.00    +0.000 A 
ATOM      4  C   UNL     1       1.729   5.243  20.436  0.00  0.00    +0.000 A 
ATOM      5  C   UNL     1       2.382   6.360  19.909  0.00  0.00    +0.000 A 
ATOM      6  N   UNL     1       3.606   6.254  19.331  0.00  0.00    +0.000 NA
ENDROOT
BRANCH   5   7
ATOM      7  C   UNL     1       1.811   7.725  19.945  0.00  0.00    +0.000 A 
ATOM      8  C   UNL     1       1.268   8.246  21.138  0.00  0.00    +0.000 A 
ATOM      9  C   UNL     1       0.728   9.538  21.197  0.00  0.00    +0.000 A 
ATOM     10  C   UNL     1       0.713  10.344  20.062  0.00  0.00    +0.000 A 
ATOM     11  C   UNL     1       1.228   9.847  18.873  0.00  0.00    +0.000 A 
ATOM     12  C   UNL     1       1.762   8.554  18.812  0.00  0.00    +0.000 A 
ATOM     13  F   UNL     1       2.216   8.111  17.628  0.00  0.00    +0.000 F 
BRANCH  11  14
ATOM     14  O   UNL     1       1.221  10.608  17.736  0.00  0.00    +0.000 OA
ATOM     15  H   UNL     1       0.314  10.901  17.554  0.00  0.00    +0.000 HD
ENDBRANCH  11  14
ENDBRANCH   5   7
BRANCH   1  17
ATOM     16  O   UNL     1       6.558   5.139  19.570  0.00  0.00    +0.000 OA
ATOM     17  C   UNL     1       5.596   4.953  18.824  0.00  0.00    +0.000 C 
BRANCH  17  18
ATOM     18  C   UNL     1       5.841   4.642  17.394  0.00  0.00    +0.000 A 
ATOM     19  C   UNL     1       5.078   3.618  16.802  0.00  0.00    +0.000 A 
ATOM     20  C   UNL     1       5.265   3.267  15.458  0.00  0.00    +0.000 A 
ATOM     21  C   UNL     1       6.215   3.948  14.708  0.00  0.00    +0.000 A 
ATOM     22  C   UNL     1       6.985   4.946  15.294  0.00  0.00    +0.000 A 
ATOM     23  C   UNL     1       6.824   5.281  16.635  0.00  0.00    +0.000 A 
BRANCH  21  24
ATOM     24  O   UNL     1       6.445   3.659  13.392  0.00  0.00    +0.000 OA
ATOM     25  H   UNL     1       5.807   4.160  12.855  0.00  0.00    +0.000 HD
ENDBRANCH  21  24
BRANCH  22  26
ATOM     26  O   UNL     1       7.936   5.607  14.560  0.00  0.00    +0.000 OA
ATOM     27  H   UNL     1       7.820   6.547  14.806  0.00  0.00    +0.000 HD
ENDBRANCH  22  26
BRANCH  23  28
ATOM     28  O   UNL     1       7.685   6.196  17.173  0.00  0.00    +0.000 OA
ATOM     29  H   UNL     1       7.782   6.888  16.488  0.00  0.00    +0.000 HD
ENDBRANCH  23  28
ENDBRANCH  17  18
ENDBRANCH   1  17
TORSDOF 7
ENDMDL
MODEL 2
REMARK VINA RESULT:      -8.4      2.996      4.115
REMARK  Name = 
REMARK  7 active torsions:
REMARK  status: ('A' for Active; 'I' for Inactive)
REMARK    1  A    between atoms: C_2  and  C_3
REMARK    2  A    between atoms: C_2  and  C_17
REMARK    3  A    between atoms: C_7  and  C_8
REMARK    4  A    between atoms: C_12  and  O_13
REMARK    5  A    between atoms: C_20  and  O_21
REMARK    6  A    between atoms: C_22  and  O_23
REMARK    7  A    between atoms: C_24  and  O_25
REMARK                            x       y       z     vdW  Elec       q    Type
REMARK                         _______ _______ _______ _____ _____    ______ ____
ROOT
ATOM      1  C   UNL     1       2.156   7.605  19.220  0.00  0.00    +0.000 A 
ATOM      2  C   UNL     1       1.967   7.097  20.497  0.00  0.00    +0.000 A 
ATOM      3  C   UNL     1       1.191   7.835  21.377  0.00  0.00    +0.000 A 
ATOM      4  C   UNL     1       0.642   9.043  20.953  0.00  0.00    +0.000 A 
ATOM      5  C   UNL     1       0.866   9.489  19.648  0.00  0.00    +0.000 A 
ATOM      6  N   UNL     1       1.587   8.752  18.766  0.00  0.00    +0.000 NA
ENDROOT
BRANCH   5   7
ATOM      7  C   UNL     1       0.358  10.780  19.134  0.00  0.00    +0.000 A 
ATOM      8  C   UNL     1       1.143  11.948  19.222  0.00  0.00    +0.000 A 
ATOM      9  C   UNL     1       0.685  13.181  18.735  0.00  0.00    +0.000 A 
ATOM     10  C   UNL     1      -0.575  13.279  18.151  0.00  0.00    +0.000 A 
ATOM     11  C   UNL     1      -1.372  12.145  18.068  0.00  0.00    +0.000 A 
ATOM     12  C   UNL     1      -0.916  10.916  18.558  0.00  0.00    +0.000 A 
ATOM     13  F   UNL     1      -1.742   9.859  18.483  0.00  0.00    +0.000 F 
BRANCH  11  14
ATOM     14  O   UNL     1      -2.619  12.207  17.508  0.00  0.00    +0.000 OA
ATOM     15  H   UNL     1      -2.996  11.314  17.471  0.00  0.00    +0.000 HD
ENDBRANCH  11  14
ENDBRANCH   5   7
BRANCH   1  17
ATOM     16  O   UNL     1       3.716   7.471  17.459  0.00  0.00    +0.000 OA
ATOM     17  C   UNL     1       3.033   6.859  18.280  0.00  0.00    +0.000 C 
BRANCH  17  18
ATOM     18  C   UNL     1       3.102   5.377  18.315  0.00  0.00    +0.000 A 
ATOM     19  C   UNL     1       2.001   4.653  17.820  0.00  0.00    +0.000 A 
ATOM     20  C   UNL     1       1.997   3.252  17.833  0.00  0.00    +0.000 A 
ATOM     21  C   UNL     1       3.101   2.577  18.338  0.00  0.00    +0.000 A 
ATOM     22  C   UNL     1       4.183   3.288  18.847  0.00  0.00    +0.000 A 
ATOM     23  C   UNL     1       4.181   4.679  18.862  0.00  0.00    +0.000 A 
BRANCH  21  24
ATOM     24  O   UNL     1       3.164   1.212  18.376  0.00  0.00    +0.000 OA
ATOM     25  H   UNL     1       4.037   0.958  18.722  0.00  0.00    +0.000 HD
ENDBRANCH  21  24
BRANCH  22  26
ATOM     26  O   UNL     1       5.265   2.624  19.363  0.00  0.00    +0.000 OA
ATOM     27  H   UNL     1       4.915   2.174  20.159  0.00  0.00    +0.000 HD
ENDBRANCH  22  26
BRANCH  23  28
ATOM     28  O   UNL     1       5.229   5.312  19.472  0.00  0.00    +0.000 OA
ATOM     29  H   UNL     1       4.949   5.430  20.402  0.00  0.00    +0.000 HD
ENDBRANCH  23  28
ENDBRANCH  17  18
ENDBRANCH   1  17
TORSDOF 7
ENDMDL
MODEL 3
REMARK VINA RESULT:      -8.4      0.888      1.265
REMARK  Name = 
REMARK  7 active torsions:
REMARK  status: ('A' for Active; 'I' for Inactive)
REMARK    1  A    between atoms: C_2  and  C_3
REMARK    2  A    between atoms: C_2  and  C_17
REMARK    3  A    between atoms: C_7  and  C_8
REMARK    4  A    between atoms: C_12  and  O_13
REMARK    5  A    between atoms: C_20  and  O_21
REMARK    6  A    between atoms: C_22  and  O_23
REMARK    7  A    between atoms: C_24  and  O_25
REMARK                            x       y       z     vdW  Elec       q    Type
REMARK                         _______ _______ _______ _____ _____    ______ ____
ROOT
ATOM      1  C   UNL     1       3.411   4.216  19.663  0.00  0.00    +0.000 A 
ATOM      2  C   UNL     1       2.560   3.288  20.244  0.00  0.00    +0.000 A 
ATOM      3  C   UNL     1       1.342   3.741  20.727  0.00  0.00    +0.000 A 
ATOM      4  C   UNL     1       1.026   5.094  20.613  0.00  0.00    +0.000 A 
ATOM      5  C   UNL     1       1.928   5.971  20.007  0.00  0.00    +0.000 A 
ATOM      6  N   UNL     1       3.103   5.528  19.492  0.00  0.00    +0.000 NA
ENDROOT
BRANCH   5   7
ATOM      7  C   UNL     1       1.689   7.426  19.888  0.00  0.00    +0.000 A 
ATOM      8  C   UNL     1       1.213   8.169  20.988  0.00  0.00    +0.000 A 
ATOM      9  C   UNL     1       0.985   9.549  20.901  0.00  0.00    +0.000 A 
ATOM     10  C   UNL     1       1.223  10.224  19.707  0.00  0.00    +0.000 A 
ATOM     11  C   UNL     1       1.677   9.511  18.605  0.00  0.00    +0.000 A 
ATOM     12  C   UNL     1       1.900   8.131  18.692  0.00  0.00    +0.000 A 
ATOM     13  F   UNL     1       2.306   7.485  17.586  0.00  0.00    +0.000 F 
BRANCH  11  14
ATOM     14  O   UNL     1       1.913  10.141  17.414  0.00  0.00    +0.000 OA
ATOM     15  H   UNL     1       2.828   9.970  17.140  0.00  0.00    +0.000 HD
ENDBRANCH  11  14
ENDBRANCH   5   7
BRANCH   1  17
ATOM     16  O   UNL     1       5.384   2.940  19.853  0.00  0.00    +0.000 OA
ATOM     17  C   UNL     1       4.746   3.761  19.193  0.00  0.00    +0.000 C 
BRANCH  17  18
ATOM     18  C   UNL     1       5.327   4.281  17.931  0.00  0.00    +0.000 A 
ATOM     19  C   UNL     1       4.884   3.719  16.719  0.00  0.00    +0.000 A 
ATOM     20  C   UNL     1       5.398   4.158  15.492  0.00  0.00    +0.000 A 
ATOM     21  C   UNL     1       6.354   5.165  15.481  0.00  0.00    +0.000 A 
ATOM     22  C   UNL     1       6.810   5.710  16.676  0.00  0.00    +0.000 A 
ATOM     23  C   UNL     1       6.324   5.260  17.900  0.00  0.00    +0.000 A 
BRANCH  21  24
ATOM     24  O   UNL     1       6.894   5.643  14.319  0.00  0.00    +0.000 OA
ATOM     25  H   UNL     1       6.185   5.700  13.656  0.00  0.00    +0.000 HD
ENDBRANCH  21  24
BRANCH  22  26
ATOM     26  O   UNL     1       7.767   6.691  16.668  0.00  0.00    +0.000 OA
ATOM     27  H   UNL     1       7.550   7.246  17.445  0.00  0.00    +0.000 HD
ENDBRANCH  22  26
BRANCH  23  28
ATOM     28  O   UNL     1       6.891   5.763  19.037  0.00  0.00    +0.000 OA
ATOM     29  H   UNL     1       6.834   5.039  19.693  0.00  0.00    +0.000 HD
ENDBRANCH  23  28
ENDBRANCH  17  18
ENDBRANCH   1  17
TORSDOF 7
ENDMDL
MODEL 4
REMARK VINA RESULT:      -8.4      1.206      1.547
REMARK  Name = 
REMARK  7 active torsions:
REMARK  status: ('A' for Active; 'I' for Inactive)
REMARK    1  A    between atoms: C_2  and  C_3
REMARK    2  A    between atoms: C_2  and  C_17
REMARK    3  A    between atoms: C_7  and  C_8
REMARK    4  A    between atoms: C_12  and  O_13
REMARK    5  A    between atoms: C_20  and  O_21
REMARK    6  A    between atoms: C_22  and  O_23
REMARK    7  A    between atoms: C_24  and  O_25
REMARK                            x       y       z     vdW  Elec       q    Type
REMARK                         _______ _______ _______ _____ _____    ______ ____
ROOT
ATOM      1  C   UNL     1       4.218   5.173  19.412  0.00  0.00    +0.000 A 
ATOM      2  C   UNL     1       3.624   4.140  20.120  0.00  0.00    +0.000 A 
ATOM      3  C   UNL     1       2.363   4.361  20.650  0.00  0.00    +0.000 A 
ATOM      4  C   UNL     1       1.751   5.599  20.457  0.00  0.00    +0.000 A 
ATOM      5  C   UNL     1       2.405   6.591  19.724  0.00  0.00    +0.000 A 
ATOM      6  N   UNL     1       3.621   6.367  19.163  0.00  0.00    +0.000 NA
ENDROOT
BRANCH   5   7
ATOM      7  C   UNL     1       1.845   7.944  19.511  0.00  0.00    +0.000 A 
ATOM      8  C   UNL     1       1.870   8.540  18.233  0.00  0.00    +0.000 A 
ATOM      9  C   UNL     1       1.340   9.818  18.007  0.00  0.00    +0.000 A 
ATOM     10  C   UNL     1       0.775  10.538  19.056  0.00  0.00    +0.000 A 
ATOM     11  C   UNL     1       0.754   9.979  20.326  0.00  0.00    +0.000 A 
ATOM     12  C   UNL     1       1.288   8.704  20.553  0.00  0.00    +0.000 A 
ATOM     13  F   UNL     1       1.272   8.225  21.808  0.00  0.00    +0.000 F 
BRANCH  11  14
ATOM     14  O   UNL     1       0.214  10.662  21.382  0.00  0.00    +0.000 OA
ATOM     15  H   UNL     1       0.485  11.592  21.331  0.00  0.00    +0.000 HD
ENDBRANCH  11  14
ENDBRANCH   5   7
BRANCH   1  17
ATOM     16  O   UNL     1       6.562   5.079  19.639  0.00  0.00    +0.000 OA
ATOM     17  C   UNL     1       5.595   4.976  18.885  0.00  0.00    +0.000 C 
BRANCH  17  18
ATOM     18  C   UNL     1       5.825   4.652  17.455  0.00  0.00    +0.000 A 
ATOM     19  C   UNL     1       5.041   3.638  16.874  0.00  0.00    +0.000 A 
ATOM     20  C   UNL     1       5.212   3.276  15.532  0.00  0.00    +0.000 A 
ATOM     21  C   UNL     1       6.168   3.936  14.771  0.00  0.00    +0.000 A 
ATOM     22  C   UNL     1       6.959   4.926  15.345  0.00  0.00    +0.000 A 
ATOM     23  C   UNL     1       6.812   5.271  16.685  0.00  0.00    +0.000 A 
BRANCH  21  24
ATOM     24  O   UNL     1       6.384   3.637  13.455  0.00  0.00    +0.000 OA
ATOM     25  H   UNL     1       6.319   2.672  13.347  0.00  0.00    +0.000 HD
ENDBRANCH  21  24
BRANCH  22  26
ATOM     26  O   UNL     1       7.915   5.566  14.601  0.00  0.00    +0.000 OA
ATOM     27  H   UNL     1       7.700   6.517  14.698  0.00  0.00    +0.000 HD
ENDBRANCH  22  26
BRANCH  23  28
ATOM     28  O   UNL     1       7.692   6.175  17.212  0.00  0.00    +0.000 OA
ATOM     29  H   UNL     1       7.312   6.425  18.078  0.00  0.00    +0.000 HD
ENDBRANCH  23  28
ENDBRANCH  17  18
ENDBRANCH   1  17
TORSDOF 7
ENDMDL
MODEL 5
REMARK VINA RESULT:      -8.3      1.400      1.928
REMARK  Name = 
REMARK  7 active torsions:
REMARK  status: ('A' for Active; 'I' for Inactive)
REMARK    1  A    between atoms: C_2  and  C_3
REMARK    2  A    between atoms: C_2  and  C_17
REMARK    3  A    between atoms: C_7  and  C_8
REMARK    4  A    between atoms: C_12  and  O_13
REMARK    5  A    between atoms: C_20  and  O_21
REMARK    6  A    between atoms: C_22  and  O_23
REMARK    7  A    between atoms: C_24  and  O_25
REMARK                            x       y       z     vdW  Elec       q    Type
REMARK                         _______ _______ _______ _____ _____    ______ ____
ROOT
ATOM      1  C   UNL     1       3.498   4.324  19.606  0.00  0.00    +0.000 A 
ATOM      2  C   UNL     1       2.696   3.535  20.417  0.00  0.00    +0.000 A 
ATOM      3  C   UNL     1       1.543   4.103  20.935  0.00  0.00    +0.000 A 
ATOM      4  C   UNL     1       1.239   5.428  20.627  0.00  0.00    +0.000 A 
ATOM      5  C   UNL     1       2.088   6.162  19.795  0.00  0.00    +0.000 A 
ATOM      6  N   UNL     1       3.196   5.599  19.248  0.00  0.00    +0.000 NA
ENDROOT
BRANCH   5   7
ATOM      7  C   UNL     1       1.863   7.584  19.458  0.00  0.00    +0.000 A 
ATOM      8  C   UNL     1       2.144   8.069  18.163  0.00  0.00    +0.000 A 
ATOM      9  C   UNL     1       1.932   9.411  17.819  0.00  0.00    +0.000 A 
ATOM     10  C   UNL     1       1.439  10.308  18.763  0.00  0.00    +0.000 A 
ATOM     11  C   UNL     1       1.171   9.857  20.048  0.00  0.00    +0.000 A 
ATOM     12  C   UNL     1       1.387   8.517  20.393  0.00  0.00    +0.000 A 
ATOM     13  F   UNL     1       1.143   8.142  21.660  0.00  0.00    +0.000 F 
BRANCH  11  14
ATOM     14  O   UNL     1       0.693  10.712  21.003  0.00  0.00    +0.000 OA
ATOM     15  H   UNL     1       1.050  11.600  20.842  0.00  0.00    +0.000 HD
ENDBRANCH  11  14
ENDBRANCH   5   7
BRANCH   1  17
ATOM     16  O   UNL     1       5.323   2.836  19.696  0.00  0.00    +0.000 OA
ATOM     17  C   UNL     1       4.769   3.752  19.089  0.00  0.00    +0.000 C 
BRANCH  17  18
ATOM     18  C   UNL     1       5.385   4.269  17.841  0.00  0.00    +0.000 A 
ATOM     19  C   UNL     1       5.009   3.670  16.623  0.00  0.00    +0.000 A 
ATOM     20  C   UNL     1       5.559   4.104  15.410  0.00  0.00    +0.000 A 
ATOM     21  C   UNL     1       6.483   5.141  15.419  0.00  0.00    +0.000 A 
ATOM     22  C   UNL     1       6.872   5.722  16.621  0.00  0.00    +0.000 A 
ATOM     23  C   UNL     1       6.350   5.278  17.832  0.00  0.00    +0.000 A 
BRANCH  21  24
ATOM     24  O   UNL     1       7.054   5.616  14.271  0.00  0.00    +0.000 OA
ATOM     25  H   UNL     1       6.713   5.096  13.523  0.00  0.00    +0.000 HD
ENDBRANCH  21  24
BRANCH  22  26
ATOM     26  O   UNL     1       7.796   6.734  16.633  0.00  0.00    +0.000 OA
ATOM     27  H   UNL     1       8.420   6.482  17.344  0.00  0.00    +0.000 HD
ENDBRANCH  22  26
BRANCH  23  28
ATOM     28  O   UNL     1       6.853   5.821  18.981  0.00  0.00    +0.000 OA
ATOM     29  H   UNL     1       7.763   6.100  18.754  0.00  0.00    +0.000 HD
ENDBRANCH  23  28
ENDBRANCH  17  18
ENDBRANCH   1  17
TORSDOF 7
ENDMDL
MODEL 6
REMARK VINA RESULT:      -8.2      1.355      2.186
REMARK  Name = 
REMARK  7 active torsions:
REMARK  status: ('A' for Active; 'I' for Inactive)
REMARK    1  A    between atoms: C_2  and  C_3
REMARK    2  A    between atoms: C_2  and  C_17
REMARK    3  A    between atoms: C_7  and  C_8
REMARK    4  A    between atoms: C_12  and  O_13
REMARK    5  A    between atoms: C_20  and  O_21
REMARK    6  A    between atoms: C_22  and  O_23
REMARK    7  A    between atoms: C_24  and  O_25
REMARK                            x       y       z     vdW  Elec       q    Type
REMARK                         _______ _______ _______ _____ _____    ______ ____
ROOT
ATOM      1  C   UNL     1       3.460   4.160  19.840  0.00  0.00    +0.000 A 
ATOM      2  C   UNL     1       2.616   3.212  20.397  0.00  0.00    +0.000 A 
ATOM      3  C   UNL     1       1.371   3.632  20.838  0.00  0.00    +0.000 A 
ATOM      4  C   UNL     1       1.022   4.976  20.708  0.00  0.00    +0.000 A 
ATOM      5  C   UNL     1       1.919   5.875  20.128  0.00  0.00    +0.000 A 
ATOM      6  N   UNL     1       3.122   5.463  19.653  0.00  0.00    +0.000 NA
ENDROOT
BRANCH   5   7
ATOM      7  C   UNL     1       1.644   7.323  19.995  0.00  0.00    +0.000 A 
ATOM      8  C   UNL     1       1.140   8.062  21.086  0.00  0.00    +0.000 A 
ATOM      9  C   UNL     1       0.879   9.435  20.985  0.00  0.00    +0.000 A 
ATOM     10  C   UNL     1       1.109  10.107  19.788  0.00  0.00    +0.000 A 
ATOM     11  C   UNL     1       1.590   9.397  18.696  0.00  0.00    +0.000 A 
ATOM     12  C   UNL     1       1.846   8.024  18.795  0.00  0.00    +0.000 A 
ATOM     13  F   UNL     1       2.277   7.379  17.698  0.00  0.00    +0.000 F 
BRANCH  11  14
ATOM     14  O   UNL     1       1.819  10.023  17.501  0.00  0.00    +0.000 OA
ATOM     15  H   UNL     1       0.975  10.151  17.041  0.00  0.00    +0.000 HD
ENDBRANCH  11  14
ENDBRANCH   5   7
BRANCH   1  17
ATOM     16  O   UNL     1       5.243   2.624  19.716  0.00  0.00    +0.000 OA
ATOM     17  C   UNL     1       4.822   3.741  19.415  0.00  0.00    +0.000 C 
BRANCH  17  18
ATOM     18  C   UNL     1       5.687   4.651  18.626  0.00  0.00    +0.000 A 
ATOM     19  C   UNL     1       6.672   5.387  19.313  0.00  0.00    +0.000 A 
ATOM     20  C   UNL     1       7.517   6.271  18.630  0.00  0.00    +0.000 A 
ATOM     21  C   UNL     1       7.377   6.413  17.255  0.00  0.00    +0.000 A 
ATOM     22  C   UNL     1       6.393   5.704  16.575  0.00  0.00    +0.000 A 
ATOM     23  C   UNL     1       5.533   4.845  17.251  0.00  0.00    +0.000 A 
BRANCH  21  24
ATOM     24  O   UNL     1       8.171   7.255  16.527  0.00  0.00    +0.000 OA
ATOM     25  H   UNL     1       9.090   7.140  16.824  0.00  0.00    +0.000 HD
ENDBRANCH  21  24
BRANCH  22  26
ATOM     26  O   UNL     1       6.242   5.857  15.221  0.00  0.00    +0.000 OA
ATOM     27  H   UNL     1       5.589   5.171  14.972  0.00  0.00    +0.000 HD
ENDBRANCH  22  26
BRANCH  23  28
ATOM     28  O   UNL     1       4.522   4.261  16.539  0.00  0.00    +0.000 OA
ATOM     29  H   UNL     1       4.930   3.993  15.691  0.00  0.00    +0.000 HD
ENDBRANCH  23  28
ENDBRANCH  17  18
ENDBRANCH   1  17
TORSDOF 7
ENDMDL
MODEL 7
REMARK VINA RESULT:      -8.1      3.169      7.387
REMARK  Name = 
REMARK  7 active torsions:
REMARK  status: ('A' for Active; 'I' for Inactive)
REMARK    1  A    between atoms: C_2  and  C_3
REMARK    2  A    between atoms: C_2  and  C_17
REMARK    3  A    between atoms: C_7  and  C_8
REMARK    4  A    between atoms: C_12  and  O_13
REMARK    5  A    between atoms: C_20  and  O_21
REMARK    6  A    between atoms: C_22  and  O_23
REMARK    7  A    between atoms: C_24  and  O_25
REMARK                            x       y       z     vdW  Elec       q    Type
REMARK                         _______ _______ _______ _____ _____    ______ ____
ROOT
ATOM      1  C   UNL     1       5.227   5.796  17.584  0.00  0.00    +0.000 A 
ATOM      2  C   UNL     1       6.174   5.632  18.583  0.00  0.00    +0.000 A 
ATOM      3  C   UNL     1       7.432   5.183  18.214  0.00  0.00    +0.000 A 
ATOM      4  C   UNL     1       7.692   4.914  16.871  0.00  0.00    +0.000 A 
ATOM      5  C   UNL     1       6.692   5.111  15.916  0.00  0.00    +0.000 A 
ATOM      6  N   UNL     1       5.472   5.593  16.263  0.00  0.00    +0.000 NA
ENDROOT
BRANCH   5   7
ATOM      7  C   UNL     1       6.872   4.807  14.479  0.00  0.00    +0.000 A 
ATOM      8  C   UNL     1       7.717   5.600  13.676  0.00  0.00    +0.000 A 
ATOM      9  C   UNL     1       7.907   5.327  12.314  0.00  0.00    +0.000 A 
ATOM     10  C   UNL     1       7.252   4.254  11.716  0.00  0.00    +0.000 A 
ATOM     11  C   UNL     1       6.402   3.469  12.484  0.00  0.00    +0.000 A 
ATOM     12  C   UNL     1       6.208   3.745  13.843  0.00  0.00    +0.000 A 
ATOM     13  F   UNL     1       5.349   2.974  14.529  0.00  0.00    +0.000 F 
BRANCH  11  14
ATOM     14  O   UNL     1       5.735   2.411  11.927  0.00  0.00    +0.000 OA
ATOM     15  H   UNL     1       4.875   2.715  11.598  0.00  0.00    +0.000 HD
ENDBRANCH  11  14
ENDBRANCH   5   7
BRANCH   1  17
ATOM     16  O   UNL     1       3.464   7.357  17.697  0.00  0.00    +0.000 OA
ATOM     17  C   UNL     1       3.854   6.220  17.966  0.00  0.00    +0.000 C 
BRANCH  17  18
ATOM     18  C   UNL     1       2.937   5.290  18.670  0.00  0.00    +0.000 A 
ATOM     19  C   UNL     1       2.516   5.634  19.968  0.00  0.00    +0.000 A 
ATOM     20  C   UNL     1       1.658   4.796  20.692  0.00  0.00    +0.000 A 
ATOM     21  C   UNL     1       1.219   3.614  20.110  0.00  0.00    +0.000 A 
ATOM     22  C   UNL     1       1.648   3.259  18.836  0.00  0.00    +0.000 A 
ATOM     23  C   UNL     1       2.521   4.074  18.122  0.00  0.00    +0.000 A 
BRANCH  21  24
ATOM     24  O   UNL     1       0.378   2.753  20.759  0.00  0.00    +0.000 OA
ATOM     25  H   UNL     1       0.275   1.957  20.210  0.00  0.00    +0.000 HD
ENDBRANCH  21  24
BRANCH  22  26
ATOM     26  O   UNL     1       1.230   2.084  18.267  0.00  0.00    +0.000 OA
ATOM     27  H   UNL     1       1.372   1.414  18.967  0.00  0.00    +0.000 HD
ENDBRANCH  22  26
BRANCH  23  28
ATOM     28  O   UNL     1       2.985   3.615  16.921  0.00  0.00    +0.000 OA
ATOM     29  H   UNL     1       2.943   2.640  16.987  0.00  0.00    +0.000 HD
ENDBRANCH  23  28
ENDBRANCH  17  18
ENDBRANCH   1  17
TORSDOF 7
ENDMDL
MODEL 8
REMARK VINA RESULT:      -8.1      1.571      2.211
REMARK  Name = 
REMARK  7 active torsions:
REMARK  status: ('A' for Active; 'I' for Inactive)
REMARK    1  A    between atoms: C_2  and  C_3
REMARK    2  A    between atoms: C_2  and  C_17
REMARK    3  A    between atoms: C_7  and  C_8
REMARK    4  A    between atoms: C_12  and  O_13
REMARK    5  A    between atoms: C_20  and  O_21
REMARK    6  A    between atoms: C_22  and  O_23
REMARK    7  A    between atoms: C_24  and  O_25
REMARK                            x       y       z     vdW  Elec       q    Type
REMARK                         _______ _______ _______ _____ _____    ______ ____
ROOT
ATOM      1  C   UNL     1       3.500   4.251  19.797  0.00  0.00    +0.000 A 
ATOM      2  C   UNL     1       2.668   3.277  20.327  0.00  0.00    +0.000 A 
ATOM      3  C   UNL     1       1.412   3.667  20.765  0.00  0.00    +0.000 A 
ATOM      4  C   UNL     1       1.040   5.006  20.659  0.00  0.00    +0.000 A 
ATOM      5  C   UNL     1       1.926   5.932  20.105  0.00  0.00    +0.000 A 
ATOM      6  N   UNL     1       3.140   5.551  19.633  0.00  0.00    +0.000 NA
ENDROOT
BRANCH   5   7
ATOM      7  C   UNL     1       1.627   7.377  19.998  0.00  0.00    +0.000 A 
ATOM      8  C   UNL     1       1.134   8.093  21.109  0.00  0.00    +0.000 A 
ATOM      9  C   UNL     1       0.850   9.464  21.033  0.00  0.00    +0.000 A 
ATOM     10  C   UNL     1       1.046  10.156  19.841  0.00  0.00    +0.000 A 
ATOM     11  C   UNL     1       1.516   9.468  18.730  0.00  0.00    +0.000 A 
ATOM     12  C   UNL     1       1.795   8.098  18.804  0.00  0.00    +0.000 A 
ATOM     13  F   UNL     1       2.214   7.476  17.690  0.00  0.00    +0.000 F 
BRANCH  11  14
ATOM     14  O   UNL     1       1.712  10.115  17.540  0.00  0.00    +0.000 OA
ATOM     15  H   UNL     1       1.078   9.780  16.887  0.00  0.00    +0.000 HD
ENDBRANCH  11  14
ENDBRANCH   5   7
BRANCH   1  17
ATOM     16  O   UNL     1       5.307   2.745  19.651  0.00  0.00    +0.000 OA
ATOM     17  C   UNL     1       4.872   3.864  19.377  0.00  0.00    +0.000 C 
BRANCH  17  18
ATOM     18  C   UNL     1       5.734   4.809  18.625  0.00  0.00    +0.000 A 
ATOM     19  C   UNL     1       5.446   5.024  17.263  0.00  0.00    +0.000 A 
ATOM     20  C   UNL     1       6.225   5.897  16.492  0.00  0.00    +0.000 A 
ATOM     21  C   UNL     1       7.291   6.558  17.090  0.00  0.00    +0.000 A 
ATOM     22  C   UNL     1       7.591   6.334  18.429  0.00  0.00    +0.000 A 
ATOM     23  C   UNL     1       6.838   5.448  19.193  0.00  0.00    +0.000 A 
BRANCH  21  24
ATOM     24  O   UNL     1       8.088   7.426  16.397  0.00  0.00    +0.000 OA
ATOM     25  H   UNL     1       9.016   7.192  16.571  0.00  0.00    +0.000 HD
ENDBRANCH  21  24
BRANCH  22  26
ATOM     26  O   UNL     1       8.653   6.972  19.015  0.00  0.00    +0.000 OA
ATOM     27  H   UNL     1       8.266   7.418  19.796  0.00  0.00    +0.000 HD
ENDBRANCH  22  26
BRANCH  23  28
ATOM     28  O   UNL     1       7.252   5.195  20.471  0.00  0.00    +0.000 OA
ATOM     29  H   UNL     1       6.438   5.218  21.013  0.00  0.00    +0.000 HD
ENDBRANCH  23  28
ENDBRANCH  17  18
ENDBRANCH   1  17
TORSDOF 7
ENDMDL
MODEL 9
REMARK VINA RESULT:      -8.0      1.706      2.342
REMARK  Name = 
REMARK  7 active torsions:
REMARK  status: ('A' for Active; 'I' for Inactive)
REMARK    1  A    between atoms: C_2  and  C_3
REMARK    2  A    between atoms: C_2  and  C_17
REMARK    3  A    between atoms: C_7  and  C_8
REMARK    4  A    between atoms: C_12  and  O_13
REMARK    5  A    between atoms: C_20  and  O_21
REMARK    6  A    between atoms: C_22  and  O_23
REMARK    7  A    between atoms: C_24  and  O_25
REMARK                            x       y       z     vdW  Elec       q    Type
REMARK                         _______ _______ _______ _____ _____    ______ ____
ROOT
ATOM      1  C   UNL     1       2.891   4.103  18.898  0.00  0.00    +0.000 A 
ATOM      2  C   UNL     1       2.657   3.469  20.108  0.00  0.00    +0.000 A 
ATOM      3  C   UNL     1       2.113   4.221  21.138  0.00  0.00    +0.000 A 
ATOM      4  C   UNL     1       1.829   5.569  20.919  0.00  0.00    +0.000 A 
ATOM      5  C   UNL     1       2.082   6.139  19.670  0.00  0.00    +0.000 A 
ATOM      6  N   UNL     1       2.573   5.399  18.643  0.00  0.00    +0.000 NA
ENDROOT
BRANCH   5   7
ATOM      7  C   UNL     1       1.852   7.570  19.370  0.00  0.00    +0.000 A 
ATOM      8  C   UNL     1       2.193   8.104  18.110  0.00  0.00    +0.000 A 
ATOM      9  C   UNL     1       1.979   9.454  17.802  0.00  0.00    +0.000 A 
ATOM     10  C   UNL     1       1.422  10.310  18.748  0.00  0.00    +0.000 A 
ATOM     11  C   UNL     1       1.093   9.810  20.001  0.00  0.00    +0.000 A 
ATOM     12  C   UNL     1       1.311   8.462  20.311  0.00  0.00    +0.000 A 
ATOM     13  F   UNL     1       1.007   8.039  21.549  0.00  0.00    +0.000 F 
BRANCH  11  14
ATOM     14  O   UNL     1       0.551  10.624  20.958  0.00  0.00    +0.000 OA
ATOM     15  H   UNL     1      -0.030  11.274  20.532  0.00  0.00    +0.000 HD
ENDBRANCH  11  14
ENDBRANCH   5   7
BRANCH   1  17
ATOM     16  O   UNL     1       3.105   2.210  17.510  0.00  0.00    +0.000 OA
ATOM     17  C   UNL     1       3.529   3.329  17.800  0.00  0.00    +0.000 C 
BRANCH  17  18
ATOM     18  C   UNL     1       4.674   3.887  17.040  0.00  0.00    +0.000 A 
ATOM     19  C   UNL     1       4.519   4.070  15.653  0.00  0.00    +0.000 A 
ATOM     20  C   UNL     1       5.564   4.584  14.873  0.00  0.00    +0.000 A 
ATOM     21  C   UNL     1       6.764   4.919  15.488  0.00  0.00    +0.000 A 
ATOM     22  C   UNL     1       6.929   4.720  16.855  0.00  0.00    +0.000 A 
ATOM     23  C   UNL     1       5.905   4.185  17.629  0.00  0.00    +0.000 A 
BRANCH  21  24
ATOM     24  O   UNL     1       7.822   5.429  14.789  0.00  0.00    +0.000 OA
ATOM     25  H   UNL     1       8.552   5.585  15.412  0.00  0.00    +0.000 HD
ENDBRANCH  21  24
BRANCH  22  26
ATOM     26  O   UNL     1       8.119   5.033  17.460  0.00  0.00    +0.000 OA
ATOM     27  H   UNL     1       8.350   4.227  17.967  0.00  0.00    +0.000 HD
ENDBRANCH  22  26
BRANCH  23  28
ATOM     28  O   UNL     1       6.170   3.918  18.944  0.00  0.00    +0.000 OA
ATOM     29  H   UNL     1       5.800   4.677  19.438  0.00  0.00    +0.000 HD
ENDBRANCH  23  28
ENDBRANCH  17  18
ENDBRANCH   1  17
TORSDOF 7
ENDMDL
