MODEL 1
REMARK VINA RESULT:      -6.4      0.000      0.000
REMARK  Name = 
REMARK  12 active torsions:
REMARK  status: ('A' for Active; 'I' for Inactive)
REMARK    1  A    between atoms: C_1  and  O_2
REMARK    2  A    between atoms: O_2  and  C_3
REMARK    3  A    between atoms: C_8  and  C_9
REMARK    4  A    between atoms: C_15  and  C_16
REMARK    5  A    between atoms: C_16  and  C_17
REMARK    6  A    between atoms: C_16  and  O_18
REMARK    7  A    between atoms: O_18  and  C_19
REMARK    8  A    between atoms: C_19  and  C_20
REMARK    9  A    between atoms: C_21  and  C_22
REMARK   10  A    between atoms: C_21  and  C_23
REMARK   11  A    between atoms: C_25  and  C_26
REMARK   12  A    between atoms: C_25  and  C_27
REMARK                            x       y       z     vdW  Elec       q    Type
REMARK                         _______ _______ _______ _____ _____    ______ ____
ROOT
ATOM      1  C   UNL     1       6.012   4.422  17.905  0.00  0.00    +0.000 A 
ATOM      2  C   UNL     1       5.303   3.629  16.951  0.00  0.00    +0.000 A 
ATOM      3  C   UNL     1       4.124   2.703  17.317  0.00  0.00    +0.000 A 
ATOM      4  C   UNL     1       3.557   2.700  18.632  0.00  0.00    +0.000 A 
ATOM      5  C   UNL     1       4.434   3.424  19.443  0.00  0.00    +0.000 A 
ATOM      6  C   UNL     1       5.743   3.940  19.180  0.00  0.00    +0.000 A 
ATOM      7  C   UNL     1       3.680   4.552  19.954  0.00  0.00    +0.000 C 
ATOM      8  C   UNL     1       2.905   4.158  20.968  0.00  0.00    +0.000 C 
ATOM      9  C   UNL     1       1.638   3.504  20.479  0.00  0.00    +0.000 C 
ATOM     10  C   UNL     1       1.048   2.524  21.516  0.00  0.00    +0.000 C 
ATOM     11  C   UNL     1       0.599   4.723  20.581  0.00  0.00    +0.000 C 
ATOM     12  N   UNL     1       2.081   2.791  19.055  0.00  0.00    +0.000 N 
ATOM     13  H   UNL     1       1.505   2.023  18.724  0.00  0.00    +0.000 HD
ENDROOT
BRANCH   1  19
ATOM     14  C   UNL     1       6.229   7.038  17.057  0.00  0.00    +0.000 A 
ATOM     15  C   UNL     1       6.905   8.308  17.141  0.00  0.00    +0.000 A 
ATOM     16  C   UNL     1       7.965   8.539  17.982  0.00  0.00    +0.000 A 
ATOM     17  C   UNL     1       8.444   7.482  18.729  0.00  0.00    +0.000 A 
ATOM     18  C   UNL     1       7.804   6.223  18.632  0.00  0.00    +0.000 A 
ATOM     19  C   UNL     1       6.680   5.890  17.781  0.00  0.00    +0.000 A 
BRANCH  14  21
ATOM     20  C   UNL     1       5.234   6.391  14.997  0.00  0.00    +0.000 C 
ATOM     21  O   UNL     1       5.074   6.916  16.317  0.00  0.00    +0.000 OA
ENDBRANCH  14  21
ENDBRANCH   1  19
BRANCH   7  22
ATOM     22  C   UNL     1       3.237   5.415  18.741  0.00  0.00    +0.000 C 
ATOM     23  C   UNL     1       1.955   5.407  17.762  0.00  0.00    +0.000 C 
BRANCH  22  24
ATOM     24  O   UNL     1       3.419   6.707  19.243  0.00  0.00    +0.000 OA
BRANCH  24  25
ATOM     25  C   UNL     1       2.428   7.492  18.689  0.00  0.00    +0.000 C 
BRANCH  25  26
ATOM     26  C   UNL     1       1.807   8.172  19.769  0.00  0.00    +0.000 C 
ATOM     27  C   UNL     1       1.078   9.264  19.550  0.00  0.00    +0.000 C 
ATOM     28  C   UNL     1       0.828   9.685  18.128  0.00  0.00    +0.000 C 
ATOM     29  C   UNL     1       0.559  10.073  20.660  0.00  0.00    +0.000 C 
ENDBRANCH  25  26
ENDBRANCH  24  25
ENDBRANCH  22  24
ENDBRANCH   7  22
TORSDOF 6
ENDMDL
MODEL 2
REMARK VINA RESULT:      -6.2      7.280     11.192
REMARK  Name = 
REMARK  12 active torsions:
REMARK  status: ('A' for Active; 'I' for Inactive)
REMARK    1  A    between atoms: C_1  and  O_2
REMARK    2  A    between atoms: O_2  and  C_3
REMARK    3  A    between atoms: C_8  and  C_9
REMARK    4  A    between atoms: C_15  and  C_16
REMARK    5  A    between atoms: C_16  and  C_17
REMARK    6  A    between atoms: C_16  and  O_18
REMARK    7  A    between atoms: O_18  and  C_19
REMARK    8  A    between atoms: C_19  and  C_20
REMARK    9  A    between atoms: C_21  and  C_22
REMARK   10  A    between atoms: C_21  and  C_23
REMARK   11  A    between atoms: C_25  and  C_26
REMARK   12  A    between atoms: C_25  and  C_27
REMARK                            x       y       z     vdW  Elec       q    Type
REMARK                         _______ _______ _______ _____ _____    ______ ____
ROOT
ATOM      1  C   UNL     1      -1.852  12.466  22.391  0.00  0.00    +0.000 A 
ATOM      2  C   UNL     1      -2.713  11.891  23.375  0.00  0.00    +0.000 A 
ATOM      3  C   UNL     1      -3.946  12.614  23.959  0.00  0.00    +0.000 A 
ATOM      4  C   UNL     1      -4.401  13.863  23.427  0.00  0.00    +0.000 A 
ATOM      5  C   UNL     1      -3.392  14.322  22.578  0.00  0.00    +0.000 A 
ATOM      6  C   UNL     1      -2.063  13.839  22.354  0.00  0.00    +0.000 A 
ATOM      7  C   UNL     1      -3.984  14.423  21.258  0.00  0.00    +0.000 C 
ATOM      8  C   UNL     1      -4.709  15.541  21.169  0.00  0.00    +0.000 C 
ATOM      9  C   UNL     1      -6.071  15.371  21.792  0.00  0.00    +0.000 C 
ATOM     10  C   UNL     1      -6.670  16.715  22.261  0.00  0.00    +0.000 C 
ATOM     11  C   UNL     1      -6.970  15.069  20.497  0.00  0.00    +0.000 C 
ATOM     12  N   UNL     1      -5.820  14.283  23.011  0.00  0.00    +0.000 N 
ATOM     13  H   UNL     1      -6.497  14.274  23.768  0.00  0.00    +0.000 HD
ENDROOT
BRANCH   1  19
ATOM     14  C   UNL     1      -0.562  10.460  21.006  0.00  0.00    +0.000 A 
ATOM     15  C   UNL     1       0.047  10.002  19.782  0.00  0.00    +0.000 A 
ATOM     16  C   UNL     1       0.121  10.772  18.648  0.00  0.00    +0.000 A 
ATOM     17  C   UNL     1      -0.351  12.068  18.711  0.00  0.00    +0.000 A 
ATOM     18  C   UNL     1      -0.925  12.535  19.918  0.00  0.00    +0.000 A 
ATOM     19  C   UNL     1      -1.052  11.795  21.156  0.00  0.00    +0.000 A 
BRANCH  14  21
ATOM     20  C   UNL     1       0.322   9.508  22.997  0.00  0.00    +0.000 C 
ATOM     21  O   UNL     1      -0.750   9.586  22.053  0.00  0.00    +0.000 OA
ENDBRANCH  14  21
ENDBRANCH   1  19
BRANCH   7  22
ATOM     22  C   UNL     1      -4.435  12.998  20.831  0.00  0.00    +0.000 C 
ATOM     23  C   UNL     1      -5.803  12.158  20.984  0.00  0.00    +0.000 C 
BRANCH  22  24
ATOM     24  O   UNL     1      -4.031  12.973  19.493  0.00  0.00    +0.000 OA
BRANCH  24  25
ATOM     25  C   UNL     1      -4.469  11.774  18.969  0.00  0.00    +0.000 C 
BRANCH  25  26
ATOM     26  C   UNL     1      -4.138  11.797  17.589  0.00  0.00    +0.000 C 
ATOM     27  C   UNL     1      -3.491  10.775  17.032  0.00  0.00    +0.000 C 
ATOM     28  C   UNL     1      -3.234   9.551  17.866  0.00  0.00    +0.000 C 
ATOM     29  C   UNL     1      -3.000  10.842  15.650  0.00  0.00    +0.000 C 
ENDBRANCH  25  26
ENDBRANCH  24  25
ENDBRANCH  22  24
ENDBRANCH   7  22
TORSDOF 6
ENDMDL
MODEL 3
REMARK VINA RESULT:      -6.1      8.182     11.755
REMARK  Name = 
REMARK  12 active torsions:
REMARK  status: ('A' for Active; 'I' for Inactive)
REMARK    1  A    between atoms: C_1  and  O_2
REMARK    2  A    between atoms: O_2  and  C_3
REMARK    3  A    between atoms: C_8  and  C_9
REMARK    4  A    between atoms: C_15  and  C_16
REMARK    5  A    between atoms: C_16  and  C_17
REMARK    6  A    between atoms: C_16  and  O_18
REMARK    7  A    between atoms: O_18  and  C_19
REMARK    8  A    between atoms: C_19  and  C_20
REMARK    9  A    between atoms: C_21  and  C_22
REMARK   10  A    between atoms: C_21  and  C_23
REMARK   11  A    between atoms: C_25  and  C_26
REMARK   12  A    between atoms: C_25  and  C_27
REMARK                            x       y       z     vdW  Elec       q    Type
REMARK                         _______ _______ _______ _____ _____    ______ ____
ROOT
ATOM      1  C   UNL     1      -0.429  12.725  20.263  0.00  0.00    +0.000 A 
ATOM      2  C   UNL     1       0.982  12.609  20.454  0.00  0.00    +0.000 A 
ATOM      3  C   UNL     1       2.021  13.454  19.687  0.00  0.00    +0.000 A 
ATOM      4  C   UNL     1       1.622  14.537  18.838  0.00  0.00    +0.000 A 
ATOM      5  C   UNL     1       0.239  14.425  18.678  0.00  0.00    +0.000 A 
ATOM      6  C   UNL     1      -0.668  13.390  19.066  0.00  0.00    +0.000 A 
ATOM      7  C   UNL     1      -0.332  15.647  19.210  0.00  0.00    +0.000 C 
ATOM      8  C   UNL     1      -0.205  16.634  18.319  0.00  0.00    +0.000 C 
ATOM      9  C   UNL     1       1.175  17.239  18.352  0.00  0.00    +0.000 C 
ATOM     10  C   UNL     1       1.557  17.896  17.008  0.00  0.00    +0.000 C 
ATOM     11  C   UNL     1       0.927  18.533  19.268  0.00  0.00    +0.000 C 
ATOM     12  N   UNL     1       2.153  15.979  18.786  0.00  0.00    +0.000 N 
ATOM     13  H   UNL     1       3.137  16.053  18.545  0.00  0.00    +0.000 HD
ENDROOT
BRANCH   1  19
ATOM     14  C   UNL     1      -1.681  12.016  22.616  0.00  0.00    +0.000 A 
ATOM     15  C   UNL     1      -2.853  12.070  23.453  0.00  0.00    +0.000 A 
ATOM     16  C   UNL     1      -3.995  12.745  23.101  0.00  0.00    +0.000 A 
ATOM     17  C   UNL     1      -4.040  13.341  21.856  0.00  0.00    +0.000 A 
ATOM     18  C   UNL     1      -2.903  13.269  21.016  0.00  0.00    +0.000 A 
ATOM     19  C   UNL     1      -1.658  12.588  21.306  0.00  0.00    +0.000 A 
BRANCH  14  21
ATOM     20  C   UNL     1      -0.473  10.033  23.126  0.00  0.00    +0.000 C 
ATOM     21  O   UNL     1      -0.515  11.462  23.095  0.00  0.00    +0.000 OA
ENDBRANCH  14  21
ENDBRANCH   1  19
BRANCH   7  22
ATOM     22  C   UNL     1       0.028  15.720  20.720  0.00  0.00    +0.000 C 
ATOM     23  C   UNL     1       1.253  16.353  21.555  0.00  0.00    +0.000 C 
BRANCH  22  24
ATOM     24  O   UNL     1      -1.178  16.170  21.266  0.00  0.00    +0.000 OA
BRANCH  24  25
ATOM     25  C   UNL     1      -1.064  16.044  22.636  0.00  0.00    +0.000 C 
BRANCH  25  26
ATOM     26  C   UNL     1      -2.326  16.402  23.176  0.00  0.00    +0.000 C 
ATOM     27  C   UNL     1      -2.698  15.961  24.376  0.00  0.00    +0.000 C 
ATOM     28  C   UNL     1      -1.704  15.182  25.192  0.00  0.00    +0.000 C 
ATOM     29  C   UNL     1      -4.056  16.186  24.888  0.00  0.00    +0.000 C 
ENDBRANCH  25  26
ENDBRANCH  24  25
ENDBRANCH  22  24
ENDBRANCH   7  22
TORSDOF 6
ENDMDL
MODEL 4
REMARK VINA RESULT:      -6.1      7.961     13.152
REMARK  Name = 
REMARK  12 active torsions:
REMARK  status: ('A' for Active; 'I' for Inactive)
REMARK    1  A    between atoms: C_1  and  O_2
REMARK    2  A    between atoms: O_2  and  C_3
REMARK    3  A    between atoms: C_8  and  C_9
REMARK    4  A    between atoms: C_15  and  C_16
REMARK    5  A    between atoms: C_16  and  C_17
REMARK    6  A    between atoms: C_16  and  O_18
REMARK    7  A    between atoms: O_18  and  C_19
REMARK    8  A    between atoms: C_19  and  C_20
REMARK    9  A    between atoms: C_21  and  C_22
REMARK   10  A    between atoms: C_21  and  C_23
REMARK   11  A    between atoms: C_25  and  C_26
REMARK   12  A    between atoms: C_25  and  C_27
REMARK                            x       y       z     vdW  Elec       q    Type
REMARK                         _______ _______ _______ _____ _____    ______ ____
ROOT
ATOM      1  C   UNL     1      -7.351  12.978  21.895  0.00  0.00    +0.000 A 
ATOM      2  C   UNL     1      -7.504  14.386  21.700  0.00  0.00    +0.000 A 
ATOM      3  C   UNL     1      -6.798  15.450  22.568  0.00  0.00    +0.000 A 
ATOM      4  C   UNL     1      -5.807  15.086  23.536  0.00  0.00    +0.000 A 
ATOM      5  C   UNL     1      -5.878  13.699  23.673  0.00  0.00    +0.000 A 
ATOM      6  C   UNL     1      -6.822  12.753  23.160  0.00  0.00    +0.000 A 
ATOM      7  C   UNL     1      -4.579  13.184  23.285  0.00  0.00    +0.000 C 
ATOM      8  C   UNL     1      -3.710  13.341  24.286  0.00  0.00    +0.000 C 
ATOM      9  C   UNL     1      -3.164  14.745  24.334  0.00  0.00    +0.000 C 
ATOM     10  C   UNL     1      -2.685  15.138  25.748  0.00  0.00    +0.000 C 
ATOM     11  C   UNL     1      -1.762  14.560  23.574  0.00  0.00    +0.000 C 
ATOM     12  N   UNL     1      -4.404  15.676  23.760  0.00  0.00    +0.000 N 
ATOM     13  H   UNL     1      -4.401  16.659  24.015  0.00  0.00    +0.000 HD
ENDROOT
BRANCH   1  19
ATOM     14  C   UNL     1      -6.771  11.714  19.513  0.00  0.00    +0.000 A 
ATOM     15  C   UNL     1      -6.737  10.498  18.740  0.00  0.00    +0.000 A 
ATOM     16  C   UNL     1      -7.131   9.281  19.239  0.00  0.00    +0.000 A 
ATOM     17  C   UNL     1      -7.648   9.240  20.519  0.00  0.00    +0.000 A 
ATOM     18  C   UNL     1      -7.712  10.436  21.275  0.00  0.00    +0.000 A 
ATOM     19  C   UNL     1      -7.314  11.757  20.835  0.00  0.00    +0.000 A 
BRANCH  14  21
ATOM     20  C   UNL     1      -6.764  13.342  17.781  0.00  0.00    +0.000 C 
ATOM     21  O   UNL     1      -6.212  12.867  19.011  0.00  0.00    +0.000 OA
ENDBRANCH  14  21
ENDBRANCH   1  19
BRANCH   7  22
ATOM     22  C   UNL     1      -4.345  13.563  21.796  0.00  0.00    +0.000 C 
ATOM     23  C   UNL     1      -3.700  14.838  21.048  0.00  0.00    +0.000 C 
BRANCH  22  24
ATOM     24  O   UNL     1      -3.747  12.397  21.308  0.00  0.00    +0.000 OA
BRANCH  24  25
ATOM     25  C   UNL     1      -2.971  12.771  20.229  0.00  0.00    +0.000 C 
BRANCH  25  26
ATOM     26  C   UNL     1      -1.856  11.893  20.217  0.00  0.00    +0.000 C 
ATOM     27  C   UNL     1      -1.473  11.303  19.087  0.00  0.00    +0.000 C 
ATOM     28  C   UNL     1      -2.168  11.682  17.809  0.00  0.00    +0.000 C 
ATOM     29  C   UNL     1      -0.426  10.273  19.079  0.00  0.00    +0.000 C 
ENDBRANCH  25  26
ENDBRANCH  24  25
ENDBRANCH  22  24
ENDBRANCH   7  22
TORSDOF 6
ENDMDL
MODEL 5
REMARK VINA RESULT:      -6.0      8.682     13.243
REMARK  Name = 
REMARK  12 active torsions:
REMARK  status: ('A' for Active; 'I' for Inactive)
REMARK    1  A    between atoms: C_1  and  O_2
REMARK    2  A    between atoms: O_2  and  C_3
REMARK    3  A    between atoms: C_8  and  C_9
REMARK    4  A    between atoms: C_15  and  C_16
REMARK    5  A    between atoms: C_16  and  C_17
REMARK    6  A    between atoms: C_16  and  O_18
REMARK    7  A    between atoms: O_18  and  C_19
REMARK    8  A    between atoms: C_19  and  C_20
REMARK    9  A    between atoms: C_21  and  C_22
REMARK   10  A    between atoms: C_21  and  C_23
REMARK   11  A    between atoms: C_25  and  C_26
REMARK   12  A    between atoms: C_25  and  C_27
REMARK                            x       y       z     vdW  Elec       q    Type
REMARK                         _______ _______ _______ _____ _____    ______ ____
ROOT
ATOM      1  C   UNL     1      -6.736  14.298  21.235  0.00  0.00    +0.000 A 
ATOM      2  C   UNL     1      -6.439  15.678  21.017  0.00  0.00    +0.000 A 
ATOM      3  C   UNL     1      -5.590  16.532  21.983  0.00  0.00    +0.000 A 
ATOM      4  C   UNL     1      -4.904  15.942  23.093  0.00  0.00    +0.000 A 
ATOM      5  C   UNL     1      -5.398  14.642  23.219  0.00  0.00    +0.000 A 
ATOM      6  C   UNL     1      -6.490  13.988  22.566  0.00  0.00    +0.000 A 
ATOM      7  C   UNL     1      -4.264  13.756  23.037  0.00  0.00    +0.000 C 
ATOM      8  C   UNL     1      -3.545  13.702  24.162  0.00  0.00    +0.000 C 
ATOM      9  C   UNL     1      -2.625  14.888  24.292  0.00  0.00    +0.000 C 
ATOM     10  C   UNL     1      -2.267  15.191  25.763  0.00  0.00    +0.000 C 
ATOM     11  C   UNL     1      -1.243  14.271  23.759  0.00  0.00    +0.000 C 
ATOM     12  N   UNL     1      -3.439  16.110  23.532  0.00  0.00    +0.000 N 
ATOM     13  H   UNL     1      -3.185  17.061  23.783  0.00  0.00    +0.000 HD
ENDROOT
BRANCH   1  19
ATOM     14  C   UNL     1      -6.899  13.080  18.765  0.00  0.00    +0.000 A 
ATOM     15  C   UNL     1      -6.960  11.865  17.992  0.00  0.00    +0.000 A 
ATOM     16  C   UNL     1      -6.933  10.615  18.557  0.00  0.00    +0.000 A 
ATOM     17  C   UNL     1      -6.916  10.525  19.935  0.00  0.00    +0.000 A 
ATOM     18  C   UNL     1      -6.884  11.714  20.703  0.00  0.00    +0.000 A 
ATOM     19  C   UNL     1      -6.902  13.071  20.195  0.00  0.00    +0.000 A 
BRANCH  14  21
ATOM     20  C   UNL     1      -6.890  14.273  16.708  0.00  0.00    +0.000 C 
ATOM     21  O   UNL     1      -6.765  14.296  18.133  0.00  0.00    +0.000 OA
ENDBRANCH  14  21
ENDBRANCH   1  19
BRANCH   7  22
ATOM     22  C   UNL     1      -3.711  13.983  21.603  0.00  0.00    +0.000 C 
ATOM     23  C   UNL     1      -2.535  14.894  20.981  0.00  0.00    +0.000 C 
BRANCH  22  24
ATOM     24  O   UNL     1      -3.550  12.666  21.162  0.00  0.00    +0.000 OA
BRANCH  24  25
ATOM     25  C   UNL     1      -2.797  12.724  20.006  0.00  0.00    +0.000 C 
BRANCH  25  26
ATOM     26  C   UNL     1      -3.455  11.896  19.059  0.00  0.00    +0.000 C 
ATOM     27  C   UNL     1      -2.768  11.006  18.346  0.00  0.00    +0.000 C 
ATOM     28  C   UNL     1      -1.309  10.814  18.655  0.00  0.00    +0.000 C 
ATOM     29  C   UNL     1      -3.395  10.252  17.254  0.00  0.00    +0.000 C 
ENDBRANCH  25  26
ENDBRANCH  24  25
ENDBRANCH  22  24
ENDBRANCH   7  22
TORSDOF 6
ENDMDL
MODEL 6
REMARK VINA RESULT:      -6.0      7.582     11.039
REMARK  Name = 
REMARK  12 active torsions:
REMARK  status: ('A' for Active; 'I' for Inactive)
REMARK    1  A    between atoms: C_1  and  O_2
REMARK    2  A    between atoms: O_2  and  C_3
REMARK    3  A    between atoms: C_8  and  C_9
REMARK    4  A    between atoms: C_15  and  C_16
REMARK    5  A    between atoms: C_16  and  C_17
REMARK    6  A    between atoms: C_16  and  O_18
REMARK    7  A    between atoms: O_18  and  C_19
REMARK    8  A    between atoms: C_19  and  C_20
REMARK    9  A    between atoms: C_21  and  C_22
REMARK   10  A    between atoms: C_21  and  C_23
REMARK   11  A    between atoms: C_25  and  C_26
REMARK   12  A    between atoms: C_25  and  C_27
REMARK                            x       y       z     vdW  Elec       q    Type
REMARK                         _______ _______ _______ _____ _____    ______ ____
ROOT
ATOM      1  C   UNL     1      -4.012  10.802  17.743  0.00  0.00    +0.000 A 
ATOM      2  C   UNL     1      -3.312   9.576  17.966  0.00  0.00    +0.000 A 
ATOM      3  C   UNL     1      -1.775   9.445  17.898  0.00  0.00    +0.000 A 
ATOM      4  C   UNL     1      -0.934  10.596  17.761  0.00  0.00    +0.000 A 
ATOM      5  C   UNL     1      -1.773  11.665  17.440  0.00  0.00    +0.000 A 
ATOM      6  C   UNL     1      -3.163  11.695  17.101  0.00  0.00    +0.000 A 
ATOM      7  C   UNL     1      -1.623  12.636  18.506  0.00  0.00    +0.000 C 
ATOM      8  C   UNL     1      -0.497  13.333  18.330  0.00  0.00    +0.000 C 
ATOM      9  C   UNL     1       0.709  12.575  18.821  0.00  0.00    +0.000 C 
ATOM     10  C   UNL     1       2.007  13.020  18.111  0.00  0.00    +0.000 C 
ATOM     11  C   UNL     1       0.916  13.223  20.274  0.00  0.00    +0.000 C 
ATOM     12  N   UNL     1       0.314  10.989  18.569  0.00  0.00    +0.000 N 
ATOM     13  H   UNL     1       1.081  10.327  18.501  0.00  0.00    +0.000 HD
ENDROOT
BRANCH   1  19
ATOM     14  C   UNL     1      -6.381  10.719  19.153  0.00  0.00    +0.000 A 
ATOM     15  C   UNL     1      -7.472  11.429  19.771  0.00  0.00    +0.000 A 
ATOM     16  C   UNL     1      -7.566  12.798  19.780  0.00  0.00    +0.000 A 
ATOM     17  C   UNL     1      -6.603  13.520  19.104  0.00  0.00    +0.000 A 
ATOM     18  C   UNL     1      -5.543  12.829  18.469  0.00  0.00    +0.000 A 
ATOM     19  C   UNL     1      -5.359  11.393  18.415  0.00  0.00    +0.000 A 
BRANCH  14  21
ATOM     20  C   UNL     1      -7.306   8.726  20.061  0.00  0.00    +0.000 C 
ATOM     21  O   UNL     1      -6.260   9.357  19.319  0.00  0.00    +0.000 OA
ENDBRANCH  14  21
ENDBRANCH   1  19
BRANCH   7  22
ATOM     22  C   UNL     1      -2.091  11.965  19.827  0.00  0.00    +0.000 C 
ATOM     23  C   UNL     1      -1.341  11.176  21.016  0.00  0.00    +0.000 C 
BRANCH  22  24
ATOM     24  O   UNL     1      -2.885  12.975  20.379  0.00  0.00    +0.000 OA
BRANCH  24  25
ATOM     25  C   UNL     1      -3.108  12.628  21.697  0.00  0.00    +0.000 C 
BRANCH  25  26
ATOM     26  C   UNL     1      -4.471  12.925  21.962  0.00  0.00    +0.000 C 
ATOM     27  C   UNL     1      -4.953  12.835  23.200  0.00  0.00    +0.000 C 
ATOM     28  C   UNL     1      -3.997  12.536  24.321  0.00  0.00    +0.000 C 
ATOM     29  C   UNL     1      -6.388  12.982  23.474  0.00  0.00    +0.000 C 
ENDBRANCH  25  26
ENDBRANCH  24  25
ENDBRANCH  22  24
ENDBRANCH   7  22
TORSDOF 6
ENDMDL
MODEL 7
REMARK VINA RESULT:      -5.9      6.729     10.804
REMARK  Name = 
REMARK  12 active torsions:
REMARK  status: ('A' for Active; 'I' for Inactive)
REMARK    1  A    between atoms: C_1  and  O_2
REMARK    2  A    between atoms: O_2  and  C_3
REMARK    3  A    between atoms: C_8  and  C_9
REMARK    4  A    between atoms: C_15  and  C_16
REMARK    5  A    between atoms: C_16  and  C_17
REMARK    6  A    between atoms: C_16  and  O_18
REMARK    7  A    between atoms: O_18  and  C_19
REMARK    8  A    between atoms: C_19  and  C_20
REMARK    9  A    between atoms: C_21  and  C_22
REMARK   10  A    between atoms: C_21  and  C_23
REMARK   11  A    between atoms: C_25  and  C_26
REMARK   12  A    between atoms: C_25  and  C_27
REMARK                            x       y       z     vdW  Elec       q    Type
REMARK                         _______ _______ _______ _____ _____    ______ ____
ROOT
ATOM      1  C   UNL     1      -2.216  12.374  21.179  0.00  0.00    +0.000 A 
ATOM      2  C   UNL     1      -2.969  13.391  20.517  0.00  0.00    +0.000 A 
ATOM      3  C   UNL     1      -3.486  14.665  21.219  0.00  0.00    +0.000 A 
ATOM      4  C   UNL     1      -3.101  14.987  22.560  0.00  0.00    +0.000 A 
ATOM      5  C   UNL     1      -2.483  13.847  23.079  0.00  0.00    +0.000 A 
ATOM      6  C   UNL     1      -2.370  12.521  22.552  0.00  0.00    +0.000 A 
ATOM      7  C   UNL     1      -1.127  14.236  23.415  0.00  0.00    +0.000 C 
ATOM      8  C   UNL     1      -1.119  14.895  24.578  0.00  0.00    +0.000 C 
ATOM      9  C   UNL     1      -1.513  16.338  24.402  0.00  0.00    +0.000 C 
ATOM     10  C   UNL     1      -2.104  16.944  25.694  0.00  0.00    +0.000 C 
ATOM     11  C   UNL     1      -0.076  17.051  24.356  0.00  0.00    +0.000 C 
ATOM     12  N   UNL     1      -2.567  16.313  23.128  0.00  0.00    +0.000 N 
ATOM     13  H   UNL     1      -3.213  17.091  23.047  0.00  0.00    +0.000 HD
ENDROOT
BRANCH   1  19
ATOM     14  C   UNL     1      -0.037  10.697  21.398  0.00  0.00    +0.000 A 
ATOM     15  C   UNL     1       0.912   9.819  20.760  0.00  0.00    +0.000 A 
ATOM     16  C   UNL     1       0.895   9.550  19.414  0.00  0.00    +0.000 A 
ATOM     17  C   UNL     1      -0.033  10.207  18.631  0.00  0.00    +0.000 A 
ATOM     18  C   UNL     1      -0.950  11.093  19.246  0.00  0.00    +0.000 A 
ATOM     19  C   UNL     1      -1.012  11.431  20.653  0.00  0.00    +0.000 A 
BRANCH  14  21
ATOM     20  C   UNL     1      -0.109   9.560  23.485  0.00  0.00    +0.000 C 
ATOM     21  O   UNL     1      -0.069  10.798  22.771  0.00  0.00    +0.000 OA
ENDBRANCH  14  21
ENDBRANCH   1  19
BRANCH   7  22
ATOM     22  C   UNL     1      -0.422  14.679  22.103  0.00  0.00    +0.000 C 
ATOM     23  C   UNL     1      -0.173  16.100  21.384  0.00  0.00    +0.000 C 
BRANCH  22  24
ATOM     24  O   UNL     1       0.797  14.000  22.206  0.00  0.00    +0.000 OA
BRANCH  24  25
ATOM     25  C   UNL     1       1.655  14.585  21.296  0.00  0.00    +0.000 C 
BRANCH  25  26
ATOM     26  C   UNL     1       2.099  13.543  20.441  0.00  0.00    +0.000 C 
ATOM     27  C   UNL     1       2.242  13.756  19.135  0.00  0.00    +0.000 C 
ATOM     28  C   UNL     1       2.042  15.151  18.611  0.00  0.00    +0.000 C 
ATOM     29  C   UNL     1       2.547  12.658  18.209  0.00  0.00    +0.000 C 
ENDBRANCH  25  26
ENDBRANCH  24  25
ENDBRANCH  22  24
ENDBRANCH   7  22
TORSDOF 6
ENDMDL
MODEL 8
REMARK VINA RESULT:      -5.8      8.176     12.261
REMARK  Name = 
REMARK  12 active torsions:
REMARK  status: ('A' for Active; 'I' for Inactive)
REMARK    1  A    between atoms: C_1  and  O_2
REMARK    2  A    between atoms: O_2  and  C_3
REMARK    3  A    between atoms: C_8  and  C_9
REMARK    4  A    between atoms: C_15  and  C_16
REMARK    5  A    between atoms: C_16  and  C_17
REMARK    6  A    between atoms: C_16  and  O_18
REMARK    7  A    between atoms: O_18  and  C_19
REMARK    8  A    between atoms: C_19  and  C_20
REMARK    9  A    between atoms: C_21  and  C_22
REMARK   10  A    between atoms: C_21  and  C_23
REMARK   11  A    between atoms: C_25  and  C_26
REMARK   12  A    between atoms: C_25  and  C_27
REMARK                            x       y       z     vdW  Elec       q    Type
REMARK                         _______ _______ _______ _____ _____    ______ ____
ROOT
ATOM      1  C   UNL     1      -1.293  14.138  22.457  0.00  0.00    +0.000 A 
ATOM      2  C   UNL     1      -1.247  14.156  23.885  0.00  0.00    +0.000 A 
ATOM      3  C   UNL     1      -2.170  15.033  24.758  0.00  0.00    +0.000 A 
ATOM      4  C   UNL     1      -3.254  15.775  24.187  0.00  0.00    +0.000 A 
ATOM      5  C   UNL     1      -3.073  15.738  22.803  0.00  0.00    +0.000 A 
ATOM      6  C   UNL     1      -1.979  15.262  22.013  0.00  0.00    +0.000 A 
ATOM      7  C   UNL     1      -4.246  15.084  22.256  0.00  0.00    +0.000 C 
ATOM      8  C   UNL     1      -5.264  15.946  22.203  0.00  0.00    +0.000 C 
ATOM      9  C   UNL     1      -5.941  16.090  23.542  0.00  0.00    +0.000 C 
ATOM     10  C   UNL     1      -6.658  17.450  23.691  0.00  0.00    +0.000 C 
ATOM     11  C   UNL     1      -7.192  15.100  23.367  0.00  0.00    +0.000 C 
ATOM     12  N   UNL     1      -4.724  15.848  24.634  0.00  0.00    +0.000 N 
ATOM     13  H   UNL     1      -4.857  16.226  25.567  0.00  0.00    +0.000 HD
ENDROOT
BRANCH   1  19
ATOM     14  C   UNL     1      -0.633  11.589  21.633  0.00  0.00    +0.000 A 
ATOM     15  C   UNL     1      -0.574  10.613  20.575  0.00  0.00    +0.000 A 
ATOM     16  C   UNL     1      -1.003  10.867  19.296  0.00  0.00    +0.000 A 
ATOM     17  C   UNL     1      -1.448  12.140  19.001  0.00  0.00    +0.000 A 
ATOM     18  C   UNL     1      -1.483  13.114  20.029  0.00  0.00    +0.000 A 
ATOM     19  C   UNL     1      -1.058  12.934  21.402  0.00  0.00    +0.000 A 
BRANCH  14  21
ATOM     20  C   UNL     1      -0.381   9.821  23.202  0.00  0.00    +0.000 C 
ATOM     21  O   UNL     1      -0.340  11.223  22.928  0.00  0.00    +0.000 OA
ENDBRANCH  14  21
ENDBRANCH   1  19
BRANCH   7  22
ATOM     22  C   UNL     1      -4.293  13.640  22.829  0.00  0.00    +0.000 C 
ATOM     23  C   UNL     1      -5.156  12.914  23.981  0.00  0.00    +0.000 C 
BRANCH  22  24
ATOM     24  O   UNL     1      -4.371  12.884  21.655  0.00  0.00    +0.000 OA
BRANCH  24  25
ATOM     25  C   UNL     1      -5.688  12.488  21.525  0.00  0.00    +0.000 C 
BRANCH  25  26
ATOM     26  C   UNL     1      -5.994  12.572  20.142  0.00  0.00    +0.000 C 
ATOM     27  C   UNL     1      -6.760  11.651  19.562  0.00  0.00    +0.000 C 
ATOM     28  C   UNL     1      -7.391  10.596  20.429  0.00  0.00    +0.000 C 
ATOM     29  C   UNL     1      -6.962  11.627  18.108  0.00  0.00    +0.000 C 
ENDBRANCH  25  26
ENDBRANCH  24  25
ENDBRANCH  22  24
ENDBRANCH   7  22
TORSDOF 6
ENDMDL
MODEL 9
REMARK VINA RESULT:      -5.8      7.457     10.807
REMARK  Name = 
REMARK  12 active torsions:
REMARK  status: ('A' for Active; 'I' for Inactive)
REMARK    1  A    between atoms: C_1  and  O_2
REMARK    2  A    between atoms: O_2  and  C_3
REMARK    3  A    between atoms: C_8  and  C_9
REMARK    4  A    between atoms: C_15  and  C_16
REMARK    5  A    between atoms: C_16  and  C_17
REMARK    6  A    between atoms: C_16  and  O_18
REMARK    7  A    between atoms: O_18  and  C_19
REMARK    8  A    between atoms: C_19  and  C_20
REMARK    9  A    between atoms: C_21  and  C_22
REMARK   10  A    between atoms: C_21  and  C_23
REMARK   11  A    between atoms: C_25  and  C_26
REMARK   12  A    between atoms: C_25  and  C_27
REMARK                            x       y       z     vdW  Elec       q    Type
REMARK                         _______ _______ _______ _____ _____    ______ ____
ROOT
ATOM      1  C   UNL     1      -4.027  11.087  18.169  0.00  0.00    +0.000 A 
ATOM      2  C   UNL     1      -3.436   9.800  17.984  0.00  0.00    +0.000 A 
ATOM      3  C   UNL     1      -1.946   9.584  17.643  0.00  0.00    +0.000 A 
ATOM      4  C   UNL     1      -1.014  10.672  17.648  0.00  0.00    +0.000 A 
ATOM      5  C   UNL     1      -1.772  11.842  17.725  0.00  0.00    +0.000 A 
ATOM      6  C   UNL     1      -3.185  12.051  17.629  0.00  0.00    +0.000 A 
ATOM      7  C   UNL     1      -1.375  12.505  18.952  0.00  0.00    +0.000 C 
ATOM      8  C   UNL     1      -0.217  13.146  18.768  0.00  0.00    +0.000 C 
ATOM      9  C   UNL     1       0.958  12.208  18.868  0.00  0.00    +0.000 C 
ATOM     10  C   UNL     1       2.185  12.725  18.086  0.00  0.00    +0.000 C 
ATOM     11  C   UNL     1       1.430  12.460  20.382  0.00  0.00    +0.000 C 
ATOM     12  N   UNL     1       0.368  10.766  18.317  0.00  0.00    +0.000 N 
ATOM     13  H   UNL     1       1.044  10.090  17.974  0.00  0.00    +0.000 HD
ENDROOT
BRANCH   1  19
ATOM     14  C   UNL     1      -6.399  10.919  19.567  0.00  0.00    +0.000 A 
ATOM     15  C   UNL     1      -7.290  11.476  20.554  0.00  0.00    +0.000 A 
ATOM     16  C   UNL     1      -7.015  12.629  21.245  0.00  0.00    +0.000 A 
ATOM     17  C   UNL     1      -5.862  13.319  20.928  0.00  0.00    +0.000 A 
ATOM     18  C   UNL     1      -4.995  12.793  19.940  0.00  0.00    +0.000 A 
ATOM     19  C   UNL     1      -5.198  11.585  19.167  0.00  0.00    +0.000 A 
BRANCH  14  21
ATOM     20  C   UNL     1      -7.167   8.699  19.935  0.00  0.00    +0.000 C 
ATOM     21  O   UNL     1      -6.653   9.678  19.028  0.00  0.00    +0.000 OA
ENDBRANCH  14  21
ENDBRANCH   1  19
BRANCH   7  22
ATOM     22  C   UNL     1      -1.726  11.562  20.136  0.00  0.00    +0.000 C 
ATOM     23  C   UNL     1      -0.908  10.447  20.966  0.00  0.00    +0.000 C 
BRANCH  22  24
ATOM     24  O   UNL     1      -2.317  12.457  21.033  0.00  0.00    +0.000 OA
BRANCH  24  25
ATOM     25  C   UNL     1      -1.842  12.132  22.288  0.00  0.00    +0.000 C 
BRANCH  25  26
ATOM     26  C   UNL     1      -1.932  13.316  23.066  0.00  0.00    +0.000 C 
ATOM     27  C   UNL     1      -2.968  13.512  23.879  0.00  0.00    +0.000 C 
ATOM     28  C   UNL     1      -3.970  12.403  24.045  0.00  0.00    +0.000 C 
ATOM     29  C   UNL     1      -3.165  14.791  24.573  0.00  0.00    +0.000 C 
ENDBRANCH  25  26
ENDBRANCH  24  25
ENDBRANCH  22  24
ENDBRANCH   7  22
TORSDOF 6
ENDMDL
