MODEL 1
REMARK VINA RESULT:      -8.6      0.000      0.000
REMARK  Name = 
REMARK  4 active torsions:
REMARK  status: ('A' for Active; 'I' for Inactive)
REMARK    1  A    between atoms: C_2  and  C_3
REMARK    2  A    between atoms: C_7  and  S_8
REMARK    3  A    between atoms: S_8  and  N_11
REMARK    4  A    between atoms: N_11  and  C_12
REMARK                            x       y       z     vdW  Elec       q    Type
REMARK                         _______ _______ _______ _____ _____    ______ ____
ROOT
ATOM      1  C   UNL     1       2.042   6.327  19.314  0.00  0.00    +0.000 A 
ATOM      2  C   UNL     1       1.961   6.100  20.695  0.00  0.00    +0.000 A 
ATOM      3  C   UNL     1       2.158   4.815  21.215  0.00  0.00    +0.000 A 
ATOM      4  C   UNL     1       2.472   3.757  20.361  0.00  0.00    +0.000 A 
ATOM      5  C   UNL     1       2.501   3.978  18.984  0.00  0.00    +0.000 A 
ATOM      6  C   UNL     1       2.221   5.242  18.457  0.00  0.00    +0.000 A 
ENDROOT
BRANCH   1   8
ATOM      7  O   UNL     1       2.219   7.916  17.620  0.00  0.00    +0.000 OA
ATOM      8  C   UNL     1       1.974   7.732  18.811  0.00  0.00    +0.000 C 
ATOM      9  N   UNL     1       1.570   8.756  19.672  0.00  0.00    +0.000 N 
ATOM     10  C   UNL     1       1.551  10.148  19.178  0.00  0.00    +0.000 C 
ATOM     11  C   UNL     1       0.293  10.938  19.645  0.00  0.00    +0.000 C 
ATOM     12  N   UNL     1       0.127  10.811  21.098  0.00  0.00    +0.000 NA
ATOM     13  C   UNL     1      -1.043  11.447  21.685  0.00  0.00    +0.000 C 
ATOM     14  C   UNL     1      -1.114  10.775  23.062  0.00  0.00    +0.000 C 
ATOM     15  C   UNL     1      -0.388   9.438  22.909  0.00  0.00    +0.000 C 
ATOM     16  C   UNL     1      -0.033   9.393  21.435  0.00  0.00    +0.000 C 
ATOM     17  C   UNL     1       1.226   8.614  21.101  0.00  0.00    +0.000 C 
ENDBRANCH   1   8
BRANCH   5  18
ATOM     18  S   UNL     1       3.035   2.696  17.879  0.00  0.00    +0.000 S 
ATOM     19  O   UNL     1       2.893   1.436  18.586  0.00  0.00    +0.000 OA
ATOM     20  O   UNL     1       2.397   2.902  16.600  0.00  0.00    +0.000 OA
BRANCH  18  21
ATOM     21  N   UNL     1       4.671   2.964  17.726  0.00  0.00    +0.000 N 
ATOM     22  H   UNL     1       5.310   2.303  18.161  0.00  0.00    +0.000 HD
BRANCH  21  23
ATOM     23  C   UNL     1       5.161   4.104  17.037  0.00  0.00    +0.000 A 
ATOM     24  C   UNL     1       5.174   4.076  15.642  0.00  0.00    +0.000 A 
ATOM     25  C   UNL     1       5.707   5.151  14.928  0.00  0.00    +0.000 A 
ATOM     26  C   UNL     1       6.206   6.265  15.603  0.00  0.00    +0.000 A 
ATOM     27  C   UNL     1       6.183   6.303  16.997  0.00  0.00    +0.000 A 
ATOM     28  C   UNL     1       5.684   5.216  17.716  0.00  0.00    +0.000 A 
ATOM     29 CL   UNL     1       5.780   5.278  19.438  0.00  0.00    +0.000 Cl
ENDBRANCH  21  23
ENDBRANCH  18  21
ENDBRANCH   5  18
TORSDOF 4
ENDMDL
MODEL 2
REMARK VINA RESULT:      -8.5      2.309      4.096
REMARK  Name = 
REMARK  4 active torsions:
REMARK  status: ('A' for Active; 'I' for Inactive)
REMARK    1  A    between atoms: C_2  and  C_3
REMARK    2  A    between atoms: C_7  and  S_8
REMARK    3  A    between atoms: S_8  and  N_11
REMARK    4  A    between atoms: N_11  and  C_12
REMARK                            x       y       z     vdW  Elec       q    Type
REMARK                         _______ _______ _______ _____ _____    ______ ____
ROOT
ATOM      1  C   UNL     1       2.587   7.180  19.346  0.00  0.00    +0.000 A 
ATOM      2  C   UNL     1       2.498   7.968  18.191  0.00  0.00    +0.000 A 
ATOM      3  C   UNL     1       3.331   7.715  17.095  0.00  0.00    +0.000 A 
ATOM      4  C   UNL     1       4.233   6.650  17.134  0.00  0.00    +0.000 A 
ATOM      5  C   UNL     1       4.352   5.902  18.305  0.00  0.00    +0.000 A 
ATOM      6  C   UNL     1       3.581   6.207  19.429  0.00  0.00    +0.000 A 
ENDROOT
BRANCH   1   8
ATOM      7  O   UNL     1       1.472   6.491  21.272  0.00  0.00    +0.000 OA
ATOM      8  C   UNL     1       1.583   7.384  20.434  0.00  0.00    +0.000 C 
ATOM      9  N   UNL     1       0.876   8.587  20.507  0.00  0.00    +0.000 N 
ATOM     10  C   UNL     1      -0.147   8.761  21.557  0.00  0.00    +0.000 C 
ATOM     11  C   UNL     1      -0.109  10.173  22.211  0.00  0.00    +0.000 C 
ATOM     12  N   UNL     1      -0.128  11.211  21.173  0.00  0.00    +0.000 NA
ATOM     13  C   UNL     1      -0.037  12.592  21.621  0.00  0.00    +0.000 C 
ATOM     14  C   UNL     1       0.333  13.324  20.326  0.00  0.00    +0.000 C 
ATOM     15  C   UNL     1       0.995  12.276  19.431  0.00  0.00    +0.000 C 
ATOM     16  C   UNL     1       1.044  11.040  20.309  0.00  0.00    +0.000 C 
ATOM     17  C   UNL     1       0.977   9.719  19.564  0.00  0.00    +0.000 C 
ENDBRANCH   1   8
BRANCH   5  18
ATOM     18  S   UNL     1       5.380   4.456  18.345  0.00  0.00    +0.000 S 
ATOM     19  O   UNL     1       6.084   4.396  17.077  0.00  0.00    +0.000 OA
ATOM     20  O   UNL     1       6.106   4.448  19.595  0.00  0.00    +0.000 OA
BRANCH  18  21
ATOM     21  N   UNL     1       4.291   3.197  18.335  0.00  0.00    +0.000 N 
ATOM     22  H   UNL     1       4.370   2.497  17.601  0.00  0.00    +0.000 HD
BRANCH  21  23
ATOM     23  C   UNL     1       3.257   3.122  19.304  0.00  0.00    +0.000 A 
ATOM     24  C   UNL     1       3.574   2.628  20.570  0.00  0.00    +0.000 A 
ATOM     25  C   UNL     1       2.573   2.476  21.532  0.00  0.00    +0.000 A 
ATOM     26  C   UNL     1       1.259   2.840  21.240  0.00  0.00    +0.000 A 
ATOM     27  C   UNL     1       0.938   3.346  19.980  0.00  0.00    +0.000 A 
ATOM     28  C   UNL     1       1.929   3.465  19.005  0.00  0.00    +0.000 A 
ATOM     29 CL   UNL     1       1.452   3.998  17.434  0.00  0.00    +0.000 Cl
ENDBRANCH  21  23
ENDBRANCH  18  21
ENDBRANCH   5  18
TORSDOF 4
ENDMDL
MODEL 3
REMARK VINA RESULT:      -8.3      2.302      3.734
REMARK  Name = 
REMARK  4 active torsions:
REMARK  status: ('A' for Active; 'I' for Inactive)
REMARK    1  A    between atoms: C_2  and  C_3
REMARK    2  A    between atoms: C_7  and  S_8
REMARK    3  A    between atoms: S_8  and  N_11
REMARK    4  A    between atoms: N_11  and  C_12
REMARK                            x       y       z     vdW  Elec       q    Type
REMARK                         _______ _______ _______ _____ _____    ______ ____
ROOT
ATOM      1  C   UNL     1       2.695   7.004  19.296  0.00  0.00    +0.000 A 
ATOM      2  C   UNL     1       2.538   7.845  18.187  0.00  0.00    +0.000 A 
ATOM      3  C   UNL     1       3.403   7.742  17.091  0.00  0.00    +0.000 A 
ATOM      4  C   UNL     1       4.408   6.775  17.084  0.00  0.00    +0.000 A 
ATOM      5  C   UNL     1       4.592   5.974  18.212  0.00  0.00    +0.000 A 
ATOM      6  C   UNL     1       3.783   6.132  19.339  0.00  0.00    +0.000 A 
ENDROOT
BRANCH   1   8
ATOM      7  O   UNL     1       1.590   6.060  21.118  0.00  0.00    +0.000 OA
ATOM      8  C   UNL     1       1.665   7.040  20.378  0.00  0.00    +0.000 C 
ATOM      9  N   UNL     1       0.892   8.190  20.559  0.00  0.00    +0.000 N 
ATOM     10  C   UNL     1      -0.155   8.199  21.600  0.00  0.00    +0.000 C 
ATOM     11  C   UNL     1      -0.205   9.536  22.396  0.00  0.00    +0.000 C 
ATOM     12  N   UNL     1      -0.265  10.673  21.470  0.00  0.00    +0.000 NA
ATOM     13  C   UNL     1      -0.257  12.004  22.059  0.00  0.00    +0.000 C 
ATOM     14  C   UNL     1       0.092  12.885  20.854  0.00  0.00    +0.000 C 
ATOM     15  C   UNL     1       0.825  11.971  19.870  0.00  0.00    +0.000 C 
ATOM     16  C   UNL     1       0.928  10.656  20.618  0.00  0.00    +0.000 C 
ATOM     17  C   UNL     1       0.945   9.417  19.740  0.00  0.00    +0.000 C 
ENDBRANCH   1   8
BRANCH   5  18
ATOM     18  S   UNL     1       5.762   4.640  18.185  0.00  0.00    +0.000 S 
ATOM     19  O   UNL     1       6.669   4.888  17.078  0.00  0.00    +0.000 OA
ATOM     20  O   UNL     1       6.265   4.449  19.525  0.00  0.00    +0.000 OA
BRANCH  18  21
ATOM     21  N   UNL     1       4.844   3.320  17.750  0.00  0.00    +0.000 N 
ATOM     22  H   UNL     1       5.240   2.656  17.089  0.00  0.00    +0.000 HD
BRANCH  21  23
ATOM     23  C   UNL     1       3.532   3.146  18.260  0.00  0.00    +0.000 A 
ATOM     24  C   UNL     1       2.464   3.656  17.522  0.00  0.00    +0.000 A 
ATOM     25  C   UNL     1       1.163   3.563  18.020  0.00  0.00    +0.000 A 
ATOM     26  C   UNL     1       0.923   2.939  19.244  0.00  0.00    +0.000 A 
ATOM     27  C   UNL     1       1.986   2.415  19.980  0.00  0.00    +0.000 A 
ATOM     28  C   UNL     1       3.291   2.539  19.503  0.00  0.00    +0.000 A 
ATOM     29 CL   UNL     1       4.572   1.966  20.508  0.00  0.00    +0.000 Cl
ENDBRANCH  21  23
ENDBRANCH  18  21
ENDBRANCH   5  18
TORSDOF 4
ENDMDL
MODEL 4
REMARK VINA RESULT:      -8.3      2.211      2.561
REMARK  Name = 
REMARK  4 active torsions:
REMARK  status: ('A' for Active; 'I' for Inactive)
REMARK    1  A    between atoms: C_2  and  C_3
REMARK    2  A    between atoms: C_7  and  S_8
REMARK    3  A    between atoms: S_8  and  N_11
REMARK    4  A    between atoms: N_11  and  C_12
REMARK                            x       y       z     vdW  Elec       q    Type
REMARK                         _______ _______ _______ _____ _____    ______ ____
ROOT
ATOM      1  C   UNL     1       2.722   7.173  18.752  0.00  0.00    +0.000 A 
ATOM      2  C   UNL     1       1.975   6.287  19.541  0.00  0.00    +0.000 A 
ATOM      3  C   UNL     1       2.571   5.137  20.073  0.00  0.00    +0.000 A 
ATOM      4  C   UNL     1       3.925   4.884  19.848  0.00  0.00    +0.000 A 
ATOM      5  C   UNL     1       4.650   5.741  19.020  0.00  0.00    +0.000 A 
ATOM      6  C   UNL     1       4.036   6.844  18.420  0.00  0.00    +0.000 A 
ENDROOT
BRANCH   1   8
ATOM      7  O   UNL     1       2.030   8.685  17.121  0.00  0.00    +0.000 OA
ATOM      8  C   UNL     1       2.096   8.461  18.328  0.00  0.00    +0.000 C 
ATOM      9  N   UNL     1       1.549   9.314  19.291  0.00  0.00    +0.000 N 
ATOM     10  C   UNL     1       0.974  10.606  18.867  0.00  0.00    +0.000 C 
ATOM     11  C   UNL     1      -0.359  10.944  19.597  0.00  0.00    +0.000 C 
ATOM     12  N   UNL     1      -0.189  10.807  21.048  0.00  0.00    +0.000 NA
ATOM     13  C   UNL     1      -1.366  11.032  21.873  0.00  0.00    +0.000 C 
ATOM     14  C   UNL     1      -0.942  10.412  23.210  0.00  0.00    +0.000 C 
ATOM     15  C   UNL     1       0.143   9.389  22.868  0.00  0.00    +0.000 C 
ATOM     16  C   UNL     1       0.199   9.427  21.353  0.00  0.00    +0.000 C 
ATOM     17  C   UNL     1       1.555   9.103  20.752  0.00  0.00    +0.000 C 
ENDBRANCH   1   8
BRANCH   5  18
ATOM     18  S   UNL     1       6.402   5.534  18.826  0.00  0.00    +0.000 S 
ATOM     19  O   UNL     1       6.876   6.638  18.011  0.00  0.00    +0.000 OA
ATOM     20  O   UNL     1       6.975   5.276  20.127  0.00  0.00    +0.000 OA
BRANCH  18  21
ATOM     21  N   UNL     1       6.536   4.167  17.886  0.00  0.00    +0.000 N 
ATOM     22  H   UNL     1       6.769   3.289  18.343  0.00  0.00    +0.000 HD
BRANCH  21  23
ATOM     23  C   UNL     1       6.363   4.232  16.479  0.00  0.00    +0.000 A 
ATOM     24  C   UNL     1       7.433   4.681  15.703  0.00  0.00    +0.000 A 
ATOM     25  C   UNL     1       7.283   4.821  14.322  0.00  0.00    +0.000 A 
ATOM     26  C   UNL     1       6.075   4.490  13.710  0.00  0.00    +0.000 A 
ATOM     27  C   UNL     1       5.007   4.028  14.479  0.00  0.00    +0.000 A 
ATOM     28  C   UNL     1       5.140   3.921  15.864  0.00  0.00    +0.000 A 
ATOM     29 CL   UNL     1       3.752   3.446  16.771  0.00  0.00    +0.000 Cl
ENDBRANCH  21  23
ENDBRANCH  18  21
ENDBRANCH   5  18
TORSDOF 4
ENDMDL
MODEL 5
REMARK VINA RESULT:      -8.3      1.154      1.528
REMARK  Name = 
REMARK  4 active torsions:
REMARK  status: ('A' for Active; 'I' for Inactive)
REMARK    1  A    between atoms: C_2  and  C_3
REMARK    2  A    between atoms: C_7  and  S_8
REMARK    3  A    between atoms: S_8  and  N_11
REMARK    4  A    between atoms: N_11  and  C_12
REMARK                            x       y       z     vdW  Elec       q    Type
REMARK                         _______ _______ _______ _____ _____    ______ ____
ROOT
ATOM      1  C   UNL     1       2.059   6.686  19.168  0.00  0.00    +0.000 A 
ATOM      2  C   UNL     1       1.932   6.393  20.532  0.00  0.00    +0.000 A 
ATOM      3  C   UNL     1       2.170   5.096  21.003  0.00  0.00    +0.000 A 
ATOM      4  C   UNL     1       2.569   4.094  20.119  0.00  0.00    +0.000 A 
ATOM      5  C   UNL     1       2.644   4.379  18.755  0.00  0.00    +0.000 A 
ATOM      6  C   UNL     1       2.326   5.651  18.273  0.00  0.00    +0.000 A 
ENDROOT
BRANCH   1   8
ATOM      7  O   UNL     1       2.179   8.350  17.542  0.00  0.00    +0.000 OA
ATOM      8  C   UNL     1       1.944   8.108  18.725  0.00  0.00    +0.000 C 
ATOM      9  N   UNL     1       1.508   9.082  19.628  0.00  0.00    +0.000 N 
ATOM     10  C   UNL     1       1.443  10.491  19.194  0.00  0.00    +0.000 C 
ATOM     11  C   UNL     1       0.162  11.220  19.695  0.00  0.00    +0.000 C 
ATOM     12  N   UNL     1       0.003  11.026  21.141  0.00  0.00    +0.000 NA
ATOM     13  C   UNL     1      -1.185  11.599  21.756  0.00  0.00    +0.000 C 
ATOM     14  C   UNL     1      -1.230  10.868  23.103  0.00  0.00    +0.000 C 
ATOM     15  C   UNL     1      -0.462   9.562  22.894  0.00  0.00    +0.000 C 
ATOM     16  C   UNL     1      -0.110   9.591  21.419  0.00  0.00    +0.000 C 
ATOM     17  C   UNL     1       1.173   8.868  21.050  0.00  0.00    +0.000 C 
ENDBRANCH   1   8
BRANCH   5  18
ATOM     18  S   UNL     1       3.285   3.175  17.620  0.00  0.00    +0.000 S 
ATOM     19  O   UNL     1       2.701   1.896  17.977  0.00  0.00    +0.000 OA
ATOM     20  O   UNL     1       3.155   3.699  16.280  0.00  0.00    +0.000 OA
BRANCH  18  21
ATOM     21  N   UNL     1       4.899   3.079  18.017  0.00  0.00    +0.000 N 
ATOM     22  H   UNL     1       5.250   2.203  18.398  0.00  0.00    +0.000 HD
BRANCH  21  23
ATOM     23  C   UNL     1       5.755   4.200  17.862  0.00  0.00    +0.000 A 
ATOM     24  C   UNL     1       5.960   5.031  18.965  0.00  0.00    +0.000 A 
ATOM     25  C   UNL     1       6.743   6.180  18.837  0.00  0.00    +0.000 A 
ATOM     26  C   UNL     1       7.342   6.489  17.616  0.00  0.00    +0.000 A 
ATOM     27  C   UNL     1       7.151   5.655  16.514  0.00  0.00    +0.000 A 
ATOM     28  C   UNL     1       6.340   4.525  16.628  0.00  0.00    +0.000 A 
ATOM     29 CL   UNL     1       6.056   3.592  15.205  0.00  0.00    +0.000 Cl
ENDBRANCH  21  23
ENDBRANCH  18  21
ENDBRANCH   5  18
TORSDOF 4
ENDMDL
MODEL 6
REMARK VINA RESULT:      -8.3      1.376      1.795
REMARK  Name = 
REMARK  4 active torsions:
REMARK  status: ('A' for Active; 'I' for Inactive)
REMARK    1  A    between atoms: C_2  and  C_3
REMARK    2  A    between atoms: C_7  and  S_8
REMARK    3  A    between atoms: S_8  and  N_11
REMARK    4  A    between atoms: N_11  and  C_12
REMARK                            x       y       z     vdW  Elec       q    Type
REMARK                         _______ _______ _______ _____ _____    ______ ____
ROOT
ATOM      1  C   UNL     1       2.140   6.559  19.287  0.00  0.00    +0.000 A 
ATOM      2  C   UNL     1       1.553   6.227  20.515  0.00  0.00    +0.000 A 
ATOM      3  C   UNL     1       1.792   4.977  21.099  0.00  0.00    +0.000 A 
ATOM      4  C   UNL     1       2.647   4.066  20.476  0.00  0.00    +0.000 A 
ATOM      5  C   UNL     1       3.187   4.383  19.230  0.00  0.00    +0.000 A 
ATOM      6  C   UNL     1       2.882   5.595  18.606  0.00  0.00    +0.000 A 
ENDROOT
BRANCH   1   8
ATOM      7  O   UNL     1       2.189   8.133  17.570  0.00  0.00    +0.000 OA
ATOM      8  C   UNL     1       1.983   7.951  18.769  0.00  0.00    +0.000 C 
ATOM      9  N   UNL     1       1.543   8.963  19.626  0.00  0.00    +0.000 N 
ATOM     10  C   UNL     1       1.436  10.345  19.117  0.00  0.00    +0.000 C 
ATOM     11  C   UNL     1       0.149  11.072  19.605  0.00  0.00    +0.000 C 
ATOM     12  N   UNL     1       0.024  10.955  21.062  0.00  0.00    +0.000 NA
ATOM     13  C   UNL     1      -1.164  11.534  21.671  0.00  0.00    +0.000 C 
ATOM     14  C   UNL     1      -1.166  10.878  23.056  0.00  0.00    +0.000 C 
ATOM     15  C   UNL     1      -0.371   9.580  22.902  0.00  0.00    +0.000 C 
ATOM     16  C   UNL     1      -0.050   9.536  21.421  0.00  0.00    +0.000 C 
ATOM     17  C   UNL     1       1.242   8.821  21.065  0.00  0.00    +0.000 C 
ENDBRANCH   1   8
BRANCH   5  18
ATOM     18  S   UNL     1       4.388   3.316  18.475  0.00  0.00    +0.000 S 
ATOM     19  O   UNL     1       5.437   3.094  19.453  0.00  0.00    +0.000 OA
ATOM     20  O   UNL     1       3.692   2.203  17.871  0.00  0.00    +0.000 OA
BRANCH  18  21
ATOM     21  N   UNL     1       5.057   4.260  17.278  0.00  0.00    +0.000 N 
ATOM     22  H   UNL     1       4.762   4.101  16.318  0.00  0.00    +0.000 HD
BRANCH  21  23
ATOM     23  C   UNL     1       6.038   5.239  17.586  0.00  0.00    +0.000 A 
ATOM     24  C   UNL     1       6.952   4.959  18.602  0.00  0.00    +0.000 A 
ATOM     25  C   UNL     1       7.892   5.920  18.979  0.00  0.00    +0.000 A 
ATOM     26  C   UNL     1       7.937   7.152  18.327  0.00  0.00    +0.000 A 
ATOM     27  C   UNL     1       7.034   7.432  17.301  0.00  0.00    +0.000 A 
ATOM     28  C   UNL     1       6.070   6.488  16.946  0.00  0.00    +0.000 A 
ATOM     29 CL   UNL     1       4.914   6.932  15.744  0.00  0.00    +0.000 Cl
ENDBRANCH  21  23
ENDBRANCH  18  21
ENDBRANCH   5  18
TORSDOF 4
ENDMDL
MODEL 7
REMARK VINA RESULT:      -8.3      3.442      9.093
REMARK  Name = 
REMARK  4 active torsions:
REMARK  status: ('A' for Active; 'I' for Inactive)
REMARK    1  A    between atoms: C_2  and  C_3
REMARK    2  A    between atoms: C_7  and  S_8
REMARK    3  A    between atoms: S_8  and  N_11
REMARK    4  A    between atoms: N_11  and  C_12
REMARK                            x       y       z     vdW  Elec       q    Type
REMARK                         _______ _______ _______ _____ _____    ______ ____
ROOT
ATOM      1  C   UNL     1       2.118   7.369  19.413  0.00  0.00    +0.000 A 
ATOM      2  C   UNL     1       2.092   7.839  18.093  0.00  0.00    +0.000 A 
ATOM      3  C   UNL     1       1.613   9.123  17.808  0.00  0.00    +0.000 A 
ATOM      4  C   UNL     1       1.190   9.957  18.843  0.00  0.00    +0.000 A 
ATOM      5  C   UNL     1       1.170   9.465  20.149  0.00  0.00    +0.000 A 
ATOM      6  C   UNL     1       1.568   8.155  20.425  0.00  0.00    +0.000 A 
ENDROOT
BRANCH   1   8
ATOM      7  O   UNL     1       2.287   5.366  20.591  0.00  0.00    +0.000 OA
ATOM      8  C   UNL     1       2.772   6.056  19.696  0.00  0.00    +0.000 C 
ATOM      9  N   UNL     1       3.841   5.630  18.902  0.00  0.00    +0.000 N 
ATOM     10  C   UNL     1       4.511   4.353  19.218  0.00  0.00    +0.000 C 
ATOM     11  C   UNL     1       4.844   3.515  17.950  0.00  0.00    +0.000 C 
ATOM     12  N   UNL     1       5.556   4.342  16.969  0.00  0.00    +0.000 NA
ATOM     13  C   UNL     1       5.888   3.718  15.697  0.00  0.00    +0.000 C 
ATOM     14  C   UNL     1       6.212   4.933  14.820  0.00  0.00    +0.000 C 
ATOM     15  C   UNL     1       5.474   6.112  15.455  0.00  0.00    +0.000 C 
ATOM     16  C   UNL     1       4.704   5.475  16.596  0.00  0.00    +0.000 C 
ATOM     17  C   UNL     1       4.458   6.381  17.790  0.00  0.00    +0.000 C 
ENDBRANCH   1   8
BRANCH   5  18
ATOM     18  S   UNL     1       0.777  10.539  21.506  0.00  0.00    +0.000 S 
ATOM     19  O   UNL     1       1.100   9.821  22.726  0.00  0.00    +0.000 OA
ATOM     20  O   UNL     1       1.349  11.838  21.239  0.00  0.00    +0.000 OA
BRANCH  18  21
ATOM     21  N   UNL     1      -0.884  10.648  21.454  0.00  0.00    +0.000 N 
ATOM     22  H   UNL     1      -1.414   9.812  21.221  0.00  0.00    +0.000 HD
BRANCH  21  23
ATOM     23  C   UNL     1      -1.540  11.883  21.695  0.00  0.00    +0.000 A 
ATOM     24  C   UNL     1      -1.747  12.273  23.019  0.00  0.00    +0.000 A 
ATOM     25  C   UNL     1      -2.446  13.449  23.299  0.00  0.00    +0.000 A 
ATOM     26  C   UNL     1      -2.918  14.250  22.259  0.00  0.00    +0.000 A 
ATOM     27  C   UNL     1      -2.702  13.872  20.934  0.00  0.00    +0.000 A 
ATOM     28  C   UNL     1      -2.035  12.679  20.650  0.00  0.00    +0.000 A 
ATOM     29 CL   UNL     1      -1.893  12.212  18.995  0.00  0.00    +0.000 Cl
ENDBRANCH  21  23
ENDBRANCH  18  21
ENDBRANCH   5  18
TORSDOF 4
ENDMDL
MODEL 8
REMARK VINA RESULT:      -8.1      2.435      3.155
REMARK  Name = 
REMARK  4 active torsions:
REMARK  status: ('A' for Active; 'I' for Inactive)
REMARK    1  A    between atoms: C_2  and  C_3
REMARK    2  A    between atoms: C_7  and  S_8
REMARK    3  A    between atoms: S_8  and  N_11
REMARK    4  A    between atoms: N_11  and  C_12
REMARK                            x       y       z     vdW  Elec       q    Type
REMARK                         _______ _______ _______ _____ _____    ______ ____
ROOT
ATOM      1  C   UNL     1       2.196   7.763  19.028  0.00  0.00    +0.000 A 
ATOM      2  C   UNL     1       1.553   7.226  20.150  0.00  0.00    +0.000 A 
ATOM      3  C   UNL     1       2.030   6.053  20.747  0.00  0.00    +0.000 A 
ATOM      4  C   UNL     1       3.173   5.429  20.246  0.00  0.00    +0.000 A 
ATOM      5  C   UNL     1       3.779   5.940  19.098  0.00  0.00    +0.000 A 
ATOM      6  C   UNL     1       3.255   7.062  18.452  0.00  0.00    +0.000 A 
ENDROOT
BRANCH   1   8
ATOM      7  O   UNL     1       1.832   9.281  17.298  0.00  0.00    +0.000 OA
ATOM      8  C   UNL     1       1.751   9.092  18.511  0.00  0.00    +0.000 C 
ATOM      9  N   UNL     1       1.198  10.027  19.391  0.00  0.00    +0.000 N 
ATOM     10  C   UNL     1       0.804  11.354  18.879  0.00  0.00    +0.000 C 
ATOM     11  C   UNL     1      -0.555  11.847  19.457  0.00  0.00    +0.000 C 
ATOM     12  N   UNL     1      -0.549  11.742  20.921  0.00  0.00    +0.000 NA
ATOM     13  C   UNL     1      -1.776  12.110  21.613  0.00  0.00    +0.000 C 
ATOM     14  C   UNL     1      -1.556  11.495  23.000  0.00  0.00    +0.000 C 
ATOM     15  C   UNL     1      -0.552  10.359  22.797  0.00  0.00    +0.000 C 
ATOM     16  C   UNL     1      -0.337  10.341  21.296  0.00  0.00    +0.000 C 
ATOM     17  C   UNL     1       1.034   9.865  20.849  0.00  0.00    +0.000 C 
ENDBRANCH   1   8
BRANCH   5  18
ATOM     18  S   UNL     1       5.313   5.263  18.515  0.00  0.00    +0.000 S 
ATOM     19  O   UNL     1       5.714   6.043  17.358  0.00  0.00    +0.000 OA
ATOM     20  O   UNL     1       6.200   5.107  19.646  0.00  0.00    +0.000 OA
BRANCH  18  21
ATOM     21  N   UNL     1       4.888   3.759  17.941  0.00  0.00    +0.000 N 
ATOM     22  H   UNL     1       5.562   3.252  17.373  0.00  0.00    +0.000 HD
BRANCH  21  23
ATOM     23  C   UNL     1       3.605   3.215  18.207  0.00  0.00    +0.000 A 
ATOM     24  C   UNL     1       2.539   3.612  17.399  0.00  0.00    +0.000 A 
ATOM     25  C   UNL     1       1.249   3.150  17.668  0.00  0.00    +0.000 A 
ATOM     26  C   UNL     1       1.024   2.272  18.728  0.00  0.00    +0.000 A 
ATOM     27  C   UNL     1       2.088   1.861  19.531  0.00  0.00    +0.000 A 
ATOM     28  C   UNL     1       3.373   2.350  19.288  0.00  0.00    +0.000 A 
ATOM     29 CL   UNL     1       4.628   1.889  20.380  0.00  0.00    +0.000 Cl
ENDBRANCH  21  23
ENDBRANCH  18  21
ENDBRANCH   5  18
TORSDOF 4
ENDMDL
MODEL 9
REMARK VINA RESULT:      -8.0      3.269      8.925
REMARK  Name = 
REMARK  4 active torsions:
REMARK  status: ('A' for Active; 'I' for Inactive)
REMARK    1  A    between atoms: C_2  and  C_3
REMARK    2  A    between atoms: C_7  and  S_8
REMARK    3  A    between atoms: S_8  and  N_11
REMARK    4  A    between atoms: N_11  and  C_12
REMARK                            x       y       z     vdW  Elec       q    Type
REMARK                         _______ _______ _______ _____ _____    ______ ____
ROOT
ATOM      1  C   UNL     1       2.291   6.928  19.603  0.00  0.00    +0.000 A 
ATOM      2  C   UNL     1       2.449   7.652  18.414  0.00  0.00    +0.000 A 
ATOM      3  C   UNL     1       1.857   8.913  18.267  0.00  0.00    +0.000 A 
ATOM      4  C   UNL     1       1.132   9.471  19.320  0.00  0.00    +0.000 A 
ATOM      5  C   UNL     1       0.934   8.724  20.482  0.00  0.00    +0.000 A 
ATOM      6  C   UNL     1       1.454   7.432  20.598  0.00  0.00    +0.000 A 
ENDROOT
BRANCH   1   8
ATOM      7  O   UNL     1       2.691   4.898  20.674  0.00  0.00    +0.000 OA
ATOM      8  C   UNL     1       3.058   5.659  19.779  0.00  0.00    +0.000 C 
ATOM      9  N   UNL     1       4.094   5.348  18.895  0.00  0.00    +0.000 N 
ATOM     10  C   UNL     1       4.877   4.114  19.106  0.00  0.00    +0.000 C 
ATOM     11  C   UNL     1       5.178   3.355  17.780  0.00  0.00    +0.000 C 
ATOM     12  N   UNL     1       5.754   4.273  16.791  0.00  0.00    +0.000 NA
ATOM     13  C   UNL     1       6.038   3.727  15.473  0.00  0.00    +0.000 C 
ATOM     14  C   UNL     1       6.208   4.998  14.631  0.00  0.00    +0.000 C 
ATOM     15  C   UNL     1       5.434   6.091  15.369  0.00  0.00    +0.000 C 
ATOM     16  C   UNL     1       4.797   5.352  16.530  0.00  0.00    +0.000 C 
ATOM     17  C   UNL     1       4.572   6.187  17.778  0.00  0.00    +0.000 C 
ENDBRANCH   1   8
BRANCH   5  18
ATOM     18  S   UNL     1       0.143   9.452  21.894  0.00  0.00    +0.000 S 
ATOM     19  O   UNL     1      -0.856   8.507  22.360  0.00  0.00    +0.000 OA
ATOM     20  O   UNL     1       1.168   9.945  22.785  0.00  0.00    +0.000 OA
BRANCH  18  21
ATOM     21  N   UNL     1      -0.695  10.741  21.255  0.00  0.00    +0.000 N 
ATOM     22  H   UNL     1      -1.004  10.682  20.287  0.00  0.00    +0.000 HD
BRANCH  21  23
ATOM     23  C   UNL     1      -0.942  11.905  22.028  0.00  0.00    +0.000 A 
ATOM     24  C   UNL     1      -2.031  11.898  22.900  0.00  0.00    +0.000 A 
ATOM     25  C   UNL     1      -2.347  13.045  23.631  0.00  0.00    +0.000 A 
ATOM     26  C   UNL     1      -1.562  14.192  23.512  0.00  0.00    +0.000 A 
ATOM     27  C   UNL     1      -0.465  14.200  22.651  0.00  0.00    +0.000 A 
ATOM     28  C   UNL     1      -0.167  13.067  21.892  0.00  0.00    +0.000 A 
ATOM     29 CL   UNL     1       1.138  13.173  20.767  0.00  0.00    +0.000 Cl
ENDBRANCH  21  23
ENDBRANCH  18  21
ENDBRANCH   5  18
TORSDOF 4
ENDMDL
