MODEL 1
REMARK VINA RESULT:      -9.0      0.000      0.000
REMARK  Name = 
REMARK  2 active torsions:
REMARK  status: ('A' for Active; 'I' for Inactive)
REMARK    1  A    between atoms: C_7  and  C_8
REMARK    2  A    between atoms: C_13  and  C_14
REMARK                            x       y       z     vdW  Elec       q    Type
REMARK                         _______ _______ _______ _____ _____    ______ ____
ROOT
ATOM      1  C   UNL     1       7.500   6.545  17.424  0.00  0.00    +0.000 C 
ATOM      2  O   UNL     1       7.717   6.094  18.544  0.00  0.00    +0.000 OA
ATOM      3  N   UNL     1       7.739   7.843  17.017  0.00  0.00    +0.000 N 
ATOM      4  C   UNL     1       8.238   8.808  17.877  0.00  0.00    +0.000 A 
ATOM      5  C   UNL     1       8.497  10.154  17.540  0.00  0.00    +0.000 A 
ATOM      6  C   UNL     1       9.029  10.727  18.679  0.00  0.00    +0.000 A 
ATOM      7  N   UNL     1       9.055   9.711  19.594  0.00  0.00    +0.000 N 
ATOM      8  N   UNL     1       8.542   8.570  19.149  0.00  0.00    +0.000 NA
ATOM      9  H   UNL     1       7.562   8.130  16.066  0.00  0.00    +0.000 HD
ATOM     10  H   UNL     1       9.435   9.719  20.536  0.00  0.00    +0.000 HD
ENDROOT
BRANCH   1  17
ATOM     11  O   UNL     1       1.772   2.604  16.837  0.00  0.00    +0.000 OA
ATOM     12  C   UNL     1       2.494   3.440  17.344  0.00  0.00    +0.000 C 
ATOM     13  O   UNL     1       3.612   3.978  16.758  0.00  0.00    +0.000 OA
ATOM     14  C   UNL     1       4.341   4.851  17.660  0.00  0.00    +0.000 C 
ATOM     15  C   UNL     1       5.660   4.142  17.998  0.00  0.00    +0.000 C 
ATOM     16  C   UNL     1       6.672   4.210  16.845  0.00  0.00    +0.000 C 
ATOM     17  C   UNL     1       6.892   5.648  16.337  0.00  0.00    +0.000 C 
ATOM     18  C   UNL     1       5.550   6.190  15.843  0.00  0.00    +0.000 C 
ATOM     19  C   UNL     1       4.510   6.215  16.968  0.00  0.00    +0.000 C 
ATOM     20  C   UNL     1       3.444   4.923  18.840  0.00  0.00    +0.000 A 
ATOM     21  C   UNL     1       3.532   5.637  20.023  0.00  0.00    +0.000 A 
ATOM     22  C   UNL     1       2.513   5.466  20.961  0.00  0.00    +0.000 A 
ATOM     23  C   UNL     1       1.466   4.592  20.671  0.00  0.00    +0.000 A 
ATOM     24  N   UNL     1       1.365   3.882  19.524  0.00  0.00    +0.000 NA
ATOM     25  C   UNL     1       2.373   4.086  18.654  0.00  0.00    +0.000 A 
ENDBRANCH   1  17
BRANCH   6  26
ATOM     26  C   UNL     1       9.573  12.043  18.955  0.00  0.00    +0.000 A 
ATOM     27  C   UNL     1      10.552  12.228  19.944  0.00  0.00    +0.000 A 
ATOM     28  C   UNL     1      11.124  13.484  20.143  0.00  0.00    +0.000 A 
ATOM     29  C   UNL     1      10.713  14.565  19.365  0.00  0.00    +0.000 A 
ATOM     30  C   UNL     1       9.725  14.399  18.401  0.00  0.00    +0.000 A 
ATOM     31  C   UNL     1       9.153  13.144  18.200  0.00  0.00    +0.000 A 
ENDBRANCH   6  26
TORSDOF 2
ENDMDL
MODEL 2
REMARK VINA RESULT:      -8.9      1.486      1.612
REMARK  Name = 
REMARK  2 active torsions:
REMARK  status: ('A' for Active; 'I' for Inactive)
REMARK    1  A    between atoms: C_7  and  C_8
REMARK    2  A    between atoms: C_13  and  C_14
REMARK                            x       y       z     vdW  Elec       q    Type
REMARK                         _______ _______ _______ _____ _____    ______ ____
ROOT
ATOM      1  C   UNL     1       6.811   6.473  16.678  0.00  0.00    +0.000 C 
ATOM      2  O   UNL     1       5.988   7.188  16.115  0.00  0.00    +0.000 OA
ATOM      3  N   UNL     1       7.815   6.910  17.518  0.00  0.00    +0.000 N 
ATOM      4  C   UNL     1       8.018   8.252  17.796  0.00  0.00    +0.000 A 
ATOM      5  C   UNL     1       9.027   8.774  18.633  0.00  0.00    +0.000 A 
ATOM      6  C   UNL     1       8.819  10.140  18.658  0.00  0.00    +0.000 A 
ATOM      7  N   UNL     1       7.726  10.336  17.860  0.00  0.00    +0.000 N 
ATOM      8  N   UNL     1       7.264   9.226  17.296  0.00  0.00    +0.000 NA
ATOM      9  H   UNL     1       8.437   6.254  17.969  0.00  0.00    +0.000 HD
ATOM     10  H   UNL     1       7.227  11.200  17.674  0.00  0.00    +0.000 HD
ENDROOT
BRANCH   1  17
ATOM     11  O   UNL     1       2.991   1.129  19.029  0.00  0.00    +0.000 OA
ATOM     12  C   UNL     1       3.263   2.299  18.845  0.00  0.00    +0.000 C 
ATOM     13  O   UNL     1       4.242   2.758  18.000  0.00  0.00    +0.000 OA
ATOM     14  C   UNL     1       4.420   4.196  18.093  0.00  0.00    +0.000 C 
ATOM     15  C   UNL     1       5.787   4.435  18.747  0.00  0.00    +0.000 C 
ATOM     16  C   UNL     1       6.952   4.184  17.778  0.00  0.00    +0.000 C 
ATOM     17  C   UNL     1       6.792   4.955  16.454  0.00  0.00    +0.000 C 
ATOM     18  C   UNL     1       5.494   4.497  15.788  0.00  0.00    +0.000 C 
ATOM     19  C   UNL     1       4.280   4.784  16.678  0.00  0.00    +0.000 C 
ATOM     20  C   UNL     1       3.309   4.605  18.988  0.00  0.00    +0.000 A 
ATOM     21  C   UNL     1       2.889   5.849  19.427  0.00  0.00    +0.000 A 
ATOM     22  C   UNL     1       1.800   5.896  20.299  0.00  0.00    +0.000 A 
ATOM     23  C   UNL     1       1.194   4.701  20.688  0.00  0.00    +0.000 A 
ATOM     24  N   UNL     1       1.592   3.477  20.275  0.00  0.00    +0.000 NA
ATOM     25  C   UNL     1       2.645   3.490  19.434  0.00  0.00    +0.000 A 
ENDBRANCH   1  17
BRANCH   6  26
ATOM     26  C   UNL     1       9.454  11.218  19.393  0.00  0.00    +0.000 A 
ATOM     27  C   UNL     1       9.169  11.433  20.750  0.00  0.00    +0.000 A 
ATOM     28  C   UNL     1       9.847  12.421  21.464  0.00  0.00    +0.000 A 
ATOM     29  C   UNL     1      10.802  13.209  20.824  0.00  0.00    +0.000 A 
ATOM     30  C   UNL     1      11.073  13.022  19.473  0.00  0.00    +0.000 A 
ATOM     31  C   UNL     1      10.397  12.033  18.758  0.00  0.00    +0.000 A 
ENDBRANCH   6  26
TORSDOF 2
ENDMDL
MODEL 3
REMARK VINA RESULT:      -8.8      4.909      6.337
REMARK  Name = 
REMARK  2 active torsions:
REMARK  status: ('A' for Active; 'I' for Inactive)
REMARK    1  A    between atoms: C_7  and  C_8
REMARK    2  A    between atoms: C_13  and  C_14
REMARK                            x       y       z     vdW  Elec       q    Type
REMARK                         _______ _______ _______ _____ _____    ______ ____
ROOT
ATOM      1  C   UNL     1       4.500   6.807  16.815  0.00  0.00    +0.000 C 
ATOM      2  O   UNL     1       4.330   7.374  15.741  0.00  0.00    +0.000 OA
ATOM      3  N   UNL     1       3.821   7.080  17.986  0.00  0.00    +0.000 N 
ATOM      4  C   UNL     1       2.866   8.080  18.073  0.00  0.00    +0.000 A 
ATOM      5  C   UNL     1       2.140   8.425  19.233  0.00  0.00    +0.000 A 
ATOM      6  C   UNL     1       1.274   9.430  18.845  0.00  0.00    +0.000 A 
ATOM      7  N   UNL     1       1.530   9.608  17.514  0.00  0.00    +0.000 N 
ATOM      8  N   UNL     1       2.512   8.846  17.046  0.00  0.00    +0.000 NA
ATOM      9  H   UNL     1       3.996   6.546  18.826  0.00  0.00    +0.000 HD
ATOM     10  H   UNL     1       1.055  10.218  16.856  0.00  0.00    +0.000 HD
ENDROOT
BRANCH   1  17
ATOM     11  O   UNL     1       5.321   1.122  20.777  0.00  0.00    +0.000 OA
ATOM     12  C   UNL     1       4.715   2.062  20.301  0.00  0.00    +0.000 C 
ATOM     13  O   UNL     1       5.154   2.837  19.257  0.00  0.00    +0.000 OA
ATOM     14  C   UNL     1       4.275   3.964  19.000  0.00  0.00    +0.000 C 
ATOM     15  C   UNL     1       5.043   5.229  19.405  0.00  0.00    +0.000 C 
ATOM     16  C   UNL     1       6.116   5.616  18.377  0.00  0.00    +0.000 C 
ATOM     17  C   UNL     1       5.557   5.703  16.945  0.00  0.00    +0.000 C 
ATOM     18  C   UNL     1       4.992   4.332  16.569  0.00  0.00    +0.000 C 
ATOM     19  C   UNL     1       3.863   3.916  17.518  0.00  0.00    +0.000 C 
ATOM     20  C   UNL     1       3.134   3.702  19.913  0.00  0.00    +0.000 A 
ATOM     21  C   UNL     1       1.939   4.373  20.109  0.00  0.00    +0.000 A 
ATOM     22  C   UNL     1       1.068   3.874  21.079  0.00  0.00    +0.000 A 
ATOM     23  C   UNL     1       1.438   2.740  21.801  0.00  0.00    +0.000 A 
ATOM     24  N   UNL     1       2.602   2.075  21.628  0.00  0.00    +0.000 NA
ATOM     25  C   UNL     1       3.403   2.597  20.679  0.00  0.00    +0.000 A 
ENDBRANCH   1  17
BRANCH   6  26
ATOM     26  C   UNL     1       0.217  10.139  19.541  0.00  0.00    +0.000 A 
ATOM     27  C   UNL     1       0.266  10.328  20.930  0.00  0.00    +0.000 A 
ATOM     28  C   UNL     1      -0.715  11.081  21.575  0.00  0.00    +0.000 A 
ATOM     29  C   UNL     1      -1.758  11.639  20.836  0.00  0.00    +0.000 A 
ATOM     30  C   UNL     1      -1.831  11.435  19.463  0.00  0.00    +0.000 A 
ATOM     31  C   UNL     1      -0.850  10.684  18.817  0.00  0.00    +0.000 A 
ENDBRANCH   6  26
TORSDOF 2
ENDMDL
MODEL 4
REMARK VINA RESULT:      -8.2      6.907     10.210
REMARK  Name = 
REMARK  2 active torsions:
REMARK  status: ('A' for Active; 'I' for Inactive)
REMARK    1  A    between atoms: C_7  and  C_8
REMARK    2  A    between atoms: C_13  and  C_14
REMARK                            x       y       z     vdW  Elec       q    Type
REMARK                         _______ _______ _______ _____ _____    ______ ____
ROOT
ATOM      1  C   UNL     1      -0.499  10.656  20.251  0.00  0.00    +0.000 C 
ATOM      2  O   UNL     1      -0.240  10.295  21.395  0.00  0.00    +0.000 OA
ATOM      3  N   UNL     1       0.055  10.138  19.098  0.00  0.00    +0.000 N 
ATOM      4  C   UNL     1       1.016   9.140  19.121  0.00  0.00    +0.000 A 
ATOM      5  C   UNL     1       1.635   8.569  17.989  0.00  0.00    +0.000 A 
ATOM      6  C   UNL     1       2.478   7.589  18.480  0.00  0.00    +0.000 A 
ATOM      7  N   UNL     1       2.305   7.637  19.836  0.00  0.00    +0.000 N 
ATOM      8  N   UNL     1       1.474   8.589  20.241  0.00  0.00    +0.000 NA
ATOM      9  H   UNL     1      -0.233  10.469  18.188  0.00  0.00    +0.000 HD
ATOM     10  H   UNL     1       2.706   7.030  20.544  0.00  0.00    +0.000 HD
ENDROOT
BRANCH   1  17
ATOM     11  O   UNL     1      -0.071  17.386  18.459  0.00  0.00    +0.000 OA
ATOM     12  C   UNL     1       0.343  16.255  18.621  0.00  0.00    +0.000 C 
ATOM     13  O   UNL     1      -0.440  15.157  18.877  0.00  0.00    +0.000 OA
ATOM     14  C   UNL     1       0.349  13.970  19.155  0.00  0.00    +0.000 C 
ATOM     15  C   UNL     1       0.152  13.641  20.641  0.00  0.00    +0.000 C 
ATOM     16  C   UNL     1      -1.215  13.003  20.922  0.00  0.00    +0.000 C 
ATOM     17  C   UNL     1      -1.500  11.794  20.012  0.00  0.00    +0.000 C 
ATOM     18  C   UNL     1      -1.474  12.274  18.559  0.00  0.00    +0.000 C 
ATOM     19  C   UNL     1      -0.108  12.860  18.191  0.00  0.00    +0.000 C 
ATOM     20  C   UNL     1       1.734  14.427  18.876  0.00  0.00    +0.000 A 
ATOM     21  C   UNL     1       2.946  13.758  18.895  0.00  0.00    +0.000 A 
ATOM     22  C   UNL     1       4.096  14.492  18.600  0.00  0.00    +0.000 A 
ATOM     23  C   UNL     1       3.974  15.851  18.306  0.00  0.00    +0.000 A 
ATOM     24  N   UNL     1       2.800  16.522  18.287  0.00  0.00    +0.000 NA
ATOM     25  C   UNL     1       1.724  15.766  18.577  0.00  0.00    +0.000 A 
ENDBRANCH   1  17
BRANCH   6  26
ATOM     26  C   UNL     1       3.316   6.599  17.832  0.00  0.00    +0.000 A 
ATOM     27  C   UNL     1       2.994   5.235  17.880  0.00  0.00    +0.000 A 
ATOM     28  C   UNL     1       3.765   4.302  17.186  0.00  0.00    +0.000 A 
ATOM     29  C   UNL     1       4.870   4.727  16.450  0.00  0.00    +0.000 A 
ATOM     30  C   UNL     1       5.215   6.073  16.417  0.00  0.00    +0.000 A 
ATOM     31  C   UNL     1       4.444   7.006  17.110  0.00  0.00    +0.000 A 
ENDBRANCH   6  26
TORSDOF 2
ENDMDL
MODEL 5
REMARK VINA RESULT:      -8.1      7.849     10.491
REMARK  Name = 
REMARK  2 active torsions:
REMARK  status: ('A' for Active; 'I' for Inactive)
REMARK    1  A    between atoms: C_7  and  C_8
REMARK    2  A    between atoms: C_13  and  C_14
REMARK                            x       y       z     vdW  Elec       q    Type
REMARK                         _______ _______ _______ _____ _____    ______ ____
ROOT
ATOM      1  C   UNL     1       1.049  11.362  19.266  0.00  0.00    +0.000 C 
ATOM      2  O   UNL     1       0.961  11.112  20.464  0.00  0.00    +0.000 OA
ATOM      3  N   UNL     1       1.432  10.470  18.284  0.00  0.00    +0.000 N 
ATOM      4  C   UNL     1       1.795   9.164  18.569  0.00  0.00    +0.000 A 
ATOM      5  C   UNL     1       2.207   8.200  17.624  0.00  0.00    +0.000 A 
ATOM      6  C   UNL     1       2.417   7.039  18.344  0.00  0.00    +0.000 A 
ATOM      7  N   UNL     1       2.119   7.378  19.635  0.00  0.00    +0.000 N 
ATOM      8  N   UNL     1       1.794   8.655  19.797  0.00  0.00    +0.000 NA
ATOM      9  H   UNL     1       1.451  10.745  17.312  0.00  0.00    +0.000 HD
ATOM     10  H   UNL     1       2.093   6.779  20.454  0.00  0.00    +0.000 HD
ENDROOT
BRANCH   1  17
ATOM     11  O   UNL     1      -3.481  16.406  20.915  0.00  0.00    +0.000 OA
ATOM     12  C   UNL     1      -2.877  15.364  21.076  0.00  0.00    +0.000 C 
ATOM     13  O   UNL     1      -1.797  14.954  20.336  0.00  0.00    +0.000 OA
ATOM     14  C   UNL     1      -1.375  13.607  20.676  0.00  0.00    +0.000 C 
ATOM     15  C   UNL     1      -1.709  12.717  19.472  0.00  0.00    +0.000 C 
ATOM     16  C   UNL     1      -0.726  12.912  18.309  0.00  0.00    +0.000 C 
ATOM     17  C   UNL     1       0.743  12.774  18.750  0.00  0.00    +0.000 C 
ATOM     18  C   UNL     1       1.025  13.838  19.813  0.00  0.00    +0.000 C 
ATOM     19  C   UNL     1       0.121  13.656  21.036  0.00  0.00    +0.000 C 
ATOM     20  C   UNL     1      -2.228  13.284  21.847  0.00  0.00    +0.000 A 
ATOM     21  C   UNL     1      -2.277  12.174  22.673  0.00  0.00    +0.000 A 
ATOM     22  C   UNL     1      -3.228  12.168  23.695  0.00  0.00    +0.000 A 
ATOM     23  C   UNL     1      -4.078  13.265  23.834  0.00  0.00    +0.000 A 
ATOM     24  N   UNL     1      -4.049  14.356  23.034  0.00  0.00    +0.000 NA
ATOM     25  C   UNL     1      -3.112  14.310  22.067  0.00  0.00    +0.000 A 
ENDBRANCH   1  17
BRANCH   6  26
ATOM     26  C   UNL     1       2.761   5.687  17.949  0.00  0.00    +0.000 A 
ATOM     27  C   UNL     1       4.048   5.375  17.485  0.00  0.00    +0.000 A 
ATOM     28  C   UNL     1       4.390   4.056  17.186  0.00  0.00    +0.000 A 
ATOM     29  C   UNL     1       3.443   3.043  17.334  0.00  0.00    +0.000 A 
ATOM     30  C   UNL     1       2.156   3.346  17.766  0.00  0.00    +0.000 A 
ATOM     31  C   UNL     1       1.814   4.663  18.068  0.00  0.00    +0.000 A 
ENDBRANCH   6  26
TORSDOF 2
ENDMDL
MODEL 6
REMARK VINA RESULT:      -8.0      7.280     10.616
REMARK  Name = 
REMARK  2 active torsions:
REMARK  status: ('A' for Active; 'I' for Inactive)
REMARK    1  A    between atoms: C_7  and  C_8
REMARK    2  A    between atoms: C_13  and  C_14
REMARK                            x       y       z     vdW  Elec       q    Type
REMARK                         _______ _______ _______ _____ _____    ______ ____
ROOT
ATOM      1  C   UNL     1      -0.614  11.196  22.176  0.00  0.00    +0.000 C 
ATOM      2  O   UNL     1      -0.272  10.764  23.273  0.00  0.00    +0.000 OA
ATOM      3  N   UNL     1      -0.239  10.675  20.953  0.00  0.00    +0.000 N 
ATOM      4  C   UNL     1       0.616   9.591  20.840  0.00  0.00    +0.000 A 
ATOM      5  C   UNL     1       1.052   9.011  19.629  0.00  0.00    +0.000 A 
ATOM      6  C   UNL     1       1.840   7.936  19.994  0.00  0.00    +0.000 A 
ATOM      7  N   UNL     1       1.819   7.944  21.362  0.00  0.00    +0.000 N 
ATOM      8  N   UNL     1       1.133   8.953  21.886  0.00  0.00    +0.000 NA
ATOM      9  H   UNL     1      -0.588  11.070  20.092  0.00  0.00    +0.000 HD
ATOM     10  H   UNL     1       2.230   7.273  22.003  0.00  0.00    +0.000 HD
ENDROOT
BRANCH   1  17
ATOM     11  O   UNL     1      -0.204  17.458  19.128  0.00  0.00    +0.000 OA
ATOM     12  C   UNL     1       0.127  16.310  19.347  0.00  0.00    +0.000 C 
ATOM     13  O   UNL     1      -0.614  15.395  20.052  0.00  0.00    +0.000 OA
ATOM     14  C   UNL     1       0.102  14.150  20.262  0.00  0.00    +0.000 C 
ATOM     15  C   UNL     1       0.423  14.066  21.760  0.00  0.00    +0.000 C 
ATOM     16  C   UNL     1      -0.806  13.696  22.602  0.00  0.00    +0.000 C 
ATOM     17  C   UNL     1      -1.517  12.432  22.084  0.00  0.00    +0.000 C 
ATOM     18  C   UNL     1      -1.970  12.695  20.646  0.00  0.00    +0.000 C 
ATOM     19  C   UNL     1      -0.778  13.002  19.734  0.00  0.00    +0.000 C 
ATOM     20  C   UNL     1       1.330  14.339  19.450  0.00  0.00    +0.000 A 
ATOM     21  C   UNL     1       2.396  13.497  19.181  0.00  0.00    +0.000 A 
ATOM     22  C   UNL     1       3.427  13.993  18.382  0.00  0.00    +0.000 A 
ATOM     23  C   UNL     1       3.342  15.299  17.899  0.00  0.00    +0.000 A 
ATOM     24  N   UNL     1       2.312  16.137  18.155  0.00  0.00    +0.000 NA
ATOM     25  C   UNL     1       1.344  15.608  18.929  0.00  0.00    +0.000 A 
ENDBRANCH   1  17
BRANCH   6  26
ATOM     26  C   UNL     1       2.504   6.899  19.228  0.00  0.00    +0.000 A 
ATOM     27  C   UNL     1       2.335   5.544  19.548  0.00  0.00    +0.000 A 
ATOM     28  C   UNL     1       2.914   4.554  18.754  0.00  0.00    +0.000 A 
ATOM     29  C   UNL     1       3.677   4.914  17.643  0.00  0.00    +0.000 A 
ATOM     30  C   UNL     1       3.873   6.255  17.333  0.00  0.00    +0.000 A 
ATOM     31  C   UNL     1       3.294   7.245  18.125  0.00  0.00    +0.000 A 
ENDBRANCH   6  26
TORSDOF 2
ENDMDL
MODEL 7
REMARK VINA RESULT:      -7.8      7.455     10.167
REMARK  Name = 
REMARK  2 active torsions:
REMARK  status: ('A' for Active; 'I' for Inactive)
REMARK    1  A    between atoms: C_7  and  C_8
REMARK    2  A    between atoms: C_13  and  C_14
REMARK                            x       y       z     vdW  Elec       q    Type
REMARK                         _______ _______ _______ _____ _____    ______ ____
ROOT
ATOM      1  C   UNL     1       1.289  11.428  19.644  0.00  0.00    +0.000 C 
ATOM      2  O   UNL     1       1.657  11.892  18.570  0.00  0.00    +0.000 OA
ATOM      3  N   UNL     1       1.328  10.095  20.001  0.00  0.00    +0.000 N 
ATOM      4  C   UNL     1       1.776   9.109  19.137  0.00  0.00    +0.000 A 
ATOM      5  C   UNL     1       1.834   7.728  19.424  0.00  0.00    +0.000 A 
ATOM      6  C   UNL     1       2.389   7.138  18.304  0.00  0.00    +0.000 A 
ATOM      7  N   UNL     1       2.622   8.179  17.448  0.00  0.00    +0.000 N 
ATOM      8  N   UNL     1       2.218   9.358  17.907  0.00  0.00    +0.000 NA
ATOM      9  H   UNL     1       1.033   9.794  20.919  0.00  0.00    +0.000 HD
ATOM     10  H   UNL     1       3.078   8.161  16.541  0.00  0.00    +0.000 HD
ENDROOT
BRANCH   1  17
ATOM     11  O   UNL     1      -5.000  14.105  21.044  0.00  0.00    +0.000 OA
ATOM     12  C   UNL     1      -4.209  13.366  20.491  0.00  0.00    +0.000 C 
ATOM     13  O   UNL     1      -2.901  13.188  20.866  0.00  0.00    +0.000 OA
ATOM     14  C   UNL     1      -2.172  12.346  19.935  0.00  0.00    +0.000 C 
ATOM     15  C   UNL     1      -1.159  13.248  19.217  0.00  0.00    +0.000 C 
ATOM     16  C   UNL     1       0.045  13.598  20.104  0.00  0.00    +0.000 C 
ATOM     17  C   UNL     1       0.705  12.351  20.721  0.00  0.00    +0.000 C 
ATOM     18  C   UNL     1      -0.341  11.631  21.576  0.00  0.00    +0.000 C 
ATOM     19  C   UNL     1      -1.542  11.191  20.733  0.00  0.00    +0.000 C 
ATOM     20  C   UNL     1      -3.237  11.881  19.012  0.00  0.00    +0.000 A 
ATOM     21  C   UNL     1      -3.210  11.007  17.939  0.00  0.00    +0.000 A 
ATOM     22  C   UNL     1      -4.403  10.791  17.248  0.00  0.00    +0.000 A 
ATOM     23  C   UNL     1      -5.555  11.461  17.661  0.00  0.00    +0.000 A 
ATOM     24  N   UNL     1      -5.600  12.322  18.704  0.00  0.00    +0.000 NA
ATOM     25  C   UNL     1      -4.423  12.491  19.335  0.00  0.00    +0.000 A 
ENDBRANCH   1  17
BRANCH   6  26
ATOM     26  C   UNL     1       2.787   5.776  18.006  0.00  0.00    +0.000 A 
ATOM     27  C   UNL     1       1.894   4.708  18.176  0.00  0.00    +0.000 A 
ATOM     28  C   UNL     1       2.264   3.414  17.810  0.00  0.00    +0.000 A 
ATOM     29  C   UNL     1       3.534   3.178  17.284  0.00  0.00    +0.000 A 
ATOM     30  C   UNL     1       4.436   4.225  17.137  0.00  0.00    +0.000 A 
ATOM     31  C   UNL     1       4.067   5.519  17.501  0.00  0.00    +0.000 A 
ENDBRANCH   6  26
TORSDOF 2
ENDMDL
MODEL 8
REMARK VINA RESULT:      -7.7      8.057     10.933
REMARK  Name = 
REMARK  2 active torsions:
REMARK  status: ('A' for Active; 'I' for Inactive)
REMARK    1  A    between atoms: C_7  and  C_8
REMARK    2  A    between atoms: C_13  and  C_14
REMARK                            x       y       z     vdW  Elec       q    Type
REMARK                         _______ _______ _______ _____ _____    ______ ____
ROOT
ATOM      1  C   UNL     1       0.850  11.352  20.332  0.00  0.00    +0.000 C 
ATOM      2  O   UNL     1       0.884  11.300  21.557  0.00  0.00    +0.000 OA
ATOM      3  N   UNL     1       1.086  10.295  19.475  0.00  0.00    +0.000 N 
ATOM      4  C   UNL     1       1.425   9.032  19.932  0.00  0.00    +0.000 A 
ATOM      5  C   UNL     1       1.691   7.908  19.120  0.00  0.00    +0.000 A 
ATOM      6  C   UNL     1       1.931   6.866  19.995  0.00  0.00    +0.000 A 
ATOM      7  N   UNL     1       1.791   7.421  21.237  0.00  0.00    +0.000 N 
ATOM      8  N   UNL     1       1.538   8.725  21.221  0.00  0.00    +0.000 NA
ATOM      9  H   UNL     1       1.009  10.410  18.475  0.00  0.00    +0.000 HD
ATOM     10  H   UNL     1       1.831   6.962  22.142  0.00  0.00    +0.000 HD
ENDROOT
BRANCH   1  17
ATOM     11  O   UNL     1      -4.073  16.269  20.846  0.00  0.00    +0.000 OA
ATOM     12  C   UNL     1      -3.448  15.288  21.196  0.00  0.00    +0.000 C 
ATOM     13  O   UNL     1      -2.266  14.865  20.640  0.00  0.00    +0.000 OA
ATOM     14  C   UNL     1      -1.829  13.590  21.179  0.00  0.00    +0.000 C 
ATOM     15  C   UNL     1      -1.971  12.557  20.054  0.00  0.00    +0.000 C 
ATOM     16  C   UNL     1      -0.861  12.682  19.001  0.00  0.00    +0.000 C 
ATOM     17  C   UNL     1       0.547  12.679  19.625  0.00  0.00    +0.000 C 
ATOM     18  C   UNL     1       0.646  13.866  20.585  0.00  0.00    +0.000 C 
ATOM     19  C   UNL     1      -0.393  13.765  21.705  0.00  0.00    +0.000 C 
ATOM     20  C   UNL     1      -2.805  13.346  22.270  0.00  0.00    +0.000 A 
ATOM     21  C   UNL     1      -2.906  12.330  23.206  0.00  0.00    +0.000 A 
ATOM     22  C   UNL     1      -3.975  12.379  24.102  0.00  0.00    +0.000 A 
ATOM     23  C   UNL     1      -4.885  13.432  24.013  0.00  0.00    +0.000 A 
ATOM     24  N   UNL     1      -4.806  14.430  23.104  0.00  0.00    +0.000 NA
ATOM     25  C   UNL     1      -3.756  14.335  22.266  0.00  0.00    +0.000 A 
ENDBRANCH   1  17
BRANCH   6  26
ATOM     26  C   UNL     1       2.175   5.450  19.794  0.00  0.00    +0.000 A 
ATOM     27  C   UNL     1       2.172   4.555  20.875  0.00  0.00    +0.000 A 
ATOM     28  C   UNL     1       2.328   3.186  20.657  0.00  0.00    +0.000 A 
ATOM     29  C   UNL     1       2.501   2.705  19.360  0.00  0.00    +0.000 A 
ATOM     30  C   UNL     1       2.533   3.586  18.285  0.00  0.00    +0.000 A 
ATOM     31  C   UNL     1       2.376   4.955  18.500  0.00  0.00    +0.000 A 
ENDBRANCH   6  26
TORSDOF 2
ENDMDL
MODEL 9
REMARK VINA RESULT:      -7.7      6.988     10.231
REMARK  Name = 
REMARK  2 active torsions:
REMARK  status: ('A' for Active; 'I' for Inactive)
REMARK    1  A    between atoms: C_7  and  C_8
REMARK    2  A    between atoms: C_13  and  C_14
REMARK                            x       y       z     vdW  Elec       q    Type
REMARK                         _______ _______ _______ _____ _____    ______ ____
ROOT
ATOM      1  C   UNL     1      -0.447  10.642  19.793  0.00  0.00    +0.000 C 
ATOM      2  O   UNL     1      -0.380  10.211  20.940  0.00  0.00    +0.000 OA
ATOM      3  N   UNL     1       0.258  10.157  18.709  0.00  0.00    +0.000 N 
ATOM      4  C   UNL     1       1.165   9.116  18.819  0.00  0.00    +0.000 A 
ATOM      5  C   UNL     1       1.928   8.575  17.763  0.00  0.00    +0.000 A 
ATOM      6  C   UNL     1       2.647   7.534  18.319  0.00  0.00    +0.000 A 
ATOM      7  N   UNL     1       2.272   7.521  19.634  0.00  0.00    +0.000 N 
ATOM      8  N   UNL     1       1.425   8.489  19.963  0.00  0.00    +0.000 NA
ATOM      9  H   UNL     1       0.124  10.547  17.787  0.00  0.00    +0.000 HD
ATOM     10  H   UNL     1       2.536   6.861  20.359  0.00  0.00    +0.000 HD
ENDROOT
BRANCH   1  17
ATOM     11  O   UNL     1       0.136  17.587  20.109  0.00  0.00    +0.000 OA
ATOM     12  C   UNL     1       0.537  16.441  20.129  0.00  0.00    +0.000 C 
ATOM     13  O   UNL     1      -0.196  15.341  19.759  0.00  0.00    +0.000 OA
ATOM     14  C   UNL     1       0.508  14.098  20.017  0.00  0.00    +0.000 C 
ATOM     15  C   UNL     1      -0.235  13.394  21.160  0.00  0.00    +0.000 C 
ATOM     16  C   UNL     1      -1.549  12.749  20.695  0.00  0.00    +0.000 C 
ATOM     17  C   UNL     1      -1.356  11.835  19.470  0.00  0.00    +0.000 C 
ATOM     18  C   UNL     1      -0.793  12.681  18.327  0.00  0.00    +0.000 C 
ATOM     19  C   UNL     1       0.557  13.298  18.703  0.00  0.00    +0.000 C 
ATOM     20  C   UNL     1       1.850  14.565  20.445  0.00  0.00    +0.000 A 
ATOM     21  C   UNL     1       3.003  13.875  20.779  0.00  0.00    +0.000 A 
ATOM     22  C   UNL     1       4.115  14.622  21.169  0.00  0.00    +0.000 A 
ATOM     23  C   UNL     1       4.016  16.014  21.209  0.00  0.00    +0.000 A 
ATOM     24  N   UNL     1       2.898  16.704  20.892  0.00  0.00    +0.000 NA
ATOM     25  C   UNL     1       1.856  15.935  20.521  0.00  0.00    +0.000 A 
ENDBRANCH   1  17
BRANCH   6  26
ATOM     26  C   UNL     1       3.537   6.540  17.749  0.00  0.00    +0.000 A 
ATOM     27  C   UNL     1       4.571   6.911  16.877  0.00  0.00    +0.000 A 
ATOM     28  C   UNL     1       5.469   5.955  16.400  0.00  0.00    +0.000 A 
ATOM     29  C   UNL     1       5.330   4.621  16.783  0.00  0.00    +0.000 A 
ATOM     30  C   UNL     1       4.293   4.239  17.626  0.00  0.00    +0.000 A 
ATOM     31  C   UNL     1       3.396   5.193  18.104  0.00  0.00    +0.000 A 
ENDBRANCH   6  26
TORSDOF 2
ENDMDL
