MODEL 1
REMARK VINA RESULT:      -7.7      0.000      0.000
REMARK  Name = 
REMARK  12 active torsions:
REMARK  status: ('A' for Active; 'I' for Inactive)
REMARK    1  A    between atoms: C_1  and  O_2
REMARK    2  A    between atoms: O_2  and  C_3
REMARK    3  A    between atoms: C_3  and  C_5
REMARK    4  A    between atoms: C_6  and  O_7
REMARK    5  A    between atoms: C_9  and  O_10
REMARK    6  A    between atoms: C_13  and  C_14
REMARK    7  A    between atoms: C_14  and  C_15
REMARK    8  A    between atoms: C_15  and  C_16
REMARK    9  A    between atoms: N_20  and  C_21
REMARK   10  A    between atoms: C_21  and  C_22
REMARK   11  A    between atoms: C_27  and  O_28
REMARK   12  A    between atoms: O_28  and  C_29
REMARK                            x       y       z     vdW  Elec       q    Type
REMARK                         _______ _______ _______ _____ _____    ______ ____
ROOT
ATOM      1  C   UNL     1       4.300   3.740  17.239  0.00  0.00    +0.000 C 
ENDROOT
BRANCH   1   8
ATOM      2  C   UNL     1       6.017   5.622  16.778  0.00  0.00    +0.000 A 
ATOM      3  C   UNL     1       7.131   6.377  17.211  0.00  0.00    +0.000 A 
ATOM      4  C   UNL     1       7.658   6.238  18.492  0.00  0.00    +0.000 A 
ATOM      5  C   UNL     1       7.084   5.327  19.364  0.00  0.00    +0.000 A 
ATOM      6  C   UNL     1       5.999   4.532  18.958  0.00  0.00    +0.000 A 
ATOM      7 CL   UNL     1       5.359   3.388  20.103  0.00  0.00    +0.000 Cl
ATOM      8  C   UNL     1       5.443   4.657  17.656  0.00  0.00    +0.000 A 
BRANCH   2   9
ATOM      9  C   UNL     1       5.542   5.906  15.390  0.00  0.00    +0.000 C 
ATOM     10  O   UNL     1       5.039   6.981  15.090  0.00  0.00    +0.000 OA
BRANCH   9  12
ATOM     11  C   UNL     1       6.925   4.586  14.003  0.00  0.00    +0.000 C 
ATOM     12  O   UNL     1       5.641   4.832  14.582  0.00  0.00    +0.000 OA
ENDBRANCH   9  12
ENDBRANCH   2   9
BRANCH   3  13
ATOM     13  O   UNL     1       7.780   7.303  16.431  0.00  0.00    +0.000 OA
ATOM     14  H   UNL     1       8.469   6.850  15.895  0.00  0.00    +0.000 HD
ENDBRANCH   3  13
BRANCH   5  15
ATOM     15  O   UNL     1       7.590   5.207  20.631  0.00  0.00    +0.000 OA
ATOM     16  H   UNL     1       8.425   4.710  20.602  0.00  0.00    +0.000 HD
ENDBRANCH   5  15
ENDBRANCH   1   8
BRANCH   1  17
ATOM     17  C   UNL     1       2.925   4.437  17.146  0.00  0.00    +0.000 C 
BRANCH  17  18
ATOM     18  C   UNL     1       2.060   4.093  18.324  0.00  0.00    +0.000 A 
ATOM     19  N   UNL     1       1.186   3.102  18.356  0.00  0.00    +0.000 NA
ATOM     20  C   UNL     1       0.596   3.145  19.588  0.00  0.00    +0.000 A 
ATOM     21  C   UNL     1       1.112   4.174  20.332  0.00  0.00    +0.000 A 
ATOM     22  N   UNL     1       2.034   4.785  19.520  0.00  0.00    +0.000 N 
BRANCH  22  23
ATOM     23  C   UNL     1       2.830   5.955  19.908  0.00  0.00    +0.000 C 
BRANCH  23  24
ATOM     24  C   UNL     1       2.287   7.293  19.442  0.00  0.00    +0.000 A 
ATOM     25  C   UNL     1       2.539   7.722  18.114  0.00  0.00    +0.000 A 
ATOM     26  C   UNL     1       2.047   8.924  17.602  0.00  0.00    +0.000 A 
ATOM     27  C   UNL     1       1.288   9.750  18.409  0.00  0.00    +0.000 A 
ATOM     28  C   UNL     1       1.041   9.368  19.722  0.00  0.00    +0.000 A 
ATOM     29  C   UNL     1       1.526   8.156  20.259  0.00  0.00    +0.000 A 
BRANCH  29  30
ATOM     30  O   UNL     1       1.134   8.048  21.561  0.00  0.00    +0.000 OA
ATOM     31  C   UNL     1       1.024   9.151  22.434  0.00  0.00    +0.000 C 
ENDBRANCH  29  30
ENDBRANCH  23  24
ENDBRANCH  22  23
ENDBRANCH  17  18
ENDBRANCH   1  17
TORSDOF 10
ENDMDL
MODEL 2
REMARK VINA RESULT:      -7.0      3.058      4.838
REMARK  Name = 
REMARK  12 active torsions:
REMARK  status: ('A' for Active; 'I' for Inactive)
REMARK    1  A    between atoms: C_1  and  O_2
REMARK    2  A    between atoms: O_2  and  C_3
REMARK    3  A    between atoms: C_3  and  C_5
REMARK    4  A    between atoms: C_6  and  O_7
REMARK    5  A    between atoms: C_9  and  O_10
REMARK    6  A    between atoms: C_13  and  C_14
REMARK    7  A    between atoms: C_14  and  C_15
REMARK    8  A    between atoms: C_15  and  C_16
REMARK    9  A    between atoms: N_20  and  C_21
REMARK   10  A    between atoms: C_21  and  C_22
REMARK   11  A    between atoms: C_27  and  O_28
REMARK   12  A    between atoms: O_28  and  C_29
REMARK                            x       y       z     vdW  Elec       q    Type
REMARK                         _______ _______ _______ _____ _____    ______ ____
ROOT
ATOM      1  C   UNL     1       2.834   6.264  19.981  0.00  0.00    +0.000 C 
ENDROOT
BRANCH   1   8
ATOM      2  C   UNL     1       4.146   4.854  18.251  0.00  0.00    +0.000 A 
ATOM      3  C   UNL     1       4.226   3.696  17.443  0.00  0.00    +0.000 A 
ATOM      4  C   UNL     1       3.281   2.679  17.526  0.00  0.00    +0.000 A 
ATOM      5  C   UNL     1       2.225   2.806  18.414  0.00  0.00    +0.000 A 
ATOM      6  C   UNL     1       2.092   3.958  19.207  0.00  0.00    +0.000 A 
ATOM      7 CL   UNL     1       0.718   4.053  20.272  0.00  0.00    +0.000 Cl
ATOM      8  C   UNL     1       3.044   5.010  19.142  0.00  0.00    +0.000 A 
BRANCH   2   9
ATOM      9  C   UNL     1       5.252   5.844  18.076  0.00  0.00    +0.000 C 
ATOM     10  O   UNL     1       5.216   6.701  17.202  0.00  0.00    +0.000 OA
BRANCH   9  12
ATOM     11  C   UNL     1       7.580   5.510  18.293  0.00  0.00    +0.000 C 
ATOM     12  O   UNL     1       6.290   5.607  18.902  0.00  0.00    +0.000 OA
ENDBRANCH   9  12
ENDBRANCH   2   9
BRANCH   3  13
ATOM     13  O   UNL     1       5.224   3.468  16.528  0.00  0.00    +0.000 OA
ATOM     14  H   UNL     1       4.959   2.727  15.937  0.00  0.00    +0.000 HD
ENDBRANCH   3  13
BRANCH   5  15
ATOM     15  O   UNL     1       1.308   1.793  18.510  0.00  0.00    +0.000 OA
ATOM     16  H   UNL     1       1.541   1.083  17.888  0.00  0.00    +0.000 HD
ENDBRANCH   5  15
ENDBRANCH   1   8
BRANCH   1  17
ATOM     17  C   UNL     1       2.075   7.396  19.256  0.00  0.00    +0.000 C 
BRANCH  17  18
ATOM     18  C   UNL     1       1.493   8.376  20.235  0.00  0.00    +0.000 A 
ATOM     19  N   UNL     1       1.446   8.198  21.543  0.00  0.00    +0.000 NA
ATOM     20  C   UNL     1       0.826   9.299  22.063  0.00  0.00    +0.000 A 
ATOM     21  C   UNL     1       0.484  10.174  21.064  0.00  0.00    +0.000 A 
ATOM     22  N   UNL     1       0.898   9.577  19.899  0.00  0.00    +0.000 N 
BRANCH  22  23
ATOM     23  C   UNL     1       0.724  10.161  18.565  0.00  0.00    +0.000 C 
BRANCH  23  24
ATOM     24  C   UNL     1      -0.704  10.508  18.189  0.00  0.00    +0.000 A 
ATOM     25  C   UNL     1      -1.458   9.597  17.405  0.00  0.00    +0.000 A 
ATOM     26  C   UNL     1      -2.787   9.830  17.046  0.00  0.00    +0.000 A 
ATOM     27  C   UNL     1      -3.411  10.993  17.453  0.00  0.00    +0.000 A 
ATOM     28  C   UNL     1      -2.693  11.916  18.205  0.00  0.00    +0.000 A 
ATOM     29  C   UNL     1      -1.350  11.699  18.581  0.00  0.00    +0.000 A 
BRANCH  29  30
ATOM     30  O   UNL     1      -0.905  12.766  19.306  0.00  0.00    +0.000 OA
ATOM     31  C   UNL     1       0.112  13.638  18.863  0.00  0.00    +0.000 C 
ENDBRANCH  29  30
ENDBRANCH  23  24
ENDBRANCH  22  23
ENDBRANCH  17  18
ENDBRANCH   1  17
TORSDOF 10
ENDMDL
MODEL 3
REMARK VINA RESULT:      -6.9      3.081      4.328
REMARK  Name = 
REMARK  12 active torsions:
REMARK  status: ('A' for Active; 'I' for Inactive)
REMARK    1  A    between atoms: C_1  and  O_2
REMARK    2  A    between atoms: O_2  and  C_3
REMARK    3  A    between atoms: C_3  and  C_5
REMARK    4  A    between atoms: C_6  and  O_7
REMARK    5  A    between atoms: C_9  and  O_10
REMARK    6  A    between atoms: C_13  and  C_14
REMARK    7  A    between atoms: C_14  and  C_15
REMARK    8  A    between atoms: C_15  and  C_16
REMARK    9  A    between atoms: N_20  and  C_21
REMARK   10  A    between atoms: C_21  and  C_22
REMARK   11  A    between atoms: C_27  and  O_28
REMARK   12  A    between atoms: O_28  and  C_29
REMARK                            x       y       z     vdW  Elec       q    Type
REMARK                         _______ _______ _______ _____ _____    ______ ____
ROOT
ATOM      1  C   UNL     1       2.033   6.418  18.124  0.00  0.00    +0.000 C 
ENDROOT
BRANCH   1   8
ATOM      2  C   UNL     1       4.296   5.162  18.151  0.00  0.00    +0.000 A 
ATOM      3  C   UNL     1       5.082   4.093  18.640  0.00  0.00    +0.000 A 
ATOM      4  C   UNL     1       4.621   3.242  19.640  0.00  0.00    +0.000 A 
ATOM      5  C   UNL     1       3.353   3.439  20.164  0.00  0.00    +0.000 A 
ATOM      6  C   UNL     1       2.529   4.467  19.678  0.00  0.00    +0.000 A 
ATOM      7 CL   UNL     1       0.938   4.624  20.367  0.00  0.00    +0.000 Cl
ATOM      8  C   UNL     1       2.977   5.349  18.658  0.00  0.00    +0.000 A 
BRANCH   2   9
ATOM      9  C   UNL     1       4.938   6.011  17.102  0.00  0.00    +0.000 C 
ATOM     10  O   UNL     1       5.433   7.098  17.369  0.00  0.00    +0.000 OA
BRANCH   9  12
ATOM     11  C   UNL     1       6.013   5.330  15.111  0.00  0.00    +0.000 C 
ATOM     12  O   UNL     1       4.809   5.489  15.867  0.00  0.00    +0.000 OA
ENDBRANCH   9  12
ENDBRANCH   2   9
BRANCH   3  13
ATOM     13  O   UNL     1       6.347   3.803  18.191  0.00  0.00    +0.000 OA
ATOM     14  H   UNL     1       6.890   4.624  18.197  0.00  0.00    +0.000 HD
ENDBRANCH   3  13
BRANCH   5  15
ATOM     15  O   UNL     1       2.909   2.614  21.164  0.00  0.00    +0.000 OA
ATOM     16  H   UNL     1       3.597   1.961  21.376  0.00  0.00    +0.000 HD
ENDBRANCH   5  15
ENDBRANCH   1   8
BRANCH   1  17
ATOM     17  C   UNL     1       2.441   7.865  18.478  0.00  0.00    +0.000 C 
BRANCH  17  18
ATOM     18  C   UNL     1       1.669   8.375  19.660  0.00  0.00    +0.000 A 
ATOM     19  N   UNL     1       1.657   7.812  20.856  0.00  0.00    +0.000 NA
ATOM     20  C   UNL     1       0.822   8.564  21.632  0.00  0.00    +0.000 A 
ATOM     21  C   UNL     1       0.309   9.611  20.910  0.00  0.00    +0.000 A 
ATOM     22  N   UNL     1       0.839   9.480  19.651  0.00  0.00    +0.000 N 
BRANCH  22  23
ATOM     23  C   UNL     1       0.549  10.387  18.535  0.00  0.00    +0.000 C 
BRANCH  23  24
ATOM     24  C   UNL     1      -0.922  10.580  18.220  0.00  0.00    +0.000 A 
ATOM     25  C   UNL     1      -1.550   9.727  17.277  0.00  0.00    +0.000 A 
ATOM     26  C   UNL     1      -2.906   9.821  16.958  0.00  0.00    +0.000 A 
ATOM     27  C   UNL     1      -3.686  10.784  17.569  0.00  0.00    +0.000 A 
ATOM     28  C   UNL     1      -3.096  11.650  18.482  0.00  0.00    +0.000 A 
ATOM     29  C   UNL     1      -1.728  11.570  18.821  0.00  0.00    +0.000 A 
BRANCH  29  30
ATOM     30  O   UNL     1      -1.430  12.540  19.733  0.00  0.00    +0.000 OA
ATOM     31  C   UNL     1      -1.977  12.579  21.033  0.00  0.00    +0.000 C 
ENDBRANCH  29  30
ENDBRANCH  23  24
ENDBRANCH  22  23
ENDBRANCH  17  18
ENDBRANCH   1  17
TORSDOF 10
ENDMDL
MODEL 4
REMARK VINA RESULT:      -6.8      1.778      3.053
REMARK  Name = 
REMARK  12 active torsions:
REMARK  status: ('A' for Active; 'I' for Inactive)
REMARK    1  A    between atoms: C_1  and  O_2
REMARK    2  A    between atoms: O_2  and  C_3
REMARK    3  A    between atoms: C_3  and  C_5
REMARK    4  A    between atoms: C_6  and  O_7
REMARK    5  A    between atoms: C_9  and  O_10
REMARK    6  A    between atoms: C_13  and  C_14
REMARK    7  A    between atoms: C_14  and  C_15
REMARK    8  A    between atoms: C_15  and  C_16
REMARK    9  A    between atoms: N_20  and  C_21
REMARK   10  A    between atoms: C_21  and  C_22
REMARK   11  A    between atoms: C_27  and  O_28
REMARK   12  A    between atoms: O_28  and  C_29
REMARK                            x       y       z     vdW  Elec       q    Type
REMARK                         _______ _______ _______ _____ _____    ______ ____
ROOT
ATOM      1  C   UNL     1       3.579   3.706  16.833  0.00  0.00    +0.000 C 
ENDROOT
BRANCH   1   8
ATOM      2  C   UNL     1       5.841   4.288  17.947  0.00  0.00    +0.000 A 
ATOM      3  C   UNL     1       7.168   4.762  17.820  0.00  0.00    +0.000 A 
ATOM      4  C   UNL     1       7.732   5.034  16.577  0.00  0.00    +0.000 A 
ATOM      5  C   UNL     1       6.974   4.846  15.434  0.00  0.00    +0.000 A 
ATOM      6  C   UNL     1       5.641   4.410  15.522  0.00  0.00    +0.000 A 
ATOM      7 CL   UNL     1       4.746   4.232  14.039  0.00  0.00    +0.000 Cl
ATOM      8  C   UNL     1       5.042   4.126  16.779  0.00  0.00    +0.000 A 
BRANCH   2   9
ATOM      9  C   UNL     1       5.385   4.008  19.343  0.00  0.00    +0.000 C 
ATOM     10  O   UNL     1       5.274   4.900  20.174  0.00  0.00    +0.000 OA
BRANCH   9  12
ATOM     11  C   UNL     1       4.180   2.327  20.483  0.00  0.00    +0.000 C 
ATOM     12  O   UNL     1       5.225   2.691  19.577  0.00  0.00    +0.000 OA
ENDBRANCH   9  12
ENDBRANCH   2   9
BRANCH   3  13
ATOM     13  O   UNL     1       8.007   4.989  18.883  0.00  0.00    +0.000 OA
ATOM     14  H   UNL     1       7.943   5.933  19.152  0.00  0.00    +0.000 HD
ENDBRANCH   3  13
BRANCH   5  15
ATOM     15  O   UNL     1       7.538   5.092  14.210  0.00  0.00    +0.000 OA
ATOM     16  H   UNL     1       6.903   4.869  13.508  0.00  0.00    +0.000 HD
ENDBRANCH   5  15
ENDBRANCH   1   8
BRANCH   1  17
ATOM     17  C   UNL     1       2.608   4.830  17.255  0.00  0.00    +0.000 C 
BRANCH  17  18
ATOM     18  C   UNL     1       1.931   4.505  18.556  0.00  0.00    +0.000 A 
ATOM     19  N   UNL     1       1.152   3.457  18.761  0.00  0.00    +0.000 NA
ATOM     20  C   UNL     1       0.723   3.540  20.056  0.00  0.00    +0.000 A 
ATOM     21  C   UNL     1       1.245   4.652  20.665  0.00  0.00    +0.000 A 
ATOM     22  N   UNL     1       2.003   5.272  19.703  0.00  0.00    +0.000 N 
BRANCH  22  23
ATOM     23  C   UNL     1       2.745   6.521  19.913  0.00  0.00    +0.000 C 
BRANCH  23  24
ATOM     24  C   UNL     1       2.011   7.787  19.515  0.00  0.00    +0.000 A 
ATOM     25  C   UNL     1       2.165   8.296  18.200  0.00  0.00    +0.000 A 
ATOM     26  C   UNL     1       1.499   9.436  17.748  0.00  0.00    +0.000 A 
ATOM     27  C   UNL     1       0.656  10.119  18.604  0.00  0.00    +0.000 A 
ATOM     28  C   UNL     1       0.499   9.658  19.906  0.00  0.00    +0.000 A 
ATOM     29  C   UNL     1       1.161   8.506  20.382  0.00  0.00    +0.000 A 
BRANCH  29  30
ATOM     30  O   UNL     1       0.823   8.295  21.687  0.00  0.00    +0.000 OA
ATOM     31  C   UNL     1       0.736   9.329  22.644  0.00  0.00    +0.000 C 
ENDBRANCH  29  30
ENDBRANCH  23  24
ENDBRANCH  22  23
ENDBRANCH  17  18
ENDBRANCH   1  17
TORSDOF 10
ENDMDL
MODEL 5
REMARK VINA RESULT:      -6.8      3.169      4.992
REMARK  Name = 
REMARK  12 active torsions:
REMARK  status: ('A' for Active; 'I' for Inactive)
REMARK    1  A    between atoms: C_1  and  O_2
REMARK    2  A    between atoms: O_2  and  C_3
REMARK    3  A    between atoms: C_3  and  C_5
REMARK    4  A    between atoms: C_6  and  O_7
REMARK    5  A    between atoms: C_9  and  O_10
REMARK    6  A    between atoms: C_13  and  C_14
REMARK    7  A    between atoms: C_14  and  C_15
REMARK    8  A    between atoms: C_15  and  C_16
REMARK    9  A    between atoms: N_20  and  C_21
REMARK   10  A    between atoms: C_21  and  C_22
REMARK   11  A    between atoms: C_27  and  O_28
REMARK   12  A    between atoms: O_28  and  C_29
REMARK                            x       y       z     vdW  Elec       q    Type
REMARK                         _______ _______ _______ _____ _____    ______ ____
ROOT
ATOM      1  C   UNL     1       2.272   6.472  17.685  0.00  0.00    +0.000 C 
ENDROOT
BRANCH   1   8
ATOM      2  C   UNL     1       3.597   4.508  18.727  0.00  0.00    +0.000 A 
ATOM      3  C   UNL     1       4.820   3.813  18.870  0.00  0.00    +0.000 A 
ATOM      4  C   UNL     1       5.947   4.153  18.127  0.00  0.00    +0.000 A 
ATOM      5  C   UNL     1       5.873   5.206  17.231  0.00  0.00    +0.000 A 
ATOM      6  C   UNL     1       4.686   5.943  17.087  0.00  0.00    +0.000 A 
ATOM      7 CL   UNL     1       4.688   7.274  15.964  0.00  0.00    +0.000 Cl
ATOM      8  C   UNL     1       3.522   5.615  17.833  0.00  0.00    +0.000 A 
BRANCH   2   9
ATOM      9  C   UNL     1       2.465   4.006  19.566  0.00  0.00    +0.000 C 
ATOM     10  O   UNL     1       1.463   3.514  19.065  0.00  0.00    +0.000 OA
BRANCH   9  12
ATOM     11  C   UNL     1       2.099   3.303  21.791  0.00  0.00    +0.000 C 
ATOM     12  O   UNL     1       2.647   4.257  20.877  0.00  0.00    +0.000 OA
ENDBRANCH   9  12
ENDBRANCH   2   9
BRANCH   3  13
ATOM     13  O   UNL     1       5.007   2.758  19.730  0.00  0.00    +0.000 OA
ATOM     14  H   UNL     1       5.524   3.063  20.510  0.00  0.00    +0.000 HD
ENDBRANCH   3  13
BRANCH   5  15
ATOM     15  O   UNL     1       6.977   5.526  16.484  0.00  0.00    +0.000 OA
ATOM     16  H   UNL     1       6.711   6.083  15.733  0.00  0.00    +0.000 HD
ENDBRANCH   5  15
ENDBRANCH   1   8
BRANCH   1  17
ATOM     17  C   UNL     1       2.469   7.958  18.055  0.00  0.00    +0.000 C 
BRANCH  17  18
ATOM     18  C   UNL     1       1.782   8.293  19.349  0.00  0.00    +0.000 A 
ATOM     19  N   UNL     1       1.828   7.552  20.442  0.00  0.00    +0.000 NA
ATOM     20  C   UNL     1       1.061   8.190  21.376  0.00  0.00    +0.000 A 
ATOM     21  C   UNL     1       0.533   9.344  20.857  0.00  0.00    +0.000 A 
ATOM     22  N   UNL     1       0.983   9.400  19.561  0.00  0.00    +0.000 N 
BRANCH  22  23
ATOM     23  C   UNL     1       0.652  10.473  18.617  0.00  0.00    +0.000 C 
BRANCH  23  24
ATOM     24  C   UNL     1      -0.826  10.646  18.324  0.00  0.00    +0.000 A 
ATOM     25  C   UNL     1      -1.450   9.800  17.371  0.00  0.00    +0.000 A 
ATOM     26  C   UNL     1      -2.811   9.875  17.070  0.00  0.00    +0.000 A 
ATOM     27  C   UNL     1      -3.600  10.812  17.708  0.00  0.00    +0.000 A 
ATOM     28  C   UNL     1      -3.015  11.671  18.631  0.00  0.00    +0.000 A 
ATOM     29  C   UNL     1      -1.642  11.610  18.952  0.00  0.00    +0.000 A 
BRANCH  29  30
ATOM     30  O   UNL     1      -1.351  12.567  19.879  0.00  0.00    +0.000 OA
ATOM     31  C   UNL     1      -0.773  13.813  19.555  0.00  0.00    +0.000 C 
ENDBRANCH  29  30
ENDBRANCH  23  24
ENDBRANCH  22  23
ENDBRANCH  17  18
ENDBRANCH   1  17
TORSDOF 10
ENDMDL
MODEL 6
REMARK VINA RESULT:      -6.8      3.513      5.162
REMARK  Name = 
REMARK  12 active torsions:
REMARK  status: ('A' for Active; 'I' for Inactive)
REMARK    1  A    between atoms: C_1  and  O_2
REMARK    2  A    between atoms: O_2  and  C_3
REMARK    3  A    between atoms: C_3  and  C_5
REMARK    4  A    between atoms: C_6  and  O_7
REMARK    5  A    between atoms: C_9  and  O_10
REMARK    6  A    between atoms: C_13  and  C_14
REMARK    7  A    between atoms: C_14  and  C_15
REMARK    8  A    between atoms: C_15  and  C_16
REMARK    9  A    between atoms: N_20  and  C_21
REMARK   10  A    between atoms: C_21  and  C_22
REMARK   11  A    between atoms: C_27  and  O_28
REMARK   12  A    between atoms: O_28  and  C_29
REMARK                            x       y       z     vdW  Elec       q    Type
REMARK                         _______ _______ _______ _____ _____    ______ ____
ROOT
ATOM      1  C   UNL     1       2.747   7.404  18.721  0.00  0.00    +0.000 C 
ENDROOT
BRANCH   1   8
ATOM      2  C   UNL     1       4.110   5.736  17.286  0.00  0.00    +0.000 A 
ATOM      3  C   UNL     1       4.332   4.407  16.857  0.00  0.00    +0.000 A 
ATOM      4  C   UNL     1       3.630   3.335  17.401  0.00  0.00    +0.000 A 
ATOM      5  C   UNL     1       2.681   3.575  18.381  0.00  0.00    +0.000 A 
ATOM      6  C   UNL     1       2.407   4.886  18.808  0.00  0.00    +0.000 A 
ATOM      7 CL   UNL     1       1.176   5.104  20.019  0.00  0.00    +0.000 Cl
ATOM      8  C   UNL     1       3.111   5.996  18.268  0.00  0.00    +0.000 A 
BRANCH   2   9
ATOM      9  C   UNL     1       4.963   6.777  16.636  0.00  0.00    +0.000 C 
ATOM     10  O   UNL     1       4.869   7.031  15.442  0.00  0.00    +0.000 OA
BRANCH   9  12
ATOM     11  C   UNL     1       7.226   6.849  17.310  0.00  0.00    +0.000 C 
ATOM     12  O   UNL     1       5.877   7.294  17.479  0.00  0.00    +0.000 OA
ENDBRANCH   9  12
ENDBRANCH   2   9
BRANCH   3  13
ATOM     13  O   UNL     1       5.242   4.054  15.891  0.00  0.00    +0.000 OA
ATOM     14  H   UNL     1       5.347   3.076  15.886  0.00  0.00    +0.000 HD
ENDBRANCH   3  13
BRANCH   5  15
ATOM     15  O   UNL     1       2.007   2.517  18.932  0.00  0.00    +0.000 OA
ATOM     16  H   UNL     1       1.170   2.383  18.457  0.00  0.00    +0.000 HD
ENDBRANCH   5  15
ENDBRANCH   1   8
BRANCH   1  17
ATOM     17  C   UNL     1       1.708   8.114  17.826  0.00  0.00    +0.000 C 
BRANCH  17  18
ATOM     18  C   UNL     1       1.750   9.603  18.019  0.00  0.00    +0.000 A 
ATOM     19  N   UNL     1       2.778  10.376  17.717  0.00  0.00    +0.000 NA
ATOM     20  C   UNL     1       2.423  11.648  18.063  0.00  0.00    +0.000 A 
ATOM     21  C   UNL     1       1.155  11.668  18.585  0.00  0.00    +0.000 A 
ATOM     22  N   UNL     1       0.734  10.361  18.569  0.00  0.00    +0.000 N 
BRANCH  22  23
ATOM     23  C   UNL     1      -0.576   9.910  19.051  0.00  0.00    +0.000 C 
BRANCH  23  24
ATOM     24  C   UNL     1      -1.764  10.361  18.223  0.00  0.00    +0.000 A 
ATOM     25  C   UNL     1      -1.979   9.786  16.944  0.00  0.00    +0.000 A 
ATOM     26  C   UNL     1      -3.066  10.124  16.137  0.00  0.00    +0.000 A 
ATOM     27  C   UNL     1      -3.978  11.063  16.578  0.00  0.00    +0.000 A 
ATOM     28  C   UNL     1      -3.784  11.662  17.818  0.00  0.00    +0.000 A 
ATOM     29  C   UNL     1      -2.693  11.332  18.651  0.00  0.00    +0.000 A 
BRANCH  29  30
ATOM     30  O   UNL     1      -2.757  12.072  19.795  0.00  0.00    +0.000 OA
ATOM     31  C   UNL     1      -3.874  12.858  20.152  0.00  0.00    +0.000 C 
ENDBRANCH  29  30
ENDBRANCH  23  24
ENDBRANCH  22  23
ENDBRANCH  17  18
ENDBRANCH   1  17
TORSDOF 10
ENDMDL
MODEL 7
REMARK VINA RESULT:      -6.8      3.026      4.730
REMARK  Name = 
REMARK  12 active torsions:
REMARK  status: ('A' for Active; 'I' for Inactive)
REMARK    1  A    between atoms: C_1  and  O_2
REMARK    2  A    between atoms: O_2  and  C_3
REMARK    3  A    between atoms: C_3  and  C_5
REMARK    4  A    between atoms: C_6  and  O_7
REMARK    5  A    between atoms: C_9  and  O_10
REMARK    6  A    between atoms: C_13  and  C_14
REMARK    7  A    between atoms: C_14  and  C_15
REMARK    8  A    between atoms: C_15  and  C_16
REMARK    9  A    between atoms: N_20  and  C_21
REMARK   10  A    between atoms: C_21  and  C_22
REMARK   11  A    between atoms: C_27  and  O_28
REMARK   12  A    between atoms: O_28  and  C_29
REMARK                            x       y       z     vdW  Elec       q    Type
REMARK                         _______ _______ _______ _____ _____    ______ ____
ROOT
ATOM      1  C   UNL     1       3.070   6.080  19.934  0.00  0.00    +0.000 C 
ENDROOT
BRANCH   1   8
ATOM      2  C   UNL     1       4.254   4.469  18.290  0.00  0.00    +0.000 A 
ATOM      3  C   UNL     1       4.222   3.280  17.525  0.00  0.00    +0.000 A 
ATOM      4  C   UNL     1       3.166   2.379  17.616  0.00  0.00    +0.000 A 
ATOM      5  C   UNL     1       2.111   2.657  18.470  0.00  0.00    +0.000 A 
ATOM      6  C   UNL     1       2.090   3.845  19.220  0.00  0.00    +0.000 A 
ATOM      7 CL   UNL     1       0.712   4.133  20.242  0.00  0.00    +0.000 Cl
ATOM      8  C   UNL     1       3.157   4.780  19.145  0.00  0.00    +0.000 A 
BRANCH   2   9
ATOM      9  C   UNL     1       5.469   5.322  18.112  0.00  0.00    +0.000 C 
ATOM     10  O   UNL     1       6.174   5.642  19.060  0.00  0.00    +0.000 OA
BRANCH   9  12
ATOM     11  C   UNL     1       4.792   6.857  16.450  0.00  0.00    +0.000 C 
ATOM     12  O   UNL     1       5.613   5.754  16.845  0.00  0.00    +0.000 OA
ENDBRANCH   9  12
ENDBRANCH   2   9
BRANCH   3  13
ATOM     13  O   UNL     1       5.209   2.908  16.645  0.00  0.00    +0.000 OA
ATOM     14  H   UNL     1       4.909   3.088  15.725  0.00  0.00    +0.000 HD
ENDBRANCH   3  13
BRANCH   5  15
ATOM     15  O   UNL     1       1.083   1.757  18.575  0.00  0.00    +0.000 OA
ATOM     16  H   UNL     1       1.401   0.871  18.336  0.00  0.00    +0.000 HD
ENDBRANCH   5  15
ENDBRANCH   1   8
BRANCH   1  17
ATOM     17  C   UNL     1       2.293   7.208  19.222  0.00  0.00    +0.000 C 
BRANCH  17  18
ATOM     18  C   UNL     1       1.658   8.141  20.213  0.00  0.00    +0.000 A 
ATOM     19  N   UNL     1       1.549   7.907  21.509  0.00  0.00    +0.000 NA
ATOM     20  C   UNL     1       0.897   8.981  22.045  0.00  0.00    +0.000 A 
ATOM     21  C   UNL     1       0.597   9.897  21.069  0.00  0.00    +0.000 A 
ATOM     22  N   UNL     1       1.071   9.353  19.901  0.00  0.00    +0.000 N 
BRANCH  22  23
ATOM     23  C   UNL     1       0.957   9.993  18.586  0.00  0.00    +0.000 C 
BRANCH  23  24
ATOM     24  C   UNL     1      -0.439  10.451  18.207  0.00  0.00    +0.000 A 
ATOM     25  C   UNL     1      -1.271   9.590  17.446  0.00  0.00    +0.000 A 
ATOM     26  C   UNL     1      -2.577   9.926  17.086  0.00  0.00    +0.000 A 
ATOM     27  C   UNL     1      -3.097  11.148  17.466  0.00  0.00    +0.000 A 
ATOM     28  C   UNL     1      -2.300  12.024  18.194  0.00  0.00    +0.000 A 
ATOM     29  C   UNL     1      -0.979  11.702  18.572  0.00  0.00    +0.000 A 
BRANCH  29  30
ATOM     30  O   UNL     1      -0.441  12.744  19.270  0.00  0.00    +0.000 OA
ATOM     31  C   UNL     1      -1.067  13.336  20.387  0.00  0.00    +0.000 C 
ENDBRANCH  29  30
ENDBRANCH  23  24
ENDBRANCH  22  23
ENDBRANCH  17  18
ENDBRANCH   1  17
TORSDOF 10
ENDMDL
MODEL 8
REMARK VINA RESULT:      -6.7      2.116      7.109
REMARK  Name = 
REMARK  12 active torsions:
REMARK  status: ('A' for Active; 'I' for Inactive)
REMARK    1  A    between atoms: C_1  and  O_2
REMARK    2  A    between atoms: O_2  and  C_3
REMARK    3  A    between atoms: C_3  and  C_5
REMARK    4  A    between atoms: C_6  and  O_7
REMARK    5  A    between atoms: C_9  and  O_10
REMARK    6  A    between atoms: C_13  and  C_14
REMARK    7  A    between atoms: C_14  and  C_15
REMARK    8  A    between atoms: C_15  and  C_16
REMARK    9  A    between atoms: N_20  and  C_21
REMARK   10  A    between atoms: C_21  and  C_22
REMARK   11  A    between atoms: C_27  and  O_28
REMARK   12  A    between atoms: O_28  and  C_29
REMARK                            x       y       z     vdW  Elec       q    Type
REMARK                         _______ _______ _______ _____ _____    ______ ____
ROOT
ATOM      1  C   UNL     1       2.044   6.928  20.498  0.00  0.00    +0.000 C 
ENDROOT
BRANCH   1   8
ATOM      2  C   UNL     1       0.600   9.075  20.529  0.00  0.00    +0.000 A 
ATOM      3  C   UNL     1       0.189  10.268  19.890  0.00  0.00    +0.000 A 
ATOM      4  C   UNL     1       0.774  10.703  18.705  0.00  0.00    +0.000 A 
ATOM      5  C   UNL     1       1.779   9.944  18.128  0.00  0.00    +0.000 A 
ATOM      6  C   UNL     1       2.189   8.735  18.714  0.00  0.00    +0.000 A 
ATOM      7 CL   UNL     1       3.434   7.824  17.907  0.00  0.00    +0.000 Cl
ATOM      8  C   UNL     1       1.607   8.270  19.924  0.00  0.00    +0.000 A 
BRANCH   2   9
ATOM      9  C   UNL     1      -0.097   8.755  21.813  0.00  0.00    +0.000 C 
ATOM     10  O   UNL     1      -0.959   7.889  21.877  0.00  0.00    +0.000 OA
BRANCH   9  12
ATOM     11  C   UNL     1      -0.788  10.344  23.419  0.00  0.00    +0.000 C 
ATOM     12  O   UNL     1       0.261   9.583  22.813  0.00  0.00    +0.000 OA
ENDBRANCH   9  12
ENDBRANCH   2   9
BRANCH   3  13
ATOM     13  O   UNL     1      -0.798  11.094  20.369  0.00  0.00    +0.000 OA
ATOM     14  H   UNL     1      -0.620  11.298  21.315  0.00  0.00    +0.000 HD
ENDBRANCH   3  13
BRANCH   5  15
ATOM     15  O   UNL     1       2.370  10.385  16.974  0.00  0.00    +0.000 OA
ATOM     16  H   UNL     1       2.292  11.353  16.918  0.00  0.00    +0.000 HD
ENDBRANCH   5  15
ENDBRANCH   1   8
BRANCH   1  17
ATOM     17  C   UNL     1       1.361   5.704  19.851  0.00  0.00    +0.000 C 
BRANCH  17  18
ATOM     18  C   UNL     1       2.025   4.424  20.271  0.00  0.00    +0.000 A 
ATOM     19  N   UNL     1       1.851   3.830  21.438  0.00  0.00    +0.000 NA
ATOM     20  C   UNL     1       2.644   2.718  21.431  0.00  0.00    +0.000 A 
ATOM     21  C   UNL     1       3.319   2.617  20.241  0.00  0.00    +0.000 A 
ATOM     22  N   UNL     1       2.933   3.713  19.509  0.00  0.00    +0.000 N 
BRANCH  22  23
ATOM     23  C   UNL     1       3.422   4.019  18.161  0.00  0.00    +0.000 C 
BRANCH  23  24
ATOM     24  C   UNL     1       4.853   4.517  18.086  0.00  0.00    +0.000 A 
ATOM     25  C   UNL     1       5.451   5.091  19.238  0.00  0.00    +0.000 A 
ATOM     26  C   UNL     1       6.771   5.543  19.259  0.00  0.00    +0.000 A 
ATOM     27  C   UNL     1       7.544   5.445  18.117  0.00  0.00    +0.000 A 
ATOM     28  C   UNL     1       6.981   4.907  16.966  0.00  0.00    +0.000 A 
ATOM     29  C   UNL     1       5.649   4.442  16.925  0.00  0.00    +0.000 A 
BRANCH  29  30
ATOM     30  O   UNL     1       5.372   3.973  15.674  0.00  0.00    +0.000 OA
ATOM     31  C   UNL     1       6.309   3.969  14.619  0.00  0.00    +0.000 C 
ENDBRANCH  29  30
ENDBRANCH  23  24
ENDBRANCH  22  23
ENDBRANCH  17  18
ENDBRANCH   1  17
TORSDOF 10
ENDMDL
MODEL 9
REMARK VINA RESULT:      -6.7      3.273      5.501
REMARK  Name = 
REMARK  12 active torsions:
REMARK  status: ('A' for Active; 'I' for Inactive)
REMARK    1  A    between atoms: C_1  and  O_2
REMARK    2  A    between atoms: O_2  and  C_3
REMARK    3  A    between atoms: C_3  and  C_5
REMARK    4  A    between atoms: C_6  and  O_7
REMARK    5  A    between atoms: C_9  and  O_10
REMARK    6  A    between atoms: C_13  and  C_14
REMARK    7  A    between atoms: C_14  and  C_15
REMARK    8  A    between atoms: C_15  and  C_16
REMARK    9  A    between atoms: N_20  and  C_21
REMARK   10  A    between atoms: C_21  and  C_22
REMARK   11  A    between atoms: C_27  and  O_28
REMARK   12  A    between atoms: O_28  and  C_29
REMARK                            x       y       z     vdW  Elec       q    Type
REMARK                         _______ _______ _______ _____ _____    ______ ____
ROOT
ATOM      1  C   UNL     1       3.022   6.667  19.496  0.00  0.00    +0.000 C 
ENDROOT
BRANCH   1   8
ATOM      2  C   UNL     1       2.623   4.198  18.828  0.00  0.00    +0.000 A 
ATOM      3  C   UNL     1       2.950   3.099  18.000  0.00  0.00    +0.000 A 
ATOM      4  C   UNL     1       3.836   3.223  16.934  0.00  0.00    +0.000 A 
ATOM      5  C   UNL     1       4.423   4.452  16.682  0.00  0.00    +0.000 A 
ATOM      6  C   UNL     1       4.151   5.559  17.505  0.00  0.00    +0.000 A 
ATOM      7 CL   UNL     1       4.957   7.058  17.140  0.00  0.00    +0.000 Cl
ATOM      8  C   UNL     1       3.249   5.457  18.598  0.00  0.00    +0.000 A 
BRANCH   2   9
ATOM      9  C   UNL     1       1.630   3.920  19.910  0.00  0.00    +0.000 C 
ATOM     10  O   UNL     1       0.440   3.770  19.668  0.00  0.00    +0.000 OA
BRANCH   9  12
ATOM     11  C   UNL     1       2.294   2.718  21.832  0.00  0.00    +0.000 C 
ATOM     12  O   UNL     1       2.182   3.964  21.138  0.00  0.00    +0.000 OA
ENDBRANCH   9  12
ENDBRANCH   2   9
BRANCH   3  13
ATOM     13  O   UNL     1       2.432   1.837  18.160  0.00  0.00    +0.000 OA
ATOM     14  H   UNL     1       1.561   1.899  18.615  0.00  0.00    +0.000 HD
ENDBRANCH   3  13
BRANCH   5  15
ATOM     15  O   UNL     1       5.278   4.579  15.619  0.00  0.00    +0.000 OA
ATOM     16  H   UNL     1       5.406   3.711  15.201  0.00  0.00    +0.000 HD
ENDBRANCH   5  15
ENDBRANCH   1   8
BRANCH   1  17
ATOM     17  C   UNL     1       1.907   7.619  19.013  0.00  0.00    +0.000 C 
BRANCH  17  18
ATOM     18  C   UNL     1       1.421   8.498  20.130  0.00  0.00    +0.000 A 
ATOM     19  N   UNL     1       1.450   8.178  21.411  0.00  0.00    +0.000 NA
ATOM     20  C   UNL     1       0.901   9.230  22.088  0.00  0.00    +0.000 A 
ATOM     21  C   UNL     1       0.526  10.219  21.215  0.00  0.00    +0.000 A 
ATOM     22  N   UNL     1       0.846   9.744  19.967  0.00  0.00    +0.000 N 
BRANCH  22  23
ATOM     23  C   UNL     1       0.606  10.477  18.719  0.00  0.00    +0.000 C 
BRANCH  23  24
ATOM     24  C   UNL     1      -0.851  10.648  18.336  0.00  0.00    +0.000 A 
ATOM     25  C   UNL     1      -1.440   9.743  17.415  0.00  0.00    +0.000 A 
ATOM     26  C   UNL     1      -2.781   9.814  17.038  0.00  0.00    +0.000 A 
ATOM     27  C   UNL     1      -3.586  10.807  17.563  0.00  0.00    +0.000 A 
ATOM     28  C   UNL     1      -3.035  11.723  18.451  0.00  0.00    +0.000 A 
ATOM     29  C   UNL     1      -1.682  11.666  18.848  0.00  0.00    +0.000 A 
BRANCH  29  30
ATOM     30  O   UNL     1      -1.422  12.685  19.718  0.00  0.00    +0.000 OA
ATOM     31  C   UNL     1      -2.420  13.338  20.472  0.00  0.00    +0.000 C 
ENDBRANCH  29  30
ENDBRANCH  23  24
ENDBRANCH  22  23
ENDBRANCH  17  18
ENDBRANCH   1  17
TORSDOF 10
ENDMDL
