MODEL 1
REMARK VINA RESULT:      -6.9      0.000      0.000
REMARK  Name = 
REMARK  3 active torsions:
REMARK  status: ('A' for Active; 'I' for Inactive)
REMARK    1  A    between atoms: C_1  and  C_2
REMARK    2  A    between atoms: N_11  and  C_12
REMARK    3  A    between atoms: C_12  and  C_13
REMARK                            x       y       z     vdW  Elec       q    Type
REMARK                         _______ _______ _______ _____ _____    ______ ____
ROOT
ATOM      1  C   UNL     1       7.874   5.162  12.763  0.00  0.00    +0.000 C 
ATOM      2  C   UNL     1       7.103   4.932  14.027  0.00  0.00    +0.000 A 
ATOM      3  C   UNL     1       5.909   4.224  14.018  0.00  0.00    +0.000 A 
ATOM      4  C   UNL     1       5.247   3.990  15.227  0.00  0.00    +0.000 A 
ATOM      5  C   UNL     1       5.774   4.459  16.431  0.00  0.00    +0.000 A 
ATOM      6  C   UNL     1       6.974   5.199  16.317  0.00  0.00    +0.000 A 
ATOM      7  N   UNL     1       7.638   5.430  15.161  0.00  0.00    +0.000 NA
ATOM      8  O   UNL     1       7.596   5.757  17.414  0.00  0.00    +0.000 OA
ATOM      9  C   UNL     1       6.695   5.919  18.513  0.00  0.00    +0.000 C 
ATOM     10  C   UNL     1       5.977   4.610  18.824  0.00  0.00    +0.000 C 
ATOM     11  N   UNL     1       5.198   4.169  17.667  0.00  0.00    +0.000 N 
ENDROOT
BRANCH  11  12
ATOM     12  C   UNL     1       3.764   3.915  17.845  0.00  0.00    +0.000 C 
BRANCH  12  13
ATOM     13  C   UNL     1       3.265   3.714  19.259  0.00  0.00    +0.000 A 
ATOM     14  N   UNL     1       3.308   2.570  19.922  0.00  0.00    +0.000 NA
ATOM     15  C   UNL     1       2.717   2.729  21.162  0.00  0.00    +0.000 A 
ATOM     16  C   UNL     1       2.214   3.984  21.428  0.00  0.00    +0.000 A 
ATOM     17  S   UNL     1       2.511   5.018  20.098  0.00  0.00    +0.000 S 
ENDBRANCH  12  13
ENDBRANCH  11  12
TORSDOF 2
ENDMDL
MODEL 2
REMARK VINA RESULT:      -6.8      1.031      1.082
REMARK  Name = 
REMARK  3 active torsions:
REMARK  status: ('A' for Active; 'I' for Inactive)
REMARK    1  A    between atoms: C_1  and  C_2
REMARK    2  A    between atoms: N_11  and  C_12
REMARK    3  A    between atoms: C_12  and  C_13
REMARK                            x       y       z     vdW  Elec       q    Type
REMARK                         _______ _______ _______ _____ _____    ______ ____
ROOT
ATOM      1  C   UNL     1       6.998   4.170  13.097  0.00  0.00    +0.000 C 
ATOM      2  C   UNL     1       6.479   4.432  14.478  0.00  0.00    +0.000 A 
ATOM      3  C   UNL     1       5.135   4.265  14.782  0.00  0.00    +0.000 A 
ATOM      4  C   UNL     1       4.703   4.472  16.094  0.00  0.00    +0.000 A 
ATOM      5  C   UNL     1       5.605   4.841  17.093  0.00  0.00    +0.000 A 
ATOM      6  C   UNL     1       6.941   5.018  16.664  0.00  0.00    +0.000 A 
ATOM      7  N   UNL     1       7.385   4.815  15.401  0.00  0.00    +0.000 NA
ATOM      8  O   UNL     1       7.940   5.417  17.527  0.00  0.00    +0.000 OA
ATOM      9  C   UNL     1       7.414   6.064  18.688  0.00  0.00    +0.000 C 
ATOM     10  C   UNL     1       6.345   5.203  19.353  0.00  0.00    +0.000 C 
ATOM     11  N   UNL     1       5.235   4.966  18.432  0.00  0.00    +0.000 N 
ENDROOT
BRANCH  11  12
ATOM     12  C   UNL     1       3.880   5.332  18.860  0.00  0.00    +0.000 C 
BRANCH  12  13
ATOM     13  C   UNL     1       3.027   4.241  19.468  0.00  0.00    +0.000 A 
ATOM     14  N   UNL     1       2.826   3.049  18.932  0.00  0.00    +0.000 NA
ATOM     15  C   UNL     1       1.951   2.325  19.722  0.00  0.00    +0.000 A 
ATOM     16  C   UNL     1       1.480   2.975  20.842  0.00  0.00    +0.000 A 
ATOM     17  S   UNL     1       2.171   4.537  20.936  0.00  0.00    +0.000 S 
ENDBRANCH  12  13
ENDBRANCH  11  12
TORSDOF 2
ENDMDL
MODEL 3
REMARK VINA RESULT:      -6.8      0.989      1.127
REMARK  Name = 
REMARK  3 active torsions:
REMARK  status: ('A' for Active; 'I' for Inactive)
REMARK    1  A    between atoms: C_1  and  C_2
REMARK    2  A    between atoms: N_11  and  C_12
REMARK    3  A    between atoms: C_12  and  C_13
REMARK                            x       y       z     vdW  Elec       q    Type
REMARK                         _______ _______ _______ _____ _____    ______ ____
ROOT
ATOM      1  C   UNL     1       7.934   5.232  12.688  0.00  0.00    +0.000 C 
ATOM      2  C   UNL     1       7.148   4.940  13.930  0.00  0.00    +0.000 A 
ATOM      3  C   UNL     1       6.011   4.145  13.889  0.00  0.00    +0.000 A 
ATOM      4  C   UNL     1       5.338   3.857  15.078  0.00  0.00    +0.000 A 
ATOM      5  C   UNL     1       5.796   4.358  16.298  0.00  0.00    +0.000 A 
ATOM      6  C   UNL     1       6.940   5.186  16.217  0.00  0.00    +0.000 A 
ATOM      7  N   UNL     1       7.615   5.472  15.079  0.00  0.00    +0.000 NA
ATOM      8  O   UNL     1       7.489   5.784  17.332  0.00  0.00    +0.000 OA
ATOM      9  C   UNL     1       6.550   5.873  18.407  0.00  0.00    +0.000 C 
ATOM     10  C   UNL     1       5.924   4.514  18.695  0.00  0.00    +0.000 C 
ATOM     11  N   UNL     1       5.211   4.021  17.517  0.00  0.00    +0.000 N 
ENDROOT
BRANCH  11  12
ATOM     12  C   UNL     1       3.796   3.660  17.656  0.00  0.00    +0.000 C 
BRANCH  12  13
ATOM     13  C   UNL     1       3.090   4.092  18.923  0.00  0.00    +0.000 A 
ATOM     14  N   UNL     1       2.621   5.307  19.151  0.00  0.00    +0.000 NA
ATOM     15  C   UNL     1       2.089   5.368  20.427  0.00  0.00    +0.000 A 
ATOM     16  C   UNL     1       2.172   4.208  21.165  0.00  0.00    +0.000 A 
ATOM     17  S   UNL     1       2.914   2.982  20.231  0.00  0.00    +0.000 S 
ENDBRANCH  12  13
ENDBRANCH  11  12
TORSDOF 2
ENDMDL
MODEL 4
REMARK VINA RESULT:      -6.7      1.181      1.272
REMARK  Name = 
REMARK  3 active torsions:
REMARK  status: ('A' for Active; 'I' for Inactive)
REMARK    1  A    between atoms: C_1  and  C_2
REMARK    2  A    between atoms: N_11  and  C_12
REMARK    3  A    between atoms: C_12  and  C_13
REMARK                            x       y       z     vdW  Elec       q    Type
REMARK                         _______ _______ _______ _____ _____    ______ ____
ROOT
ATOM      1  C   UNL     1       7.255   4.395  13.092  0.00  0.00    +0.000 C 
ATOM      2  C   UNL     1       6.655   4.604  14.448  0.00  0.00    +0.000 A 
ATOM      3  C   UNL     1       5.289   4.471  14.656  0.00  0.00    +0.000 A 
ATOM      4  C   UNL     1       4.778   4.626  15.947  0.00  0.00    +0.000 A 
ATOM      5  C   UNL     1       5.625   4.911  17.020  0.00  0.00    +0.000 A 
ATOM      6  C   UNL     1       6.991   5.061  16.688  0.00  0.00    +0.000 A 
ATOM      7  N   UNL     1       7.511   4.907  15.447  0.00  0.00    +0.000 NA
ATOM      8  O   UNL     1       7.943   5.378  17.633  0.00  0.00    +0.000 OA
ATOM      9  C   UNL     1       7.363   5.984  18.791  0.00  0.00    +0.000 C 
ATOM     10  C   UNL     1       6.225   5.130  19.339  0.00  0.00    +0.000 C 
ATOM     11  N   UNL     1       5.171   4.981  18.337  0.00  0.00    +0.000 N 
ENDROOT
BRANCH  11  12
ATOM     12  C   UNL     1       3.804   5.373  18.696  0.00  0.00    +0.000 C 
BRANCH  12  13
ATOM     13  C   UNL     1       3.036   4.450  19.615  0.00  0.00    +0.000 A 
ATOM     14  N   UNL     1       2.485   4.810  20.763  0.00  0.00    +0.000 NA
ATOM     15  C   UNL     1       1.913   3.707  21.370  0.00  0.00    +0.000 A 
ATOM     16  C   UNL     1       2.046   2.515  20.692  0.00  0.00    +0.000 A 
ATOM     17  S   UNL     1       2.890   2.776  19.227  0.00  0.00    +0.000 S 
ENDBRANCH  12  13
ENDBRANCH  11  12
TORSDOF 2
ENDMDL
MODEL 5
REMARK VINA RESULT:      -6.6      1.710      1.952
REMARK  Name = 
REMARK  3 active torsions:
REMARK  status: ('A' for Active; 'I' for Inactive)
REMARK    1  A    between atoms: C_1  and  C_2
REMARK    2  A    between atoms: N_11  and  C_12
REMARK    3  A    between atoms: C_12  and  C_13
REMARK                            x       y       z     vdW  Elec       q    Type
REMARK                         _______ _______ _______ _____ _____    ______ ____
ROOT
ATOM      1  C   UNL     1       7.126   4.387  12.304  0.00  0.00    +0.000 C 
ATOM      2  C   UNL     1       6.764   4.455  13.756  0.00  0.00    +0.000 A 
ATOM      3  C   UNL     1       5.849   3.569  14.309  0.00  0.00    +0.000 A 
ATOM      4  C   UNL     1       5.578   3.635  15.678  0.00  0.00    +0.000 A 
ATOM      5  C   UNL     1       6.214   4.578  16.487  0.00  0.00    +0.000 A 
ATOM      6  C   UNL     1       7.097   5.454  15.812  0.00  0.00    +0.000 A 
ATOM      7  N   UNL     1       7.383   5.403  14.490  0.00  0.00    +0.000 NA
ATOM      8  O   UNL     1       7.771   6.461  16.470  0.00  0.00    +0.000 OA
ATOM      9  C   UNL     1       7.140   6.808  17.705  0.00  0.00    +0.000 C 
ATOM     10  C   UNL     1       6.912   5.570  18.565  0.00  0.00    +0.000 C 
ATOM     11  N   UNL     1       6.044   4.620  17.870  0.00  0.00    +0.000 N 
ENDROOT
BRANCH  11  12
ATOM     12  C   UNL     1       4.821   4.168  18.543  0.00  0.00    +0.000 C 
BRANCH  12  13
ATOM     13  C   UNL     1       3.780   5.216  18.869  0.00  0.00    +0.000 A 
ATOM     14  N   UNL     1       3.581   6.326  18.178  0.00  0.00    +0.000 NA
ATOM     15  C   UNL     1       2.594   7.081  18.786  0.00  0.00    +0.000 A 
ATOM     16  C   UNL     1       2.062   6.551  19.941  0.00  0.00    +0.000 A 
ATOM     17  S   UNL     1       2.795   5.041  20.273  0.00  0.00    +0.000 S 
ENDBRANCH  12  13
ENDBRANCH  11  12
TORSDOF 2
ENDMDL
MODEL 6
REMARK VINA RESULT:      -6.5      1.345      1.570
REMARK  Name = 
REMARK  3 active torsions:
REMARK  status: ('A' for Active; 'I' for Inactive)
REMARK    1  A    between atoms: C_1  and  C_2
REMARK    2  A    between atoms: N_11  and  C_12
REMARK    3  A    between atoms: C_12  and  C_13
REMARK                            x       y       z     vdW  Elec       q    Type
REMARK                         _______ _______ _______ _____ _____    ______ ____
ROOT
ATOM      1  C   UNL     1       6.485   3.914  12.773  0.00  0.00    +0.000 C 
ATOM      2  C   UNL     1       6.280   4.345  14.193  0.00  0.00    +0.000 A 
ATOM      3  C   UNL     1       5.246   3.823  14.958  0.00  0.00    +0.000 A 
ATOM      4  C   UNL     1       5.122   4.216  16.293  0.00  0.00    +0.000 A 
ATOM      5  C   UNL     1       6.022   5.121  16.858  0.00  0.00    +0.000 A 
ATOM      6  C   UNL     1       7.012   5.616  15.977  0.00  0.00    +0.000 A 
ATOM      7  N   UNL     1       7.158   5.244  14.684  0.00  0.00    +0.000 NA
ATOM      8  O   UNL     1       7.949   6.544  16.379  0.00  0.00    +0.000 OA
ATOM      9  C   UNL     1       7.525   7.262  17.541  0.00  0.00    +0.000 C 
ATOM     10  C   UNL     1       7.108   6.304  18.650  0.00  0.00    +0.000 C 
ATOM     11  N   UNL     1       5.991   5.468  18.208  0.00  0.00    +0.000 N 
ENDROOT
BRANCH  11  12
ATOM     12  C   UNL     1       4.765   5.456  19.013  0.00  0.00    +0.000 C 
BRANCH  12  13
ATOM     13  C   UNL     1       4.141   4.110  19.306  0.00  0.00    +0.000 A 
ATOM     14  N   UNL     1       4.811   3.021  19.646  0.00  0.00    +0.000 NA
ATOM     15  C   UNL     1       3.936   1.960  19.783  0.00  0.00    +0.000 A 
ATOM     16  C   UNL     1       2.611   2.241  19.531  0.00  0.00    +0.000 A 
ATOM     17  S   UNL     1       2.438   3.897  19.136  0.00  0.00    +0.000 S 
ENDBRANCH  12  13
ENDBRANCH  11  12
TORSDOF 2
ENDMDL
MODEL 7
REMARK VINA RESULT:      -6.5      1.802      2.046
REMARK  Name = 
REMARK  3 active torsions:
REMARK  status: ('A' for Active; 'I' for Inactive)
REMARK    1  A    between atoms: C_1  and  C_2
REMARK    2  A    between atoms: N_11  and  C_12
REMARK    3  A    between atoms: C_12  and  C_13
REMARK                            x       y       z     vdW  Elec       q    Type
REMARK                         _______ _______ _______ _____ _____    ______ ____
ROOT
ATOM      1  C   UNL     1       6.859   4.318  12.507  0.00  0.00    +0.000 C 
ATOM      2  C   UNL     1       6.680   4.440  13.989  0.00  0.00    +0.000 A 
ATOM      3  C   UNL     1       5.925   3.516  14.698  0.00  0.00    +0.000 A 
ATOM      4  C   UNL     1       5.826   3.639  16.087  0.00  0.00    +0.000 A 
ATOM      5  C   UNL     1       6.476   4.675  16.760  0.00  0.00    +0.000 A 
ATOM      6  C   UNL     1       7.185   5.578  15.935  0.00  0.00    +0.000 A 
ATOM      7  N   UNL     1       7.303   5.475  14.590  0.00  0.00    +0.000 NA
ATOM      8  O   UNL     1       7.847   6.672  16.450  0.00  0.00    +0.000 OA
ATOM      9  C   UNL     1       7.351   7.037  17.740  0.00  0.00    +0.000 C 
ATOM     10  C   UNL     1       7.343   5.836  18.679  0.00  0.00    +0.000 C 
ATOM     11  N   UNL     1       6.480   4.781  18.150  0.00  0.00    +0.000 N 
ENDROOT
BRANCH  11  12
ATOM     12  C   UNL     1       5.398   4.271  18.998  0.00  0.00    +0.000 C 
BRANCH  12  13
ATOM     13  C   UNL     1       3.980   4.608  18.592  0.00  0.00    +0.000 A 
ATOM     14  N   UNL     1       3.504   5.833  18.447  0.00  0.00    +0.000 NA
ATOM     15  C   UNL     1       2.161   5.776  18.125  0.00  0.00    +0.000 A 
ATOM     16  C   UNL     1       1.619   4.512  18.044  0.00  0.00    +0.000 A 
ATOM     17  S   UNL     1       2.831   3.344  18.352  0.00  0.00    +0.000 S 
ENDBRANCH  12  13
ENDBRANCH  11  12
TORSDOF 2
ENDMDL
MODEL 8
REMARK VINA RESULT:      -6.4      1.517      1.567
REMARK  Name = 
REMARK  3 active torsions:
REMARK  status: ('A' for Active; 'I' for Inactive)
REMARK    1  A    between atoms: C_1  and  C_2
REMARK    2  A    between atoms: N_11  and  C_12
REMARK    3  A    between atoms: C_12  and  C_13
REMARK                            x       y       z     vdW  Elec       q    Type
REMARK                         _______ _______ _______ _____ _____    ______ ____
ROOT
ATOM      1  C   UNL     1       7.494   5.181  13.288  0.00  0.00    +0.000 C 
ATOM      2  C   UNL     1       6.573   4.930  14.442  0.00  0.00    +0.000 A 
ATOM      3  C   UNL     1       6.171   3.643  14.772  0.00  0.00    +0.000 A 
ATOM      4  C   UNL     1       5.352   3.450  15.887  0.00  0.00    +0.000 A 
ATOM      5  C   UNL     1       4.939   4.533  16.665  0.00  0.00    +0.000 A 
ATOM      6  C   UNL     1       5.376   5.800  16.216  0.00  0.00    +0.000 A 
ATOM      7  N   UNL     1       6.178   6.012  15.146  0.00  0.00    +0.000 NA
ATOM      8  O   UNL     1       5.020   6.967  16.859  0.00  0.00    +0.000 OA
ATOM      9  C   UNL     1       3.847   6.798  17.658  0.00  0.00    +0.000 C 
ATOM     10  C   UNL     1       3.997   5.609  18.600  0.00  0.00    +0.000 C 
ATOM     11  N   UNL     1       4.199   4.378  17.837  0.00  0.00    +0.000 N 
ENDROOT
BRANCH  11  12
ATOM     12  C   UNL     1       3.286   3.253  18.067  0.00  0.00    +0.000 C 
BRANCH  12  13
ATOM     13  C   UNL     1       2.728   3.087  19.464  0.00  0.00    +0.000 A 
ATOM     14  N   UNL     1       3.417   2.661  20.509  0.00  0.00    +0.000 NA
ATOM     15  C   UNL     1       2.585   2.575  21.611  0.00  0.00    +0.000 A 
ATOM     16  C   UNL     1       1.269   2.919  21.395  0.00  0.00    +0.000 A 
ATOM     17  S   UNL     1       1.058   3.396  19.765  0.00  0.00    +0.000 S 
ENDBRANCH  12  13
ENDBRANCH  11  12
TORSDOF 2
ENDMDL
MODEL 9
REMARK VINA RESULT:      -6.3      1.658      1.976
REMARK  Name = 
REMARK  3 active torsions:
REMARK  status: ('A' for Active; 'I' for Inactive)
REMARK    1  A    between atoms: C_1  and  C_2
REMARK    2  A    between atoms: N_11  and  C_12
REMARK    3  A    between atoms: C_12  and  C_13
REMARK                            x       y       z     vdW  Elec       q    Type
REMARK                         _______ _______ _______ _____ _____    ______ ____
ROOT
ATOM      1  C   UNL     1       6.519   3.906  12.794  0.00  0.00    +0.000 C 
ATOM      2  C   UNL     1       6.455   4.220  14.258  0.00  0.00    +0.000 A 
ATOM      3  C   UNL     1       5.744   3.411  15.133  0.00  0.00    +0.000 A 
ATOM      4  C   UNL     1       5.753   3.711  16.498  0.00  0.00    +0.000 A 
ATOM      5  C   UNL     1       6.467   4.809  16.982  0.00  0.00    +0.000 A 
ATOM      6  C   UNL     1       7.123   5.584  15.998  0.00  0.00    +0.000 A 
ATOM      7  N   UNL     1       7.137   5.308  14.673  0.00  0.00    +0.000 NA
ATOM      8  O   UNL     1       7.838   6.719  16.318  0.00  0.00    +0.000 OA
ATOM      9  C   UNL     1       7.447   7.256  17.584  0.00  0.00    +0.000 C 
ATOM     10  C   UNL     1       7.494   6.185  18.667  0.00  0.00    +0.000 C 
ATOM     11  N   UNL     1       6.579   5.091  18.343  0.00  0.00    +0.000 N 
ENDROOT
BRANCH  11  12
ATOM     12  C   UNL     1       5.558   4.719  19.328  0.00  0.00    +0.000 C 
BRANCH  12  13
ATOM     13  C   UNL     1       4.110   4.924  18.938  0.00  0.00    +0.000 A 
ATOM     14  N   UNL     1       3.172   3.993  18.994  0.00  0.00    +0.000 NA
ATOM     15  C   UNL     1       1.981   4.505  18.513  0.00  0.00    +0.000 A 
ATOM     16  C   UNL     1       2.023   5.812  18.079  0.00  0.00    +0.000 A 
ATOM     17  S   UNL     1       3.598   6.443  18.303  0.00  0.00    +0.000 S 
ENDBRANCH  12  13
ENDBRANCH  11  12
TORSDOF 2
ENDMDL
