MODEL 1
REMARK VINA RESULT:      -8.6      0.000      0.000
REMARK  Name = 
REMARK  11 active torsions:
REMARK  status: ('A' for Active; 'I' for Inactive)
REMARK    1  A    between atoms: C_1  and  O_2
REMARK    2  A    between atoms: O_2  and  C_3
REMARK    3  A    between atoms: C_3  and  C_4
REMARK    4  A    between atoms: C_4  and  C_5
REMARK    5  A    between atoms: C_5  and  N_6
REMARK    6  A    between atoms: C_7  and  C_9
REMARK    7  A    between atoms: C_12  and  C_13
REMARK    8  A    between atoms: C_13  and  N_14
REMARK    9  A    between atoms: N_23  and  C_24
REMARK   10  A    between atoms: C_24  and  C_25
REMARK   11  A    between atoms: C_30  and  C_31
REMARK                            x       y       z     vdW  Elec       q    Type
REMARK                         _______ _______ _______ _____ _____    ______ ____
ROOT
ATOM      1  N   UNL     1       1.065   9.851  20.068  0.00  0.00    +0.000 N 
ATOM      2  C   UNL     1       0.921  10.918  20.947  0.00  0.00    +0.000 A 
ATOM      3  O   UNL     1       0.835  10.809  22.170  0.00  0.00    +0.000 OA
ATOM      4  C   UNL     1       0.729  12.244  20.296  0.00  0.00    +0.000 A 
ATOM      5  C   UNL     1       1.129  13.443  20.892  0.00  0.00    +0.000 A 
ATOM      6  C   UNL     1       0.880  14.651  20.232  0.00  0.00    +0.000 A 
ATOM      7  C   UNL     1       0.168  14.665  19.023  0.00  0.00    +0.000 A 
ATOM      8  C   UNL     1      -0.254  13.469  18.432  0.00  0.00    +0.000 A 
ATOM      9  C   UNL     1       0.073  12.261  19.050  0.00  0.00    +0.000 A 
ATOM     10  N   UNL     1      -0.128  11.000  18.389  0.00  0.00    +0.000 N 
ATOM     11  C   UNL     1       0.978  10.141  18.707  0.00  0.00    +0.000 A 
ATOM     12  O   UNL     1       1.919   9.992  17.935  0.00  0.00    +0.000 OA
ENDROOT
BRANCH   1  13
ATOM     13  C   UNL     1       0.870   8.462  20.509  0.00  0.00    +0.000 C 
BRANCH  13  17
ATOM     14  C   UNL     1       3.514   5.352  18.941  0.00  0.00    +0.000 A 
ATOM     15  C   UNL     1       2.810   5.137  20.132  0.00  0.00    +0.000 A 
ATOM     16  C   UNL     1       1.968   6.139  20.662  0.00  0.00    +0.000 A 
ATOM     17  C   UNL     1       1.809   7.374  20.005  0.00  0.00    +0.000 A 
ATOM     18  C   UNL     1       2.458   7.540  18.772  0.00  0.00    +0.000 A 
ATOM     19  C   UNL     1       3.314   6.558  18.256  0.00  0.00    +0.000 A 
BRANCH  14  21
ATOM     20  N   UNL     1       4.507   4.290  16.985  0.00  0.00    +0.000 N 
ATOM     21  C   UNL     1       4.499   4.384  18.359  0.00  0.00    +0.000 C 
ATOM     22  O   UNL     1       5.255   3.772  19.092  0.00  0.00    +0.000 OA
ATOM     23  H   UNL     1       3.958   4.925  16.423  0.00  0.00    +0.000 HD
BRANCH  20  24
ATOM     24  C   UNL     1       5.480   3.447  16.284  0.00  0.00    +0.000 C 
BRANCH  24  25
ATOM     25  C   UNL     1       6.015   4.116  15.027  0.00  0.00    +0.000 C 
BRANCH  25  26
ATOM     26  C   UNL     1       7.101   5.139  15.359  0.00  0.00    +0.000 C 
BRANCH  26  28
ATOM     27  C   UNL     1       7.264   6.607  17.201  0.00  0.00    +0.000 C 
ATOM     28  O   UNL     1       6.519   6.243  16.048  0.00  0.00    +0.000 OA
ENDBRANCH  26  28
ENDBRANCH  25  26
ENDBRANCH  24  25
ENDBRANCH  20  24
ENDBRANCH  14  21
ENDBRANCH  13  17
ENDBRANCH   1  13
BRANCH  10  29
ATOM     29  C   UNL     1      -1.431  10.395  18.711  0.00  0.00    +0.000 C 
BRANCH  29  30
ATOM     30  C   UNL     1      -2.580  10.375  17.718  0.00  0.00    +0.000 A 
ATOM     31  C   UNL     1      -2.304   9.631  16.542  0.00  0.00    +0.000 A 
ATOM     32  C   UNL     1      -3.006   9.832  15.356  0.00  0.00    +0.000 A 
ATOM     33  C   UNL     1      -3.988  10.807  15.306  0.00  0.00    +0.000 A 
ATOM     34  C   UNL     1      -4.340  11.490  16.469  0.00  0.00    +0.000 A 
ATOM     35  C   UNL     1      -3.692  11.241  17.701  0.00  0.00    +0.000 A 
ATOM     36  C   UNL     1      -4.265  11.905  18.922  0.00  0.00    +0.000 C 
ENDBRANCH  29  30
ENDBRANCH  10  29
TORSDOF 9
ENDMDL
MODEL 2
REMARK VINA RESULT:      -8.5      2.840      5.084
REMARK  Name = 
REMARK  11 active torsions:
REMARK  status: ('A' for Active; 'I' for Inactive)
REMARK    1  A    between atoms: C_1  and  O_2
REMARK    2  A    between atoms: O_2  and  C_3
REMARK    3  A    between atoms: C_3  and  C_4
REMARK    4  A    between atoms: C_4  and  C_5
REMARK    5  A    between atoms: C_5  and  N_6
REMARK    6  A    between atoms: C_7  and  C_9
REMARK    7  A    between atoms: C_12  and  C_13
REMARK    8  A    between atoms: C_13  and  N_14
REMARK    9  A    between atoms: N_23  and  C_24
REMARK   10  A    between atoms: C_24  and  C_25
REMARK   11  A    between atoms: C_30  and  C_31
REMARK                            x       y       z     vdW  Elec       q    Type
REMARK                         _______ _______ _______ _____ _____    ______ ____
ROOT
ATOM      1  N   UNL     1       0.120  11.831  19.900  0.00  0.00    +0.000 N 
ATOM      2  C   UNL     1      -1.251  11.838  20.132  0.00  0.00    +0.000 A 
ATOM      3  O   UNL     1      -2.065  11.141  19.527  0.00  0.00    +0.000 OA
ATOM      4  C   UNL     1      -1.717  12.874  21.094  0.00  0.00    +0.000 A 
ATOM      5  C   UNL     1      -2.858  12.712  21.884  0.00  0.00    +0.000 A 
ATOM      6  C   UNL     1      -3.252  13.749  22.738  0.00  0.00    +0.000 A 
ATOM      7  C   UNL     1      -2.555  14.966  22.743  0.00  0.00    +0.000 A 
ATOM      8  C   UNL     1      -1.425  15.143  21.937  0.00  0.00    +0.000 A 
ATOM      9  C   UNL     1      -0.984  14.076  21.153  0.00  0.00    +0.000 A 
ATOM     10  N   UNL     1       0.287  14.111  20.483  0.00  0.00    +0.000 N 
ATOM     11  C   UNL     1       0.874  12.801  20.557  0.00  0.00    +0.000 A 
ATOM     12  O   UNL     1       1.725  12.526  21.396  0.00  0.00    +0.000 OA
ENDROOT
BRANCH   1  13
ATOM     13  C   UNL     1       0.696  11.168  18.721  0.00  0.00    +0.000 C 
BRANCH  13  17
ATOM     14  C   UNL     1       2.368   7.137  19.008  0.00  0.00    +0.000 A 
ATOM     15  C   UNL     1       1.794   7.740  20.135  0.00  0.00    +0.000 A 
ATOM     16  C   UNL     1       1.269   9.048  20.064  0.00  0.00    +0.000 A 
ATOM     17  C   UNL     1       1.300   9.777  18.860  0.00  0.00    +0.000 A 
ATOM     18  C   UNL     1       1.804   9.127  17.722  0.00  0.00    +0.000 A 
ATOM     19  C   UNL     1       2.349   7.839  17.796  0.00  0.00    +0.000 A 
BRANCH  14  21
ATOM     20  N   UNL     1       2.778   4.992  17.929  0.00  0.00    +0.000 N 
ATOM     21  C   UNL     1       3.033   5.794  19.018  0.00  0.00    +0.000 C 
ATOM     22  O   UNL     1       3.777   5.491  19.934  0.00  0.00    +0.000 OA
ATOM     23  H   UNL     1       2.269   5.351  17.133  0.00  0.00    +0.000 HD
BRANCH  20  24
ATOM     24  C   UNL     1       3.434   3.691  17.770  0.00  0.00    +0.000 C 
BRANCH  24  25
ATOM     25  C   UNL     1       2.432   2.547  17.717  0.00  0.00    +0.000 C 
BRANCH  25  26
ATOM     26  C   UNL     1       2.104   2.029  19.117  0.00  0.00    +0.000 C 
BRANCH  26  28
ATOM     27  C   UNL     1       1.271   3.003  21.100  0.00  0.00    +0.000 C 
ATOM     28  O   UNL     1       1.090   2.845  19.700  0.00  0.00    +0.000 OA
ENDBRANCH  26  28
ENDBRANCH  25  26
ENDBRANCH  24  25
ENDBRANCH  20  24
ENDBRANCH  14  21
ENDBRANCH  13  17
ENDBRANCH   1  13
BRANCH  10  29
ATOM     29  C   UNL     1       0.183  14.611  19.102  0.00  0.00    +0.000 C 
BRANCH  29  30
ATOM     30  C   UNL     1       0.395  16.074  18.755  0.00  0.00    +0.000 A 
ATOM     31  C   UNL     1      -0.812  16.803  18.597  0.00  0.00    +0.000 A 
ATOM     32  C   UNL     1      -0.869  17.994  17.877  0.00  0.00    +0.000 A 
ATOM     33  C   UNL     1       0.278  18.476  17.270  0.00  0.00    +0.000 A 
ATOM     34  C   UNL     1       1.494  17.828  17.483  0.00  0.00    +0.000 A 
ATOM     35  C   UNL     1       1.584  16.662  18.278  0.00  0.00    +0.000 A 
ATOM     36  C   UNL     1       2.963  16.146  18.583  0.00  0.00    +0.000 C 
ENDBRANCH  29  30
ENDBRANCH  10  29
TORSDOF 9
ENDMDL
MODEL 3
REMARK VINA RESULT:      -8.4      3.720      7.830
REMARK  Name = 
REMARK  11 active torsions:
REMARK  status: ('A' for Active; 'I' for Inactive)
REMARK    1  A    between atoms: C_1  and  O_2
REMARK    2  A    between atoms: O_2  and  C_3
REMARK    3  A    between atoms: C_3  and  C_4
REMARK    4  A    between atoms: C_4  and  C_5
REMARK    5  A    between atoms: C_5  and  N_6
REMARK    6  A    between atoms: C_7  and  C_9
REMARK    7  A    between atoms: C_12  and  C_13
REMARK    8  A    between atoms: C_13  and  N_14
REMARK    9  A    between atoms: N_23  and  C_24
REMARK   10  A    between atoms: C_24  and  C_25
REMARK   11  A    between atoms: C_30  and  C_31
REMARK                            x       y       z     vdW  Elec       q    Type
REMARK                         _______ _______ _______ _____ _____    ______ ____
ROOT
ATOM      1  N   UNL     1       5.216   4.524  17.842  0.00  0.00    +0.000 N 
ATOM      2  C   UNL     1       4.161   3.839  17.250  0.00  0.00    +0.000 A 
ATOM      3  O   UNL     1       4.101   3.547  16.056  0.00  0.00    +0.000 OA
ATOM      4  C   UNL     1       2.996   3.590  18.144  0.00  0.00    +0.000 A 
ATOM      5  C   UNL     1       2.141   2.497  17.983  0.00  0.00    +0.000 A 
ATOM      6  C   UNL     1       1.046   2.353  18.842  0.00  0.00    +0.000 A 
ATOM      7  C   UNL     1       0.766   3.335  19.804  0.00  0.00    +0.000 A 
ATOM      8  C   UNL     1       1.606   4.443  19.955  0.00  0.00    +0.000 A 
ATOM      9  C   UNL     1       2.745   4.538  19.155  0.00  0.00    +0.000 A 
ATOM     10  N   UNL     1       3.764   5.520  19.411  0.00  0.00    +0.000 N 
ATOM     11  C   UNL     1       5.045   4.918  19.168  0.00  0.00    +0.000 A 
ATOM     12  O   UNL     1       5.734   4.483  20.085  0.00  0.00    +0.000 OA
ENDROOT
BRANCH   1  13
ATOM     13  C   UNL     1       6.249   5.189  17.035  0.00  0.00    +0.000 C 
BRANCH  13  17
ATOM     14  C   UNL     1       8.409   8.679  18.544  0.00  0.00    +0.000 A 
ATOM     15  C   UNL     1       8.623   7.420  19.120  0.00  0.00    +0.000 A 
ATOM     16  C   UNL     1       7.919   6.288  18.657  0.00  0.00    +0.000 A 
ATOM     17  C   UNL     1       6.991   6.391  17.604  0.00  0.00    +0.000 A 
ATOM     18  C   UNL     1       6.849   7.644  16.986  0.00  0.00    +0.000 A 
ATOM     19  C   UNL     1       7.528   8.775  17.459  0.00  0.00    +0.000 A 
BRANCH  14  21
ATOM     20  N   UNL     1       9.612  10.744  18.068  0.00  0.00    +0.000 N 
ATOM     21  C   UNL     1       9.040   9.947  19.034  0.00  0.00    +0.000 C 
ATOM     22  O   UNL     1       8.990  10.234  20.217  0.00  0.00    +0.000 OA
ATOM     23  H   UNL     1       9.499  10.525  17.087  0.00  0.00    +0.000 HD
BRANCH  20  24
ATOM     24  C   UNL     1      10.186  12.051  18.398  0.00  0.00    +0.000 C 
BRANCH  24  25
ATOM     25  C   UNL     1       9.462  13.189  17.694  0.00  0.00    +0.000 C 
BRANCH  25  26
ATOM     26  C   UNL     1       8.042  12.786  17.298  0.00  0.00    +0.000 C 
BRANCH  26  28
ATOM     27  C   UNL     1       7.837  15.024  18.019  0.00  0.00    +0.000 C 
ATOM     28  O   UNL     1       7.161  13.888  17.500  0.00  0.00    +0.000 OA
ENDBRANCH  26  28
ENDBRANCH  25  26
ENDBRANCH  24  25
ENDBRANCH  20  24
ENDBRANCH  14  21
ENDBRANCH  13  17
ENDBRANCH   1  13
BRANCH  10  29
ATOM     29  C   UNL     1       3.560   6.758  18.639  0.00  0.00    +0.000 C 
BRANCH  29  30
ATOM     30  C   UNL     1       2.332   7.632  18.823  0.00  0.00    +0.000 A 
ATOM     31  C   UNL     1       1.933   8.310  17.643  0.00  0.00    +0.000 A 
ATOM     32  C   UNL     1       1.141   9.455  17.678  0.00  0.00    +0.000 A 
ATOM     33  C   UNL     1       0.748   9.971  18.901  0.00  0.00    +0.000 A 
ATOM     34  C   UNL     1       1.051   9.275  20.071  0.00  0.00    +0.000 A 
ATOM     35  C   UNL     1       1.786   8.068  20.048  0.00  0.00    +0.000 A 
ATOM     36  C   UNL     1       1.907   7.314  21.343  0.00  0.00    +0.000 C 
ENDBRANCH  29  30
ENDBRANCH  10  29
TORSDOF 9
ENDMDL
MODEL 4
REMARK VINA RESULT:      -8.3      2.946      5.330
REMARK  Name = 
REMARK  11 active torsions:
REMARK  status: ('A' for Active; 'I' for Inactive)
REMARK    1  A    between atoms: C_1  and  O_2
REMARK    2  A    between atoms: O_2  and  C_3
REMARK    3  A    between atoms: C_3  and  C_4
REMARK    4  A    between atoms: C_4  and  C_5
REMARK    5  A    between atoms: C_5  and  N_6
REMARK    6  A    between atoms: C_7  and  C_9
REMARK    7  A    between atoms: C_12  and  C_13
REMARK    8  A    between atoms: C_13  and  N_14
REMARK    9  A    between atoms: N_23  and  C_24
REMARK   10  A    between atoms: C_24  and  C_25
REMARK   11  A    between atoms: C_30  and  C_31
REMARK                            x       y       z     vdW  Elec       q    Type
REMARK                         _______ _______ _______ _____ _____    ______ ____
ROOT
ATOM      1  N   UNL     1      -0.163  11.877  19.627  0.00  0.00    +0.000 N 
ATOM      2  C   UNL     1      -1.537  11.870  19.413  0.00  0.00    +0.000 A 
ATOM      3  O   UNL     1      -2.113  11.139  18.608  0.00  0.00    +0.000 OA
ATOM      4  C   UNL     1      -2.289  12.932  20.136  0.00  0.00    +0.000 A 
ATOM      5  C   UNL     1      -3.621  12.779  20.530  0.00  0.00    +0.000 A 
ATOM      6  C   UNL     1      -4.270  13.839  21.174  0.00  0.00    +0.000 A 
ATOM      7  C   UNL     1      -3.616  15.066  21.352  0.00  0.00    +0.000 A 
ATOM      8  C   UNL     1      -2.289  15.233  20.940  0.00  0.00    +0.000 A 
ATOM      9  C   UNL     1      -1.618  14.146  20.377  0.00  0.00    +0.000 A 
ATOM     10  N   UNL     1      -0.200  14.178  20.144  0.00  0.00    +0.000 N 
ATOM     11  C   UNL     1       0.339  12.883  20.452  0.00  0.00    +0.000 A 
ATOM     12  O   UNL     1       0.881  12.651  21.527  0.00  0.00    +0.000 OA
ENDROOT
BRANCH   1  13
ATOM     13  C   UNL     1       0.760  11.182  18.718  0.00  0.00    +0.000 C 
BRANCH  13  17
ATOM     14  C   UNL     1       2.221   7.172  19.669  0.00  0.00    +0.000 A 
ATOM     15  C   UNL     1       1.508   7.903  20.627  0.00  0.00    +0.000 A 
ATOM     16  C   UNL     1       1.048   9.207  20.343  0.00  0.00    +0.000 A 
ATOM     17  C   UNL     1       1.285   9.802  19.089  0.00  0.00    +0.000 A 
ATOM     18  C   UNL     1       1.929   9.024  18.114  0.00  0.00    +0.000 A 
ATOM     19  C   UNL     1       2.410   7.740  18.402  0.00  0.00    +0.000 A 
BRANCH  14  21
ATOM     20  N   UNL     1       2.195   5.047  20.861  0.00  0.00    +0.000 N 
ATOM     21  C   UNL     1       2.828   5.824  19.917  0.00  0.00    +0.000 C 
ATOM     22  O   UNL     1       3.796   5.465  19.271  0.00  0.00    +0.000 OA
ATOM     23  H   UNL     1       1.314   5.339  21.262  0.00  0.00    +0.000 HD
BRANCH  20  24
ATOM     24  C   UNL     1       2.632   3.675  21.137  0.00  0.00    +0.000 C 
BRANCH  24  25
ATOM     25  C   UNL     1       1.678   2.642  20.558  0.00  0.00    +0.000 C 
BRANCH  25  26
ATOM     26  C   UNL     1       0.707   3.277  19.562  0.00  0.00    +0.000 C 
BRANCH  26  28
ATOM     27  C   UNL     1       2.350   2.290  18.185  0.00  0.00    +0.000 C 
ATOM     28  O   UNL     1       1.065   2.892  18.238  0.00  0.00    +0.000 OA
ENDBRANCH  26  28
ENDBRANCH  25  26
ENDBRANCH  24  25
ENDBRANCH  20  24
ENDBRANCH  14  21
ENDBRANCH  13  17
ENDBRANCH   1  13
BRANCH  10  29
ATOM     29  C   UNL     1       0.138  14.628  18.783  0.00  0.00    +0.000 C 
BRANCH  29  30
ATOM     30  C   UNL     1       0.531  16.063  18.481  0.00  0.00    +0.000 A 
ATOM     31  C   UNL     1      -0.555  16.878  18.073  0.00  0.00    +0.000 A 
ATOM     32  C   UNL     1      -0.370  18.055  17.351  0.00  0.00    +0.000 A 
ATOM     33  C   UNL     1       0.913  18.435  16.993  0.00  0.00    +0.000 A 
ATOM     34  C   UNL     1       2.004  17.701  17.456  0.00  0.00    +0.000 A 
ATOM     35  C   UNL     1       1.836  16.549  18.257  0.00  0.00    +0.000 A 
ATOM     36  C   UNL     1       3.078  15.936  18.844  0.00  0.00    +0.000 C 
ENDBRANCH  29  30
ENDBRANCH  10  29
TORSDOF 9
ENDMDL
MODEL 5
REMARK VINA RESULT:      -8.2      3.814      7.860
REMARK  Name = 
REMARK  11 active torsions:
REMARK  status: ('A' for Active; 'I' for Inactive)
REMARK    1  A    between atoms: C_1  and  O_2
REMARK    2  A    between atoms: O_2  and  C_3
REMARK    3  A    between atoms: C_3  and  C_4
REMARK    4  A    between atoms: C_4  and  C_5
REMARK    5  A    between atoms: C_5  and  N_6
REMARK    6  A    between atoms: C_7  and  C_9
REMARK    7  A    between atoms: C_12  and  C_13
REMARK    8  A    between atoms: C_13  and  N_14
REMARK    9  A    between atoms: N_23  and  C_24
REMARK   10  A    between atoms: C_24  and  C_25
REMARK   11  A    between atoms: C_30  and  C_31
REMARK                            x       y       z     vdW  Elec       q    Type
REMARK                         _______ _______ _______ _____ _____    ______ ____
ROOT
ATOM      1  N   UNL     1       4.787   4.783  17.852  0.00  0.00    +0.000 N 
ATOM      2  C   UNL     1       3.785   3.928  17.406  0.00  0.00    +0.000 A 
ATOM      3  O   UNL     1       3.623   3.596  16.233  0.00  0.00    +0.000 OA
ATOM      4  C   UNL     1       2.794   3.531  18.445  0.00  0.00    +0.000 A 
ATOM      5  C   UNL     1       2.104   2.317  18.404  0.00  0.00    +0.000 A 
ATOM      6  C   UNL     1       1.160   2.033  19.398  0.00  0.00    +0.000 A 
ATOM      7  C   UNL     1       0.854   2.988  20.378  0.00  0.00    +0.000 A 
ATOM      8  C   UNL     1       1.525   4.216  20.410  0.00  0.00    +0.000 A 
ATOM      9  C   UNL     1       2.527   4.459  19.469  0.00  0.00    +0.000 A 
ATOM     10  N   UNL     1       3.405   5.592  19.584  0.00  0.00    +0.000 N 
ATOM     11  C   UNL     1       4.724   5.185  19.185  0.00  0.00    +0.000 A 
ATOM     12  O   UNL     1       5.581   4.887  20.010  0.00  0.00    +0.000 OA
ENDROOT
BRANCH   1  13
ATOM     13  C   UNL     1       5.596   5.573  16.913  0.00  0.00    +0.000 C 
BRANCH  13  17
ATOM     14  C   UNL     1       8.223   8.776  18.317  0.00  0.00    +0.000 A 
ATOM     15  C   UNL     1       8.483   7.447  18.677  0.00  0.00    +0.000 A 
ATOM     16  C   UNL     1       7.633   6.405  18.249  0.00  0.00    +0.000 A 
ATOM     17  C   UNL     1       6.509   6.670  17.445  0.00  0.00    +0.000 A 
ATOM     18  C   UNL     1       6.309   7.995  17.026  0.00  0.00    +0.000 A 
ATOM     19  C   UNL     1       7.137   9.036  17.470  0.00  0.00    +0.000 A 
BRANCH  14  21
ATOM     20  N   UNL     1       9.338  10.891  17.851  0.00  0.00    +0.000 N 
ATOM     21  C   UNL     1       9.014   9.951  18.803  0.00  0.00    +0.000 C 
ATOM     22  O   UNL     1       9.295  10.048  19.985  0.00  0.00    +0.000 OA
ATOM     23  H   UNL     1       8.957  10.830  16.917  0.00  0.00    +0.000 HD
BRANCH  20  24
ATOM     24  C   UNL     1      10.034  12.131  18.208  0.00  0.00    +0.000 C 
BRANCH  24  25
ATOM     25  C   UNL     1       9.067  13.237  18.601  0.00  0.00    +0.000 C 
BRANCH  25  26
ATOM     26  C   UNL     1       7.902  13.335  17.616  0.00  0.00    +0.000 C 
BRANCH  26  28
ATOM     27  C   UNL     1       7.666  15.371  18.786  0.00  0.00    +0.000 C 
ATOM     28  O   UNL     1       7.431  14.679  17.568  0.00  0.00    +0.000 OA
ENDBRANCH  26  28
ENDBRANCH  25  26
ENDBRANCH  24  25
ENDBRANCH  20  24
ENDBRANCH  14  21
ENDBRANCH  13  17
ENDBRANCH   1  13
BRANCH  10  29
ATOM     29  C   UNL     1       2.918   6.761  18.832  0.00  0.00    +0.000 C 
BRANCH  29  30
ATOM     30  C   UNL     1       2.179   7.904  19.506  0.00  0.00    +0.000 A 
ATOM     31  C   UNL     1       1.733   7.600  20.817  0.00  0.00    +0.000 A 
ATOM     32  C   UNL     1       0.698   8.302  21.430  0.00  0.00    +0.000 A 
ATOM     33  C   UNL     1       0.060   9.314  20.733  0.00  0.00    +0.000 A 
ATOM     34  C   UNL     1       0.536   9.693  19.478  0.00  0.00    +0.000 A 
ATOM     35  C   UNL     1       1.638   9.043  18.876  0.00  0.00    +0.000 A 
ATOM     36  C   UNL     1       2.175   9.642  17.606  0.00  0.00    +0.000 C 
ENDBRANCH  29  30
ENDBRANCH  10  29
TORSDOF 9
ENDMDL
MODEL 6
REMARK VINA RESULT:      -8.2      2.762      5.110
REMARK  Name = 
REMARK  11 active torsions:
REMARK  status: ('A' for Active; 'I' for Inactive)
REMARK    1  A    between atoms: C_1  and  O_2
REMARK    2  A    between atoms: O_2  and  C_3
REMARK    3  A    between atoms: C_3  and  C_4
REMARK    4  A    between atoms: C_4  and  C_5
REMARK    5  A    between atoms: C_5  and  N_6
REMARK    6  A    between atoms: C_7  and  C_9
REMARK    7  A    between atoms: C_12  and  C_13
REMARK    8  A    between atoms: C_13  and  N_14
REMARK    9  A    between atoms: N_23  and  C_24
REMARK   10  A    between atoms: C_24  and  C_25
REMARK   11  A    between atoms: C_30  and  C_31
REMARK                            x       y       z     vdW  Elec       q    Type
REMARK                         _______ _______ _______ _____ _____    ______ ____
ROOT
ATOM      1  N   UNL     1       0.025  11.683  19.569  0.00  0.00    +0.000 N 
ATOM      2  C   UNL     1      -1.332  11.749  19.272  0.00  0.00    +0.000 A 
ATOM      3  O   UNL     1      -1.894  11.061  18.421  0.00  0.00    +0.000 OA
ATOM      4  C   UNL     1      -2.073  12.837  19.968  0.00  0.00    +0.000 A 
ATOM      5  C   UNL     1      -3.433  12.746  20.278  0.00  0.00    +0.000 A 
ATOM      6  C   UNL     1      -4.066  13.828  20.900  0.00  0.00    +0.000 A 
ATOM      7  C   UNL     1      -3.364  15.018  21.140  0.00  0.00    +0.000 A 
ATOM      8  C   UNL     1      -2.007  15.123  20.812  0.00  0.00    +0.000 A 
ATOM      9  C   UNL     1      -1.358  14.012  20.271  0.00  0.00    +0.000 A 
ATOM     10  N   UNL     1       0.071  13.975  20.124  0.00  0.00    +0.000 N 
ATOM     11  C   UNL     1       0.525  12.649  20.440  0.00  0.00    +0.000 A 
ATOM     12  O   UNL     1       0.988  12.374  21.542  0.00  0.00    +0.000 OA
ENDROOT
BRANCH   1  13
ATOM     13  C   UNL     1       0.966  10.955  18.705  0.00  0.00    +0.000 C 
BRANCH  13  17
ATOM     14  C   UNL     1       2.210   6.886  19.710  0.00  0.00    +0.000 A 
ATOM     15  C   UNL     1       1.538   7.667  20.658  0.00  0.00    +0.000 A 
ATOM     16  C   UNL     1       1.148   8.989  20.356  0.00  0.00    +0.000 A 
ATOM     17  C   UNL     1       1.416   9.554  19.095  0.00  0.00    +0.000 A 
ATOM     18  C   UNL     1       2.018   8.731  18.130  0.00  0.00    +0.000 A 
ATOM     19  C   UNL     1       2.429   7.426  18.436  0.00  0.00    +0.000 A 
BRANCH  14  21
ATOM     20  N   UNL     1       3.519   4.965  18.978  0.00  0.00    +0.000 N 
ATOM     21  C   UNL     1       2.744   5.511  19.976  0.00  0.00    +0.000 C 
ATOM     22  O   UNL     1       2.514   4.966  21.041  0.00  0.00    +0.000 OA
ATOM     23  H   UNL     1       3.794   5.519  18.179  0.00  0.00    +0.000 HD
BRANCH  20  24
ATOM     24  C   UNL     1       4.174   3.665  19.146  0.00  0.00    +0.000 C 
BRANCH  24  25
ATOM     25  C   UNL     1       3.591   2.606  18.223  0.00  0.00    +0.000 C 
BRANCH  25  26
ATOM     26  C   UNL     1       2.635   3.222  17.202  0.00  0.00    +0.000 C 
BRANCH  26  28
ATOM     27  C   UNL     1       0.974   2.336  18.626  0.00  0.00    +0.000 C 
ATOM     28  O   UNL     1       1.362   3.431  17.809  0.00  0.00    +0.000 OA
ENDBRANCH  26  28
ENDBRANCH  25  26
ENDBRANCH  24  25
ENDBRANCH  20  24
ENDBRANCH  14  21
ENDBRANCH  13  17
ENDBRANCH   1  13
BRANCH  10  29
ATOM     29  C   UNL     1       0.514  14.427  18.795  0.00  0.00    +0.000 C 
BRANCH  29  30
ATOM     30  C   UNL     1       1.862  15.091  18.574  0.00  0.00    +0.000 A 
ATOM     31  C   UNL     1       2.858  14.208  18.084  0.00  0.00    +0.000 A 
ATOM     32  C   UNL     1       4.218  14.475  18.223  0.00  0.00    +0.000 A 
ATOM     33  C   UNL     1       4.620  15.625  18.883  0.00  0.00    +0.000 A 
ATOM     34  C   UNL     1       3.663  16.552  19.295  0.00  0.00    +0.000 A 
ATOM     35  C   UNL     1       2.282  16.334  19.090  0.00  0.00    +0.000 A 
ATOM     36  C   UNL     1       1.354  17.471  19.416  0.00  0.00    +0.000 C 
ENDBRANCH  29  30
ENDBRANCH  10  29
TORSDOF 9
ENDMDL
MODEL 7
REMARK VINA RESULT:      -8.2      2.671      4.072
REMARK  Name = 
REMARK  11 active torsions:
REMARK  status: ('A' for Active; 'I' for Inactive)
REMARK    1  A    between atoms: C_1  and  O_2
REMARK    2  A    between atoms: O_2  and  C_3
REMARK    3  A    between atoms: C_3  and  C_4
REMARK    4  A    between atoms: C_4  and  C_5
REMARK    5  A    between atoms: C_5  and  N_6
REMARK    6  A    between atoms: C_7  and  C_9
REMARK    7  A    between atoms: C_12  and  C_13
REMARK    8  A    between atoms: C_13  and  N_14
REMARK    9  A    between atoms: N_23  and  C_24
REMARK   10  A    between atoms: C_24  and  C_25
REMARK   11  A    between atoms: C_30  and  C_31
REMARK                            x       y       z     vdW  Elec       q    Type
REMARK                         _______ _______ _______ _____ _____    ______ ____
ROOT
ATOM      1  N   UNL     1       0.364  12.087  19.638  0.00  0.00    +0.000 N 
ATOM      2  C   UNL     1       1.297  13.064  19.970  0.00  0.00    +0.000 A 
ATOM      3  O   UNL     1       2.282  12.875  20.683  0.00  0.00    +0.000 OA
ATOM      4  C   UNL     1       0.953  14.439  19.512  0.00  0.00    +0.000 A 
ATOM      5  C   UNL     1       1.923  15.401  19.219  0.00  0.00    +0.000 A 
ATOM      6  C   UNL     1       1.517  16.683  18.830  0.00  0.00    +0.000 A 
ATOM      7  C   UNL     1       0.156  17.021  18.810  0.00  0.00    +0.000 A 
ATOM      8  C   UNL     1      -0.818  16.067  19.125  0.00  0.00    +0.000 A 
ATOM      9  C   UNL     1      -0.414  14.766  19.428  0.00  0.00    +0.000 A 
ATOM     10  N   UNL     1      -1.362  13.691  19.535  0.00  0.00    +0.000 N 
ATOM     11  C   UNL     1      -0.777  12.512  18.960  0.00  0.00    +0.000 A 
ATOM     12  O   UNL     1      -1.041  12.156  17.817  0.00  0.00    +0.000 OA
ENDROOT
BRANCH   1  13
ATOM     13  C   UNL     1       0.335  10.788  20.327  0.00  0.00    +0.000 C 
BRANCH  13  17
ATOM     14  C   UNL     1       2.439   7.344  18.642  0.00  0.00    +0.000 A 
ATOM     15  C   UNL     1       2.163   8.458  17.838  0.00  0.00    +0.000 A 
ATOM     16  C   UNL     1       1.467   9.569  18.362  0.00  0.00    +0.000 A 
ATOM     17  C   UNL     1       1.039   9.590  19.703  0.00  0.00    +0.000 A 
ATOM     18  C   UNL     1       1.395   8.501  20.514  0.00  0.00    +0.000 A 
ATOM     19  C   UNL     1       2.063   7.386  19.991  0.00  0.00    +0.000 A 
BRANCH  14  21
ATOM     20  N   UNL     1       2.258   4.993  18.030  0.00  0.00    +0.000 N 
ATOM     21  C   UNL     1       3.085   6.087  18.145  0.00  0.00    +0.000 C 
ATOM     22  O   UNL     1       4.263   6.092  17.834  0.00  0.00    +0.000 OA
ATOM     23  H   UNL     1       1.261   5.084  18.166  0.00  0.00    +0.000 HD
BRANCH  20  24
ATOM     24  C   UNL     1       2.743   3.725  17.475  0.00  0.00    +0.000 C 
BRANCH  24  25
ATOM     25  C   UNL     1       2.361   2.536  18.343  0.00  0.00    +0.000 C 
BRANCH  25  26
ATOM     26  C   UNL     1       3.254   2.440  19.580  0.00  0.00    +0.000 C 
BRANCH  26  28
ATOM     27  C   UNL     1       1.629   3.050  21.179  0.00  0.00    +0.000 C 
ATOM     28  O   UNL     1       2.844   3.411  20.539  0.00  0.00    +0.000 OA
ENDBRANCH  26  28
ENDBRANCH  25  26
ENDBRANCH  24  25
ENDBRANCH  20  24
ENDBRANCH  14  21
ENDBRANCH  13  17
ENDBRANCH   1  13
BRANCH  10  29
ATOM     29  C   UNL     1      -1.823  13.482  20.918  0.00  0.00    +0.000 C 
BRANCH  29  30
ATOM     30  C   UNL     1      -3.207  12.942  21.235  0.00  0.00    +0.000 A 
ATOM     31  C   UNL     1      -3.989  12.669  20.084  0.00  0.00    +0.000 A 
ATOM     32  C   UNL     1      -5.379  12.593  20.134  0.00  0.00    +0.000 A 
ATOM     33  C   UNL     1      -6.028  12.816  21.337  0.00  0.00    +0.000 A 
ATOM     34  C   UNL     1      -5.280  12.998  22.499  0.00  0.00    +0.000 A 
ATOM     35  C   UNL     1      -3.867  12.998  22.480  0.00  0.00    +0.000 A 
ATOM     36  C   UNL     1      -3.163  13.030  23.809  0.00  0.00    +0.000 C 
ENDBRANCH  29  30
ENDBRANCH  10  29
TORSDOF 9
ENDMDL
MODEL 8
REMARK VINA RESULT:      -8.2      2.538      4.736
REMARK  Name = 
REMARK  11 active torsions:
REMARK  status: ('A' for Active; 'I' for Inactive)
REMARK    1  A    between atoms: C_1  and  O_2
REMARK    2  A    between atoms: O_2  and  C_3
REMARK    3  A    between atoms: C_3  and  C_4
REMARK    4  A    between atoms: C_4  and  C_5
REMARK    5  A    between atoms: C_5  and  N_6
REMARK    6  A    between atoms: C_7  and  C_9
REMARK    7  A    between atoms: C_12  and  C_13
REMARK    8  A    between atoms: C_13  and  N_14
REMARK    9  A    between atoms: N_23  and  C_24
REMARK   10  A    between atoms: C_24  and  C_25
REMARK   11  A    between atoms: C_30  and  C_31
REMARK                            x       y       z     vdW  Elec       q    Type
REMARK                         _______ _______ _______ _____ _____    ______ ____
ROOT
ATOM      1  N   UNL     1       0.195  12.258  20.145  0.00  0.00    +0.000 N 
ATOM      2  C   UNL     1      -0.995  12.500  20.824  0.00  0.00    +0.000 A 
ATOM      3  O   UNL     1      -2.052  11.908  20.611  0.00  0.00    +0.000 OA
ATOM      4  C   UNL     1      -0.956  13.657  21.761  0.00  0.00    +0.000 A 
ATOM      5  C   UNL     1      -1.759  13.730  22.903  0.00  0.00    +0.000 A 
ATOM      6  C   UNL     1      -1.691  14.868  23.715  0.00  0.00    +0.000 A 
ATOM      7  C   UNL     1      -0.885  15.955  23.345  0.00  0.00    +0.000 A 
ATOM      8  C   UNL     1      -0.095  15.896  22.191  0.00  0.00    +0.000 A 
ATOM      9  C   UNL     1      -0.100  14.725  21.432  0.00  0.00    +0.000 A 
ATOM     10  N   UNL     1       0.849  14.513  20.373  0.00  0.00    +0.000 N 
ATOM     11  C   UNL     1       1.250  13.134  20.395  0.00  0.00    +0.000 A 
ATOM     12  O   UNL     1       2.297  12.777  20.924  0.00  0.00    +0.000 OA
ENDROOT
BRANCH   1  13
ATOM     13  C   UNL     1       0.229  11.439  18.925  0.00  0.00    +0.000 C 
BRANCH  13  17
ATOM     14  C   UNL     1       2.217   7.548  19.130  0.00  0.00    +0.000 A 
ATOM     15  C   UNL     1       2.275   8.303  17.952  0.00  0.00    +0.000 A 
ATOM     16  C   UNL     1       1.621   9.552  17.863  0.00  0.00    +0.000 A 
ATOM     17  C   UNL     1       0.903  10.073  18.955  0.00  0.00    +0.000 A 
ATOM     18  C   UNL     1       0.923   9.341  20.153  0.00  0.00    +0.000 A 
ATOM     19  C   UNL     1       1.549   8.090  20.236  0.00  0.00    +0.000 A 
BRANCH  14  21
ATOM     20  N   UNL     1       3.381   5.645  18.151  0.00  0.00    +0.000 N 
ATOM     21  C   UNL     1       2.798   6.176  19.280  0.00  0.00    +0.000 C 
ATOM     22  O   UNL     1       2.771   5.619  20.364  0.00  0.00    +0.000 OA
ATOM     23  H   UNL     1       3.501   6.208  17.321  0.00  0.00    +0.000 HD
BRANCH  20  24
ATOM     24  C   UNL     1       4.063   4.348  18.183  0.00  0.00    +0.000 C 
BRANCH  24  25
ATOM     25  C   UNL     1       4.718   4.012  16.852  0.00  0.00    +0.000 C 
BRANCH  25  26
ATOM     26  C   UNL     1       5.650   5.133  16.391  0.00  0.00    +0.000 C 
BRANCH  26  28
ATOM     27  C   UNL     1       7.614   4.724  17.634  0.00  0.00    +0.000 C 
ATOM     28  O   UNL     1       6.468   5.549  17.480  0.00  0.00    +0.000 OA
ENDBRANCH  26  28
ENDBRANCH  25  26
ENDBRANCH  24  25
ENDBRANCH  20  24
ENDBRANCH  14  21
ENDBRANCH  13  17
ENDBRANCH   1  13
BRANCH  10  29
ATOM     29  C   UNL     1       0.334  14.936  19.060  0.00  0.00    +0.000 C 
BRANCH  29  30
ATOM     30  C   UNL     1       0.462  16.367  18.566  0.00  0.00    +0.000 A 
ATOM     31  C   UNL     1      -0.773  17.062  18.505  0.00  0.00    +0.000 A 
ATOM     32  C   UNL     1      -0.953  18.184  17.700  0.00  0.00    +0.000 A 
ATOM     33  C   UNL     1       0.094  18.627  16.909  0.00  0.00    +0.000 A 
ATOM     34  C   UNL     1       1.343  18.017  17.017  0.00  0.00    +0.000 A 
ATOM     35  C   UNL     1       1.565  16.927  17.889  0.00  0.00    +0.000 A 
ATOM     36  C   UNL     1       2.984  16.459  18.053  0.00  0.00    +0.000 C 
ENDBRANCH  29  30
ENDBRANCH  10  29
TORSDOF 9
ENDMDL
MODEL 9
REMARK VINA RESULT:      -8.1      2.495      3.834
REMARK  Name = 
REMARK  11 active torsions:
REMARK  status: ('A' for Active; 'I' for Inactive)
REMARK    1  A    between atoms: C_1  and  O_2
REMARK    2  A    between atoms: O_2  and  C_3
REMARK    3  A    between atoms: C_3  and  C_4
REMARK    4  A    between atoms: C_4  and  C_5
REMARK    5  A    between atoms: C_5  and  N_6
REMARK    6  A    between atoms: C_7  and  C_9
REMARK    7  A    between atoms: C_12  and  C_13
REMARK    8  A    between atoms: C_13  and  N_14
REMARK    9  A    between atoms: N_23  and  C_24
REMARK   10  A    between atoms: C_24  and  C_25
REMARK   11  A    between atoms: C_30  and  C_31
REMARK                            x       y       z     vdW  Elec       q    Type
REMARK                         _______ _______ _______ _____ _____    ______ ____
ROOT
ATOM      1  N   UNL     1       0.231  11.672  19.937  0.00  0.00    +0.000 N 
ATOM      2  C   UNL     1       1.171  12.631  20.297  0.00  0.00    +0.000 A 
ATOM      3  O   UNL     1       2.094  12.441  21.087  0.00  0.00    +0.000 OA
ATOM      4  C   UNL     1       0.909  13.996  19.760  0.00  0.00    +0.000 A 
ATOM      5  C   UNL     1       1.931  14.913  19.501  0.00  0.00    +0.000 A 
ATOM      6  C   UNL     1       1.600  16.190  19.032  0.00  0.00    +0.000 A 
ATOM      7  C   UNL     1       0.257  16.570  18.899  0.00  0.00    +0.000 A 
ATOM      8  C   UNL     1      -0.771  15.663  19.180  0.00  0.00    +0.000 A 
ATOM      9  C   UNL     1      -0.436  14.364  19.563  0.00  0.00    +0.000 A 
ATOM     10  N   UNL     1      -1.426  13.325  19.643  0.00  0.00    +0.000 N 
ATOM     11  C   UNL     1      -0.843  12.104  19.160  0.00  0.00    +0.000 A 
ATOM     12  O   UNL     1      -1.036  11.709  18.016  0.00  0.00    +0.000 OA
ENDROOT
BRANCH   1  13
ATOM     13  C   UNL     1       0.107  10.405  20.672  0.00  0.00    +0.000 C 
BRANCH  13  17
ATOM     14  C   UNL     1       2.458   6.963  19.352  0.00  0.00    +0.000 A 
ATOM     15  C   UNL     1       1.866   6.961  20.622  0.00  0.00    +0.000 A 
ATOM     16  C   UNL     1       1.122   8.074  21.070  0.00  0.00    +0.000 A 
ATOM     17  C   UNL     1       0.948   9.207  20.254  0.00  0.00    +0.000 A 
ATOM     18  C   UNL     1       1.478   9.158  18.955  0.00  0.00    +0.000 A 
ATOM     19  C   UNL     1       2.240   8.066  18.516  0.00  0.00    +0.000 A 
BRANCH  14  21
ATOM     20  N   UNL     1       2.759   5.001  17.939  0.00  0.00    +0.000 N 
ATOM     21  C   UNL     1       3.342   5.869  18.834  0.00  0.00    +0.000 C 
ATOM     22  O   UNL     1       4.509   5.817  19.178  0.00  0.00    +0.000 OA
ATOM     23  H   UNL     1       1.830   5.177  17.582  0.00  0.00    +0.000 HD
BRANCH  20  24
ATOM     24  C   UNL     1       3.534   3.940  17.290  0.00  0.00    +0.000 C 
BRANCH  24  25
ATOM     25  C   UNL     1       2.981   2.556  17.596  0.00  0.00    +0.000 C 
BRANCH  25  26
ATOM     26  C   UNL     1       3.019   2.260  19.095  0.00  0.00    +0.000 C 
BRANCH  26  28
ATOM     27  C   UNL     1       0.669   2.364  18.898  0.00  0.00    +0.000 C 
ATOM     28  O   UNL     1       1.799   2.688  19.695  0.00  0.00    +0.000 OA
ENDBRANCH  26  28
ENDBRANCH  25  26
ENDBRANCH  24  25
ENDBRANCH  20  24
ENDBRANCH  14  21
ENDBRANCH  13  17
ENDBRANCH   1  13
BRANCH  10  29
ATOM     29  C   UNL     1      -1.992  13.190  20.996  0.00  0.00    +0.000 C 
BRANCH  29  30
ATOM     30  C   UNL     1      -3.436  12.780  21.230  0.00  0.00    +0.000 A 
ATOM     31  C   UNL     1      -4.217  12.743  20.046  0.00  0.00    +0.000 A 
ATOM     32  C   UNL     1      -5.607  12.824  20.073  0.00  0.00    +0.000 A 
ATOM     33  C   UNL     1      -6.255  12.972  21.287  0.00  0.00    +0.000 A 
ATOM     34  C   UNL     1      -5.519  12.921  22.471  0.00  0.00    +0.000 A 
ATOM     35  C   UNL     1      -4.115  12.759  22.465  0.00  0.00    +0.000 A 
ATOM     36  C   UNL     1      -3.445  12.545  23.794  0.00  0.00    +0.000 C 
ENDBRANCH  29  30
ENDBRANCH  10  29
TORSDOF 9
ENDMDL
