MODEL 1
REMARK VINA RESULT:      -7.4      0.000      0.000
REMARK  Name = 
REMARK  5 active torsions:
REMARK  status: ('A' for Active; 'I' for Inactive)
REMARK    1  A    between atoms: C_1  and  O_2
REMARK    2  A    between atoms: O_2  and  C_3
REMARK    3  A    between atoms: C_3  and  C_5
REMARK    4  A    between atoms: C_8  and  O_9
REMARK    5  A    between atoms: O_9  and  C_10
REMARK                            x       y       z     vdW  Elec       q    Type
REMARK                         _______ _______ _______ _____ _____    ______ ____
ROOT
ATOM      1  C   UNL     1       5.937   4.696  17.575  0.00  0.00    +0.000 A 
ATOM      2  C   UNL     1       5.074   5.279  18.485  0.00  0.00    +0.000 A 
ATOM      3  C   UNL     1       3.732   4.760  18.422  0.00  0.00    +0.000 A 
ATOM      4  C   UNL     1       2.569   5.101  19.152  0.00  0.00    +0.000 A 
ATOM      5  C   UNL     1       1.391   4.455  18.781  0.00  0.00    +0.000 A 
ATOM      6  N   UNL     1       1.308   3.466  17.865  0.00  0.00    +0.000 NA
ATOM      7  C   UNL     1       2.428   3.100  17.205  0.00  0.00    +0.000 A 
ATOM      8  C   UNL     1       3.634   3.759  17.453  0.00  0.00    +0.000 A 
ATOM      9  S   UNL     1       5.138   3.490  16.665  0.00  0.00    +0.000 S 
ENDROOT
BRANCH   1  10
ATOM     10  C   UNL     1       7.339   4.958  17.317  0.00  0.00    +0.000 C 
ATOM     11  O   UNL     1       8.284   4.248  17.637  0.00  0.00    +0.000 OA
BRANCH  10  13
ATOM     12  C   UNL     1       7.639   7.279  17.483  0.00  0.00    +0.000 C 
ATOM     13  O   UNL     1       7.468   6.140  16.638  0.00  0.00    +0.000 OA
ENDBRANCH  10  13
ENDBRANCH   1  10
BRANCH   4  14
ATOM     14  O   UNL     1       2.644   6.091  20.106  0.00  0.00    +0.000 OA
BRANCH  14  15
ATOM     15  C   UNL     1       2.092   7.329  19.855  0.00  0.00    +0.000 A 
ATOM     16  C   UNL     1       1.381   8.082  20.793  0.00  0.00    +0.000 A 
ATOM     17  C   UNL     1       0.824   9.311  20.431  0.00  0.00    +0.000 A 
ATOM     18  C   UNL     1       1.032   9.815  19.150  0.00  0.00    +0.000 A 
ATOM     19 CL   UNL     1       0.343  11.326  18.707  0.00  0.00    +0.000 Cl
ATOM     20  C   UNL     1       1.799   9.103  18.229  0.00  0.00    +0.000 A 
ATOM     21  C   UNL     1       2.328   7.858  18.583  0.00  0.00    +0.000 A 
ENDBRANCH  14  15
ENDBRANCH   4  14
TORSDOF 4
ENDMDL
MODEL 2
REMARK VINA RESULT:      -7.3      0.788      1.333
REMARK  Name = 
REMARK  5 active torsions:
REMARK  status: ('A' for Active; 'I' for Inactive)
REMARK    1  A    between atoms: C_1  and  O_2
REMARK    2  A    between atoms: O_2  and  C_3
REMARK    3  A    between atoms: C_3  and  C_5
REMARK    4  A    between atoms: C_8  and  O_9
REMARK    5  A    between atoms: O_9  and  C_10
REMARK                            x       y       z     vdW  Elec       q    Type
REMARK                         _______ _______ _______ _____ _____    ______ ____
ROOT
ATOM      1  C   UNL     1       5.560   5.568  16.990  0.00  0.00    +0.000 A 
ATOM      2  C   UNL     1       4.742   5.981  18.026  0.00  0.00    +0.000 A 
ATOM      3  C   UNL     1       3.574   5.157  18.202  0.00  0.00    +0.000 A 
ATOM      4  C   UNL     1       2.498   5.254  19.116  0.00  0.00    +0.000 A 
ATOM      5  C   UNL     1       1.467   4.328  18.962  0.00  0.00    +0.000 A 
ATOM      6  N   UNL     1       1.478   3.299  18.089  0.00  0.00    +0.000 NA
ATOM      7  C   UNL     1       2.530   3.171  17.252  0.00  0.00    +0.000 A 
ATOM      8  C   UNL     1       3.564   4.109  17.280  0.00  0.00    +0.000 A 
ATOM      9  S   UNL     1       4.939   4.159  16.249  0.00  0.00    +0.000 S 
ENDROOT
BRANCH   1  10
ATOM     10  C   UNL     1       6.795   6.140  16.490  0.00  0.00    +0.000 C 
ATOM     11  O   UNL     1       7.667   5.553  15.862  0.00  0.00    +0.000 OA
BRANCH  10  13
ATOM     12  C   UNL     1       7.912   7.795  17.721  0.00  0.00    +0.000 C 
ATOM     13  O   UNL     1       6.854   7.467  16.819  0.00  0.00    +0.000 OA
ENDBRANCH  10  13
ENDBRANCH   1  10
BRANCH   4  14
ATOM     14  O   UNL     1       2.486   6.285  20.028  0.00  0.00    +0.000 OA
BRANCH  14  15
ATOM     15  C   UNL     1       1.986   7.518  19.664  0.00  0.00    +0.000 A 
ATOM     16  C   UNL     1       2.000   8.023  18.362  0.00  0.00    +0.000 A 
ATOM     17  C   UNL     1       1.503   9.302  18.099  0.00  0.00    +0.000 A 
ATOM     18  C   UNL     1       0.936  10.050  19.128  0.00  0.00    +0.000 A 
ATOM     19 CL   UNL     1       0.329  11.625  18.801  0.00  0.00    +0.000 Cl
ATOM     20  C   UNL     1       0.856   9.526  20.417  0.00  0.00    +0.000 A 
ATOM     21  C   UNL     1       1.382   8.258  20.684  0.00  0.00    +0.000 A 
ENDBRANCH  14  15
ENDBRANCH   4  14
TORSDOF 4
ENDMDL
MODEL 3
REMARK VINA RESULT:      -7.1      1.056      1.324
REMARK  Name = 
REMARK  5 active torsions:
REMARK  status: ('A' for Active; 'I' for Inactive)
REMARK    1  A    between atoms: C_1  and  O_2
REMARK    2  A    between atoms: O_2  and  C_3
REMARK    3  A    between atoms: C_3  and  C_5
REMARK    4  A    between atoms: C_8  and  O_9
REMARK    5  A    between atoms: O_9  and  C_10
REMARK                            x       y       z     vdW  Elec       q    Type
REMARK                         _______ _______ _______ _____ _____    ______ ____
ROOT
ATOM      1  C   UNL     1       5.629   5.164  16.948  0.00  0.00    +0.000 A 
ATOM      2  C   UNL     1       4.929   5.837  17.933  0.00  0.00    +0.000 A 
ATOM      3  C   UNL     1       3.703   5.184  18.317  0.00  0.00    +0.000 A 
ATOM      4  C   UNL     1       2.708   5.553  19.253  0.00  0.00    +0.000 A 
ATOM      5  C   UNL     1       1.586   4.729  19.324  0.00  0.00    +0.000 A 
ATOM      6  N   UNL     1       1.438   3.567  18.654  0.00  0.00    +0.000 NA
ATOM      7  C   UNL     1       2.412   3.184  17.799  0.00  0.00    +0.000 A 
ATOM      8  C   UNL     1       3.529   3.998  17.602  0.00  0.00    +0.000 A 
ATOM      9  S   UNL     1       4.827   3.720  16.509  0.00  0.00    +0.000 S 
ENDROOT
BRANCH   1  10
ATOM     10  C   UNL     1       6.874   5.505  16.289  0.00  0.00    +0.000 C 
ATOM     11  O   UNL     1       7.555   6.504  16.491  0.00  0.00    +0.000 OA
BRANCH  10  13
ATOM     12  C   UNL     1       7.201   4.964  14.031  0.00  0.00    +0.000 C 
ATOM     13  O   UNL     1       7.202   4.527  15.391  0.00  0.00    +0.000 OA
ENDBRANCH  10  13
ENDBRANCH   1  10
BRANCH   4  14
ATOM     14  O   UNL     1       2.858   6.724  19.962  0.00  0.00    +0.000 OA
BRANCH  14  15
ATOM     15  C   UNL     1       2.040   7.801  19.690  0.00  0.00    +0.000 A 
ATOM     16  C   UNL     1       1.252   8.454  20.640  0.00  0.00    +0.000 A 
ATOM     17  C   UNL     1       0.424   9.513  20.258  0.00  0.00    +0.000 A 
ATOM     18  C   UNL     1       0.432   9.957  18.938  0.00  0.00    +0.000 A 
ATOM     19 CL   UNL     1      -0.591  11.258  18.472  0.00  0.00    +0.000 Cl
ATOM     20  C   UNL     1       1.266   9.356  17.998  0.00  0.00    +0.000 A 
ATOM     21  C   UNL     1       2.071   8.276  18.376  0.00  0.00    +0.000 A 
ENDBRANCH  14  15
ENDBRANCH   4  14
TORSDOF 4
ENDMDL
MODEL 4
REMARK VINA RESULT:      -6.9      1.445      1.965
REMARK  Name = 
REMARK  5 active torsions:
REMARK  status: ('A' for Active; 'I' for Inactive)
REMARK    1  A    between atoms: C_1  and  O_2
REMARK    2  A    between atoms: O_2  and  C_3
REMARK    3  A    between atoms: C_3  and  C_5
REMARK    4  A    between atoms: C_8  and  O_9
REMARK    5  A    between atoms: O_9  and  C_10
REMARK                            x       y       z     vdW  Elec       q    Type
REMARK                         _______ _______ _______ _____ _____    ______ ____
ROOT
ATOM      1  C   UNL     1       4.952   4.233  17.586  0.00  0.00    +0.000 A 
ATOM      2  C   UNL     1       4.427   5.196  18.427  0.00  0.00    +0.000 A 
ATOM      3  C   UNL     1       3.202   4.794  19.070  0.00  0.00    +0.000 A 
ATOM      4  C   UNL     1       2.354   5.485  19.967  0.00  0.00    +0.000 A 
ATOM      5  C   UNL     1       1.182   4.831  20.343  0.00  0.00    +0.000 A 
ATOM      6  N   UNL     1       0.863   3.564  20.004  0.00  0.00    +0.000 NA
ATOM      7  C   UNL     1       1.698   2.881  19.191  0.00  0.00    +0.000 A 
ATOM      8  C   UNL     1       2.850   3.496  18.697  0.00  0.00    +0.000 A 
ATOM      9  S   UNL     1       3.988   2.822  17.598  0.00  0.00    +0.000 S 
ENDROOT
BRANCH   1  10
ATOM     10  C   UNL     1       6.140   4.266  16.754  0.00  0.00    +0.000 C 
ATOM     11  O   UNL     1       7.194   4.832  17.013  0.00  0.00    +0.000 OA
BRANCH  10  13
ATOM     12  C   UNL     1       6.371   4.201  14.421  0.00  0.00    +0.000 C 
ATOM     13  O   UNL     1       5.920   3.549  15.609  0.00  0.00    +0.000 OA
ENDBRANCH  10  13
ENDBRANCH   1  10
BRANCH   4  14
ATOM     14  O   UNL     1       2.680   6.770  20.341  0.00  0.00    +0.000 OA
BRANCH  14  15
ATOM     15  C   UNL     1       1.971   7.836  19.827  0.00  0.00    +0.000 A 
ATOM     16  C   UNL     1       2.019   8.247  18.493  0.00  0.00    +0.000 A 
ATOM     17  C   UNL     1       1.293   9.365  18.077  0.00  0.00    +0.000 A 
ATOM     18  C   UNL     1       0.470  10.034  18.981  0.00  0.00    +0.000 A 
ATOM     19 CL   UNL     1      -0.419  11.411  18.465  0.00  0.00    +0.000 Cl
ATOM     20  C   UNL     1       0.363   9.588  20.297  0.00  0.00    +0.000 A 
ATOM     21  C   UNL     1       1.115   8.488  20.720  0.00  0.00    +0.000 A 
ENDBRANCH  14  15
ENDBRANCH   4  14
TORSDOF 4
ENDMDL
MODEL 5
REMARK VINA RESULT:      -6.9      1.778      2.082
REMARK  Name = 
REMARK  5 active torsions:
REMARK  status: ('A' for Active; 'I' for Inactive)
REMARK    1  A    between atoms: C_1  and  O_2
REMARK    2  A    between atoms: O_2  and  C_3
REMARK    3  A    between atoms: C_3  and  C_5
REMARK    4  A    between atoms: C_8  and  O_9
REMARK    5  A    between atoms: O_9  and  C_10
REMARK                            x       y       z     vdW  Elec       q    Type
REMARK                         _______ _______ _______ _____ _____    ______ ____
ROOT
ATOM      1  C   UNL     1       4.352   5.342  16.978  0.00  0.00    +0.000 A 
ATOM      2  C   UNL     1       3.902   6.194  17.970  0.00  0.00    +0.000 A 
ATOM      3  C   UNL     1       2.955   5.583  18.868  0.00  0.00    +0.000 A 
ATOM      4  C   UNL     1       2.254   6.111  19.978  0.00  0.00    +0.000 A 
ATOM      5  C   UNL     1       1.333   5.263  20.591  0.00  0.00    +0.000 A 
ATOM      6  N   UNL     1       1.149   3.964  20.273  0.00  0.00    +0.000 NA
ATOM      7  C   UNL     1       1.857   3.442  19.248  0.00  0.00    +0.000 A 
ATOM      8  C   UNL     1       2.737   4.248  18.523  0.00  0.00    +0.000 A 
ATOM      9  S   UNL     1       3.662   3.788  17.149  0.00  0.00    +0.000 S 
ENDROOT
BRANCH   1  10
ATOM     10  C   UNL     1       5.277   5.585  15.888  0.00  0.00    +0.000 C 
ATOM     11  O   UNL     1       5.402   6.629  15.259  0.00  0.00    +0.000 OA
BRANCH  10  13
ATOM     12  C   UNL     1       7.064   4.641  14.697  0.00  0.00    +0.000 C 
ATOM     13  O   UNL     1       6.020   4.460  15.655  0.00  0.00    +0.000 OA
ENDBRANCH  10  13
ENDBRANCH   1  10
BRANCH   4  14
ATOM     14  O   UNL     1       2.451   7.428  20.329  0.00  0.00    +0.000 OA
BRANCH  14  15
ATOM     15  C   UNL     1       1.506   8.375  19.996  0.00  0.00    +0.000 A 
ATOM     16  C   UNL     1       0.544   8.875  20.876  0.00  0.00    +0.000 A 
ATOM     17  C   UNL     1      -0.398   9.807  20.433  0.00  0.00    +0.000 A 
ATOM     18  C   UNL     1      -0.338  10.284  19.126  0.00  0.00    +0.000 A 
ATOM     19 CL   UNL     1      -1.501  11.427  18.582  0.00  0.00    +0.000 Cl
ATOM     20  C   UNL     1       0.661   9.842  18.260  0.00  0.00    +0.000 A 
ATOM     21  C   UNL     1       1.584   8.886  18.697  0.00  0.00    +0.000 A 
ENDBRANCH  14  15
ENDBRANCH   4  14
TORSDOF 4
ENDMDL
MODEL 6
REMARK VINA RESULT:      -6.8      2.799      5.493
REMARK  Name = 
REMARK  5 active torsions:
REMARK  status: ('A' for Active; 'I' for Inactive)
REMARK    1  A    between atoms: C_1  and  O_2
REMARK    2  A    between atoms: O_2  and  C_3
REMARK    3  A    between atoms: C_3  and  C_5
REMARK    4  A    between atoms: C_8  and  O_9
REMARK    5  A    between atoms: O_9  and  C_10
REMARK                            x       y       z     vdW  Elec       q    Type
REMARK                         _______ _______ _______ _____ _____    ______ ____
ROOT
ATOM      1  C   UNL     1       2.141   6.257  19.771  0.00  0.00    +0.000 A 
ATOM      2  C   UNL     1       2.998   5.866  18.759  0.00  0.00    +0.000 A 
ATOM      3  C   UNL     1       3.121   4.436  18.629  0.00  0.00    +0.000 A 
ATOM      4  C   UNL     1       3.900   3.647  17.750  0.00  0.00    +0.000 A 
ATOM      5  C   UNL     1       3.852   2.268  17.945  0.00  0.00    +0.000 A 
ATOM      6  N   UNL     1       3.042   1.641  18.825  0.00  0.00    +0.000 NA
ATOM      7  C   UNL     1       2.256   2.390  19.629  0.00  0.00    +0.000 A 
ATOM      8  C   UNL     1       2.310   3.783  19.559  0.00  0.00    +0.000 A 
ATOM      9  S   UNL     1       1.449   4.899  20.543  0.00  0.00    +0.000 S 
ENDROOT
BRANCH   1  10
ATOM     10  C   UNL     1       1.777   7.586  20.224  0.00  0.00    +0.000 C 
ATOM     11  O   UNL     1       1.485   7.910  21.369  0.00  0.00    +0.000 OA
BRANCH  10  13
ATOM     12  C   UNL     1       1.005   9.621  19.350  0.00  0.00    +0.000 C 
ATOM     13  O   UNL     1       1.815   8.458  19.170  0.00  0.00    +0.000 OA
ENDBRANCH  10  13
ENDBRANCH   1  10
BRANCH   4  14
ATOM     14  O   UNL     1       4.712   4.273  16.830  0.00  0.00    +0.000 OA
BRANCH  14  15
ATOM     15  C   UNL     1       5.677   5.161  17.259  0.00  0.00    +0.000 A 
ATOM     16  C   UNL     1       6.689   4.848  18.169  0.00  0.00    +0.000 A 
ATOM     17  C   UNL     1       7.598   5.829  18.572  0.00  0.00    +0.000 A 
ATOM     18  C   UNL     1       7.532   7.105  18.018  0.00  0.00    +0.000 A 
ATOM     19 CL   UNL     1       8.651   8.310  18.519  0.00  0.00    +0.000 Cl
ATOM     20  C   UNL     1       6.568   7.406  17.057  0.00  0.00    +0.000 A 
ATOM     21  C   UNL     1       5.640   6.432  16.679  0.00  0.00    +0.000 A 
ENDBRANCH  14  15
ENDBRANCH   4  14
TORSDOF 4
ENDMDL
MODEL 7
REMARK VINA RESULT:      -6.8      1.217      1.773
REMARK  Name = 
REMARK  5 active torsions:
REMARK  status: ('A' for Active; 'I' for Inactive)
REMARK    1  A    between atoms: C_1  and  O_2
REMARK    2  A    between atoms: O_2  and  C_3
REMARK    3  A    between atoms: C_3  and  C_5
REMARK    4  A    between atoms: C_8  and  O_9
REMARK    5  A    between atoms: O_9  and  C_10
REMARK                            x       y       z     vdW  Elec       q    Type
REMARK                         _______ _______ _______ _____ _____    ______ ____
ROOT
ATOM      1  C   UNL     1       5.439   5.011  16.552  0.00  0.00    +0.000 A 
ATOM      2  C   UNL     1       4.822   5.688  17.587  0.00  0.00    +0.000 A 
ATOM      3  C   UNL     1       3.657   5.017  18.103  0.00  0.00    +0.000 A 
ATOM      4  C   UNL     1       2.750   5.383  19.125  0.00  0.00    +0.000 A 
ATOM      5  C   UNL     1       1.661   4.536  19.323  0.00  0.00    +0.000 A 
ATOM      6  N   UNL     1       1.477   3.356  18.693  0.00  0.00    +0.000 NA
ATOM      7  C   UNL     1       2.371   2.977  17.754  0.00  0.00    +0.000 A 
ATOM      8  C   UNL     1       3.443   3.811  17.432  0.00  0.00    +0.000 A 
ATOM      9  S   UNL     1       4.634   3.540  16.222  0.00  0.00    +0.000 S 
ENDROOT
BRANCH   1  10
ATOM     10  C   UNL     1       6.605   5.366  15.766  0.00  0.00    +0.000 C 
ATOM     11  O   UNL     1       7.513   6.113  16.109  0.00  0.00    +0.000 OA
BRANCH  10  13
ATOM     12  C   UNL     1       7.556   5.159  13.632  0.00  0.00    +0.000 C 
ATOM     13  O   UNL     1       6.557   4.726  14.557  0.00  0.00    +0.000 OA
ENDBRANCH  10  13
ENDBRANCH   1  10
BRANCH   4  14
ATOM     14  O   UNL     1       2.940   6.572  19.793  0.00  0.00    +0.000 OA
BRANCH  14  15
ATOM     15  C   UNL     1       2.194   7.680  19.448  0.00  0.00    +0.000 A 
ATOM     16  C   UNL     1       2.109   8.204  18.156  0.00  0.00    +0.000 A 
ATOM     17  C   UNL     1       1.357   9.356  17.913  0.00  0.00    +0.000 A 
ATOM     18  C   UNL     1       0.639   9.947  18.950  0.00  0.00    +0.000 A 
ATOM     19 CL   UNL     1      -0.282  11.366  18.648  0.00  0.00    +0.000 Cl
ATOM     20  C   UNL     1       0.663   9.390  20.228  0.00  0.00    +0.000 A 
ATOM     21  C   UNL     1       1.441   8.255  20.475  0.00  0.00    +0.000 A 
ENDBRANCH  14  15
ENDBRANCH   4  14
TORSDOF 4
ENDMDL
MODEL 8
REMARK VINA RESULT:      -6.8      4.030      5.452
REMARK  Name = 
REMARK  5 active torsions:
REMARK  status: ('A' for Active; 'I' for Inactive)
REMARK    1  A    between atoms: C_1  and  O_2
REMARK    2  A    between atoms: O_2  and  C_3
REMARK    3  A    between atoms: C_3  and  C_5
REMARK    4  A    between atoms: C_8  and  O_9
REMARK    5  A    between atoms: O_9  and  C_10
REMARK                            x       y       z     vdW  Elec       q    Type
REMARK                         _______ _______ _______ _____ _____    ______ ____
ROOT
ATOM      1  C   UNL     1       6.205   4.075  13.760  0.00  0.00    +0.000 A 
ATOM      2  C   UNL     1       5.163   4.033  14.668  0.00  0.00    +0.000 A 
ATOM      3  C   UNL     1       5.422   4.770  15.879  0.00  0.00    +0.000 A 
ATOM      4  C   UNL     1       4.637   4.951  17.042  0.00  0.00    +0.000 A 
ATOM      5  C   UNL     1       5.226   5.664  18.084  0.00  0.00    +0.000 A 
ATOM      6  N   UNL     1       6.428   6.276  18.018  0.00  0.00    +0.000 NA
ATOM      7  C   UNL     1       7.157   6.150  16.888  0.00  0.00    +0.000 A 
ATOM      8  C   UNL     1       6.678   5.377  15.829  0.00  0.00    +0.000 A 
ATOM      9  S   UNL     1       7.488   5.038  14.351  0.00  0.00    +0.000 S 
ENDROOT
BRANCH   1  10
ATOM     10  C   UNL     1       6.335   3.451  12.458  0.00  0.00    +0.000 C 
ATOM     11  O   UNL     1       7.281   3.564  11.688  0.00  0.00    +0.000 OA
BRANCH  10  13
ATOM     12  C   UNL     1       4.299   3.297  11.304  0.00  0.00    +0.000 C 
ATOM     13  O   UNL     1       5.229   2.688  12.201  0.00  0.00    +0.000 OA
ENDBRANCH  10  13
ENDBRANCH   1  10
BRANCH   4  14
ATOM     14  O   UNL     1       3.398   4.354  17.112  0.00  0.00    +0.000 OA
BRANCH  14  15
ATOM     15  C   UNL     1       2.942   3.861  18.317  0.00  0.00    +0.000 A 
ATOM     16  C   UNL     1       3.613   2.907  19.086  0.00  0.00    +0.000 A 
ATOM     17  C   UNL     1       3.049   2.441  20.276  0.00  0.00    +0.000 A 
ATOM     18  C   UNL     1       1.844   2.974  20.727  0.00  0.00    +0.000 A 
ATOM     19 CL   UNL     1       1.151   2.395  22.190  0.00  0.00    +0.000 Cl
ATOM     20  C   UNL     1       1.202   3.976  20.001  0.00  0.00    +0.000 A 
ATOM     21  C   UNL     1       1.752   4.419  18.795  0.00  0.00    +0.000 A 
ENDBRANCH  14  15
ENDBRANCH   4  14
TORSDOF 4
ENDMDL
MODEL 9
REMARK VINA RESULT:      -6.8      1.170      1.282
REMARK  Name = 
REMARK  5 active torsions:
REMARK  status: ('A' for Active; 'I' for Inactive)
REMARK    1  A    between atoms: C_1  and  O_2
REMARK    2  A    between atoms: O_2  and  C_3
REMARK    3  A    between atoms: C_3  and  C_5
REMARK    4  A    between atoms: C_8  and  O_9
REMARK    5  A    between atoms: O_9  and  C_10
REMARK                            x       y       z     vdW  Elec       q    Type
REMARK                         _______ _______ _______ _____ _____    ______ ____
ROOT
ATOM      1  C   UNL     1       5.302   4.562  18.230  0.00  0.00    +0.000 A 
ATOM      2  C   UNL     1       4.564   5.334  19.108  0.00  0.00    +0.000 A 
ATOM      3  C   UNL     1       3.264   4.789  19.403  0.00  0.00    +0.000 A 
ATOM      4  C   UNL     1       2.216   5.276  20.219  0.00  0.00    +0.000 A 
ATOM      5  C   UNL     1       1.036   4.535  20.223  0.00  0.00    +0.000 A 
ATOM      6  N   UNL     1       0.867   3.349  19.600  0.00  0.00    +0.000 NA
ATOM      7  C   UNL     1       1.885   2.854  18.864  0.00  0.00    +0.000 A 
ATOM      8  C   UNL     1       3.072   3.578  18.735  0.00  0.00    +0.000 A 
ATOM      9  S   UNL     1       4.442   3.153  17.787  0.00  0.00    +0.000 S 
ENDROOT
BRANCH   1  10
ATOM     10  C   UNL     1       6.625   4.781  17.678  0.00  0.00    +0.000 C 
ATOM     11  O   UNL     1       7.689   4.446  18.183  0.00  0.00    +0.000 OA
BRANCH  10  13
ATOM     12  C   UNL     1       6.961   4.645  15.360  0.00  0.00    +0.000 C 
ATOM     13  O   UNL     1       6.520   5.424  16.474  0.00  0.00    +0.000 OA
ENDBRANCH  10  13
ENDBRANCH   1  10
BRANCH   4  14
ATOM     14  O   UNL     1       2.384   6.472  20.880  0.00  0.00    +0.000 OA
BRANCH  14  15
ATOM     15  C   UNL     1       1.749   7.606  20.419  0.00  0.00    +0.000 A 
ATOM     16  C   UNL     1       0.878   8.390  21.180  0.00  0.00    +0.000 A 
ATOM     17  C   UNL     1       0.252   9.500  20.609  0.00  0.00    +0.000 A 
ATOM     18  C   UNL     1       0.544   9.863  19.297  0.00  0.00    +0.000 A 
ATOM     19 CL   UNL     1      -0.232  11.227  18.597  0.00  0.00    +0.000 Cl
ATOM     20  C   UNL     1       1.464   9.126  18.552  0.00  0.00    +0.000 A 
ATOM     21  C   UNL     1       2.066   7.997  19.115  0.00  0.00    +0.000 A 
ENDBRANCH  14  15
ENDBRANCH   4  14
TORSDOF 4
ENDMDL
