MODEL 1
REMARK VINA RESULT:      -7.2      0.000      0.000
REMARK  Name = 
REMARK  7 active torsions:
REMARK  status: ('A' for Active; 'I' for Inactive)
REMARK    1  A    between atoms: C_1  and  O_2
REMARK    2  A    between atoms: O_2  and  C_3
REMARK    3  A    between atoms: C_6  and  C_7
REMARK    4  A    between atoms: N_8  and  N_9
REMARK    5  A    between atoms: C_12  and  C_13
REMARK    6  A    between atoms: C_23  and  O_24
REMARK    7  A    between atoms: O_24  and  C_25
REMARK                            x       y       z     vdW  Elec       q    Type
REMARK                         _______ _______ _______ _____ _____    ______ ____
ROOT
ATOM      1  N   UNL     1       2.140   9.655  18.147  0.00  0.00    +0.000 N 
ATOM      2  C   UNL     1       1.241  10.167  19.118  0.00  0.00    +0.000 A 
ATOM      3  C   UNL     1       0.966   9.423  20.249  0.00  0.00    +0.000 A 
ATOM      4  C   UNL     1       0.066   9.953  21.134  0.00  0.00    +0.000 A 
ATOM      5  C   UNL     1      -0.335   9.211  22.371  0.00  0.00    +0.000 C 
ATOM      6  N   UNL     1      -0.508  11.151  20.926  0.00  0.00    +0.000 NA
ATOM      7  C   UNL     1      -0.173  11.840  19.823  0.00  0.00    +0.000 A 
ATOM      8  N   UNL     1      -0.714  13.087  19.660  0.00  0.00    +0.000 N 
ATOM      9  C   UNL     1      -0.455  13.901  18.480  0.00  0.00    +0.000 C 
ATOM     10  C   UNL     1      -0.210  15.352  18.931  0.00  0.00    +0.000 C 
ATOM     11  O   UNL     1      -1.288  15.854  19.742  0.00  0.00    +0.000 OA
ATOM     12  C   UNL     1      -1.458  15.035  20.914  0.00  0.00    +0.000 C 
ATOM     13  C   UNL     1      -1.772  13.579  20.540  0.00  0.00    +0.000 C 
ATOM     14  N   UNL     1       0.696  11.377  18.910  0.00  0.00    +0.000 NA
ATOM     15  H   UNL     1       2.100  10.275  17.337  0.00  0.00    +0.000 HD
ENDROOT
BRANCH   1  17
ATOM     16  C   UNL     1       3.173   7.661  17.882  0.00  0.00    +0.000 C 
ATOM     17  N   UNL     1       2.052   8.313  17.937  0.00  0.00    +0.000 NA
BRANCH  16  21
ATOM     18  C   UNL     1       3.037   3.399  17.540  0.00  0.00    +0.000 A 
ATOM     19  C   UNL     1       1.959   4.108  18.065  0.00  0.00    +0.000 A 
ATOM     20  C   UNL     1       2.009   5.496  18.157  0.00  0.00    +0.000 A 
ATOM     21  C   UNL     1       3.140   6.191  17.707  0.00  0.00    +0.000 A 
ATOM     22  C   UNL     1       4.227   5.495  17.157  0.00  0.00    +0.000 A 
ATOM     23  C   UNL     1       4.166   4.094  17.090  0.00  0.00    +0.000 A 
BRANCH  18  25
ATOM     24  C   UNL     1       3.597   1.282  18.472  0.00  0.00    +0.000 C 
ATOM     25  O   UNL     1       2.865   2.043  17.520  0.00  0.00    +0.000 OA
ENDBRANCH  18  25
BRANCH  22  26
ATOM     26  O   UNL     1       5.298   6.243  16.738  0.00  0.00    +0.000 OA
ATOM     27  C   UNL     1       6.518   5.552  16.483  0.00  0.00    +0.000 C 
ENDBRANCH  22  26
ENDBRANCH  16  21
ENDBRANCH   1  17
TORSDOF 4
ENDMDL
MODEL 2
REMARK VINA RESULT:      -7.1      2.128      2.672
REMARK  Name = 
REMARK  7 active torsions:
REMARK  status: ('A' for Active; 'I' for Inactive)
REMARK    1  A    between atoms: C_1  and  O_2
REMARK    2  A    between atoms: O_2  and  C_3
REMARK    3  A    between atoms: C_6  and  C_7
REMARK    4  A    between atoms: N_8  and  N_9
REMARK    5  A    between atoms: C_12  and  C_13
REMARK    6  A    between atoms: C_23  and  O_24
REMARK    7  A    between atoms: O_24  and  C_25
REMARK                            x       y       z     vdW  Elec       q    Type
REMARK                         _______ _______ _______ _____ _____    ______ ____
ROOT
ATOM      1  N   UNL     1       1.107   9.067  21.698  0.00  0.00    +0.000 N 
ATOM      2  C   UNL     1       0.641  10.108  20.855  0.00  0.00    +0.000 A 
ATOM      3  C   UNL     1      -0.453   9.886  20.041  0.00  0.00    +0.000 A 
ATOM      4  C   UNL     1      -0.836  10.917  19.225  0.00  0.00    +0.000 A 
ATOM      5  C   UNL     1      -1.982  10.769  18.274  0.00  0.00    +0.000 C 
ATOM      6  N   UNL     1      -0.193  12.098  19.229  0.00  0.00    +0.000 NA
ATOM      7  C   UNL     1       0.844  12.261  20.067  0.00  0.00    +0.000 A 
ATOM      8  N   UNL     1       1.444  13.492  20.108  0.00  0.00    +0.000 N 
ATOM      9  C   UNL     1       2.603  13.765  20.946  0.00  0.00    +0.000 C 
ATOM     10  C   UNL     1       2.412  15.140  21.611  0.00  0.00    +0.000 C 
ATOM     11  O   UNL     1       2.153  16.175  20.644  0.00  0.00    +0.000 OA
ATOM     12  C   UNL     1       0.969  15.867  19.885  0.00  0.00    +0.000 C 
ATOM     13  C   UNL     1       1.113  14.532  19.139  0.00  0.00    +0.000 C 
ATOM     14  N   UNL     1       1.277  11.292  20.889  0.00  0.00    +0.000 NA
ATOM     15  H   UNL     1       1.991   9.375  22.104  0.00  0.00    +0.000 HD
ENDROOT
BRANCH   1  17
ATOM     16  C   UNL     1       2.067   7.449  20.444  0.00  0.00    +0.000 C 
ATOM     17  N   UNL     1       1.046   7.820  21.155  0.00  0.00    +0.000 NA
BRANCH  16  21
ATOM     18  C   UNL     1       2.191   3.453  18.924  0.00  0.00    +0.000 A 
ATOM     19  C   UNL     1       1.654   3.722  20.181  0.00  0.00    +0.000 A 
ATOM     20  C   UNL     1       1.605   5.028  20.658  0.00  0.00    +0.000 A 
ATOM     21  C   UNL     1       2.083   6.084  19.870  0.00  0.00    +0.000 A 
ATOM     22  C   UNL     1       2.608   5.834  18.593  0.00  0.00    +0.000 A 
ATOM     23  C   UNL     1       2.667   4.507  18.136  0.00  0.00    +0.000 A 
BRANCH  18  25
ATOM     24  C   UNL     1       3.446   1.545  18.255  0.00  0.00    +0.000 C 
ATOM     25  O   UNL     1       2.192   2.128  18.583  0.00  0.00    +0.000 OA
ENDBRANCH  18  25
BRANCH  22  26
ATOM     26  O   UNL     1       3.055   6.917  17.879  0.00  0.00    +0.000 OA
ATOM     27  C   UNL     1       4.360   6.833  17.313  0.00  0.00    +0.000 C 
ENDBRANCH  22  26
ENDBRANCH  16  21
ENDBRANCH   1  17
TORSDOF 4
ENDMDL
MODEL 3
REMARK VINA RESULT:      -6.9      1.974      3.550
REMARK  Name = 
REMARK  7 active torsions:
REMARK  status: ('A' for Active; 'I' for Inactive)
REMARK    1  A    between atoms: C_1  and  O_2
REMARK    2  A    between atoms: O_2  and  C_3
REMARK    3  A    between atoms: C_6  and  C_7
REMARK    4  A    between atoms: N_8  and  N_9
REMARK    5  A    between atoms: C_12  and  C_13
REMARK    6  A    between atoms: C_23  and  O_24
REMARK    7  A    between atoms: O_24  and  C_25
REMARK                            x       y       z     vdW  Elec       q    Type
REMARK                         _______ _______ _______ _____ _____    ______ ____
ROOT
ATOM      1  N   UNL     1       1.209   8.514  19.025  0.00  0.00    +0.000 N 
ATOM      2  C   UNL     1       1.182   9.907  19.291  0.00  0.00    +0.000 A 
ATOM      3  C   UNL     1       1.802  10.778  18.417  0.00  0.00    +0.000 A 
ATOM      4  C   UNL     1       1.771  12.108  18.744  0.00  0.00    +0.000 A 
ATOM      5  C   UNL     1       2.448  13.133  17.888  0.00  0.00    +0.000 C 
ATOM      6  N   UNL     1       1.148  12.550  19.850  0.00  0.00    +0.000 NA
ATOM      7  C   UNL     1       0.535  11.655  20.642  0.00  0.00    +0.000 A 
ATOM      8  N   UNL     1      -0.153  12.128  21.727  0.00  0.00    +0.000 N 
ATOM      9  C   UNL     1      -0.815  11.243  22.676  0.00  0.00    +0.000 C 
ATOM     10  C   UNL     1      -2.191  11.838  23.022  0.00  0.00    +0.000 C 
ATOM     11  O   UNL     1      -2.089  13.197  23.488  0.00  0.00    +0.000 OA
ATOM     12  C   UNL     1      -1.472  14.026  22.485  0.00  0.00    +0.000 C 
ATOM     13  C   UNL     1      -0.062  13.527  22.134  0.00  0.00    +0.000 C 
ATOM     14  N   UNL     1       0.533  10.336  20.387  0.00  0.00    +0.000 NA
ATOM     15  H   UNL     1       0.829   8.039  19.844  0.00  0.00    +0.000 HD
ENDROOT
BRANCH   1  17
ATOM     16  C   UNL     1       2.520   6.766  18.441  0.00  0.00    +0.000 C 
ATOM     17  N   UNL     1       2.378   8.055  18.499  0.00  0.00    +0.000 NA
BRANCH  16  21
ATOM     18  C   UNL     1       6.034   5.236  16.541  0.00  0.00    +0.000 A 
ATOM     19  C   UNL     1       5.807   6.608  16.624  0.00  0.00    +0.000 A 
ATOM     20  C   UNL     1       4.667   7.094  17.258  0.00  0.00    +0.000 A 
ATOM     21  C   UNL     1       3.747   6.206  17.831  0.00  0.00    +0.000 A 
ATOM     22  C   UNL     1       3.970   4.821  17.776  0.00  0.00    +0.000 A 
ATOM     23  C   UNL     1       5.116   4.349  17.115  0.00  0.00    +0.000 A 
BRANCH  18  25
ATOM     24  C   UNL     1       7.109   4.798  14.463  0.00  0.00    +0.000 C 
ATOM     25  O   UNL     1       7.181   4.893  15.880  0.00  0.00    +0.000 OA
ENDBRANCH  18  25
BRANCH  22  26
ATOM     26  O   UNL     1       3.027   4.014  18.360  0.00  0.00    +0.000 OA
ATOM     27  C   UNL     1       3.443   3.219  19.467  0.00  0.00    +0.000 C 
ENDBRANCH  22  26
ENDBRANCH  16  21
ENDBRANCH   1  17
TORSDOF 4
ENDMDL
MODEL 4
REMARK VINA RESULT:      -6.8      2.494      9.221
REMARK  Name = 
REMARK  7 active torsions:
REMARK  status: ('A' for Active; 'I' for Inactive)
REMARK    1  A    between atoms: C_1  and  O_2
REMARK    2  A    between atoms: O_2  and  C_3
REMARK    3  A    between atoms: C_6  and  C_7
REMARK    4  A    between atoms: N_8  and  N_9
REMARK    5  A    between atoms: C_12  and  C_13
REMARK    6  A    between atoms: C_23  and  O_24
REMARK    7  A    between atoms: O_24  and  C_25
REMARK                            x       y       z     vdW  Elec       q    Type
REMARK                         _______ _______ _______ _____ _____    ______ ____
ROOT
ATOM      1  N   UNL     1       1.683   8.990  17.996  0.00  0.00    +0.000 N 
ATOM      2  C   UNL     1       2.322   7.775  18.353  0.00  0.00    +0.000 A 
ATOM      3  C   UNL     1       1.833   7.035  19.412  0.00  0.00    +0.000 A 
ATOM      4  C   UNL     1       2.511   5.888  19.731  0.00  0.00    +0.000 A 
ATOM      5  C   UNL     1       2.090   5.034  20.886  0.00  0.00    +0.000 C 
ATOM      6  N   UNL     1       3.589   5.488  19.035  0.00  0.00    +0.000 NA
ATOM      7  C   UNL     1       3.996   6.236  17.995  0.00  0.00    +0.000 A 
ATOM      8  N   UNL     1       5.053   5.779  17.255  0.00  0.00    +0.000 N 
ATOM      9  C   UNL     1       5.604   6.531  16.136  0.00  0.00    +0.000 C 
ATOM     10  C   UNL     1       5.890   5.553  14.983  0.00  0.00    +0.000 C 
ATOM     11  O   UNL     1       6.729   4.460  15.400  0.00  0.00    +0.000 OA
ATOM     12  C   UNL     1       6.105   3.729  16.472  0.00  0.00    +0.000 C 
ATOM     13  C   UNL     1       5.846   4.631  17.688  0.00  0.00    +0.000 C 
ATOM     14  N   UNL     1       3.383   7.374  17.632  0.00  0.00    +0.000 NA
ATOM     15  H   UNL     1       2.268   9.449  17.298  0.00  0.00    +0.000 HD
ENDROOT
BRANCH   1  17
ATOM     16  C   UNL     1      -0.023  10.058  19.026  0.00  0.00    +0.000 C 
ATOM     17  N   UNL     1       1.232   9.729  19.046  0.00  0.00    +0.000 NA
BRANCH  16  21
ATOM     18  C   UNL     1      -1.677  12.108  22.396  0.00  0.00    +0.000 A 
ATOM     19  C   UNL     1      -0.666  11.163  22.561  0.00  0.00    +0.000 A 
ATOM     20  C   UNL     1      -0.126  10.514  21.455  0.00  0.00    +0.000 A 
ATOM     21  C   UNL     1      -0.585  10.818  20.166  0.00  0.00    +0.000 A 
ATOM     22  C   UNL     1      -1.588  11.781  19.979  0.00  0.00    +0.000 A 
ATOM     23  C   UNL     1      -2.134  12.412  21.109  0.00  0.00    +0.000 A 
BRANCH  18  25
ATOM     24  C   UNL     1      -3.512  12.511  23.857  0.00  0.00    +0.000 C 
ATOM     25  O   UNL     1      -2.129  12.659  23.563  0.00  0.00    +0.000 OA
ENDBRANCH  18  25
BRANCH  22  26
ATOM     26  O   UNL     1      -1.985  12.027  18.690  0.00  0.00    +0.000 OA
ATOM     27  C   UNL     1      -3.287  11.589  18.313  0.00  0.00    +0.000 C 
ENDBRANCH  22  26
ENDBRANCH  16  21
ENDBRANCH   1  17
TORSDOF 4
ENDMDL
MODEL 5
REMARK VINA RESULT:      -6.8      2.247      3.412
REMARK  Name = 
REMARK  7 active torsions:
REMARK  status: ('A' for Active; 'I' for Inactive)
REMARK    1  A    between atoms: C_1  and  O_2
REMARK    2  A    between atoms: O_2  and  C_3
REMARK    3  A    between atoms: C_6  and  C_7
REMARK    4  A    between atoms: N_8  and  N_9
REMARK    5  A    between atoms: C_12  and  C_13
REMARK    6  A    between atoms: C_23  and  O_24
REMARK    7  A    between atoms: O_24  and  C_25
REMARK                            x       y       z     vdW  Elec       q    Type
REMARK                         _______ _______ _______ _____ _____    ______ ____
ROOT
ATOM      1  N   UNL     1       0.607   8.966  21.392  0.00  0.00    +0.000 N 
ATOM      2  C   UNL     1      -0.134   9.994  20.754  0.00  0.00    +0.000 A 
ATOM      3  C   UNL     1      -0.627   9.786  19.481  0.00  0.00    +0.000 A 
ATOM      4  C   UNL     1      -1.307  10.826  18.904  0.00  0.00    +0.000 A 
ATOM      5  C   UNL     1      -1.847  10.722  17.512  0.00  0.00    +0.000 C 
ATOM      6  N   UNL     1      -1.505  11.987  19.552  0.00  0.00    +0.000 NA
ATOM      7  C   UNL     1      -1.028  12.114  20.801  0.00  0.00    +0.000 A 
ATOM      8  N   UNL     1      -1.298  13.277  21.472  0.00  0.00    +0.000 N 
ATOM      9  C   UNL     1      -0.792  13.538  22.813  0.00  0.00    +0.000 C 
ATOM     10  C   UNL     1      -1.918  14.175  23.646  0.00  0.00    +0.000 C 
ATOM     11  O   UNL     1      -2.465  15.344  23.008  0.00  0.00    +0.000 OA
ATOM     12  C   UNL     1      -2.991  15.008  21.711  0.00  0.00    +0.000 C 
ATOM     13  C   UNL     1      -1.903  14.422  20.798  0.00  0.00    +0.000 C 
ATOM     14  N   UNL     1      -0.347  11.139  21.425  0.00  0.00    +0.000 NA
ATOM     15  H   UNL     1       0.998   9.359  22.249  0.00  0.00    +0.000 HD
ENDROOT
BRANCH   1  17
ATOM     16  C   UNL     1       1.544   6.992  20.810  0.00  0.00    +0.000 C 
ATOM     17  N   UNL     1       1.434   8.263  20.570  0.00  0.00    +0.000 NA
BRANCH  16  21
ATOM     18  C   UNL     1       3.877   4.636  18.107  0.00  0.00    +0.000 A 
ATOM     19  C   UNL     1       3.556   5.958  17.807  0.00  0.00    +0.000 A 
ATOM     20  C   UNL     1       2.809   6.719  18.702  0.00  0.00    +0.000 A 
ATOM     21  C   UNL     1       2.388   6.165  19.918  0.00  0.00    +0.000 A 
ATOM     22  C   UNL     1       2.720   4.841  20.246  0.00  0.00    +0.000 A 
ATOM     23  C   UNL     1       3.458   4.082  19.323  0.00  0.00    +0.000 A 
BRANCH  18  25
ATOM     24  C   UNL     1       5.830   4.595  16.748  0.00  0.00    +0.000 C 
ATOM     25  O   UNL     1       4.601   3.997  17.138  0.00  0.00    +0.000 OA
ENDBRANCH  18  25
BRANCH  22  26
ATOM     26  O   UNL     1       2.274   4.367  21.454  0.00  0.00    +0.000 OA
ATOM     27  C   UNL     1       1.825   3.016  21.500  0.00  0.00    +0.000 C 
ENDBRANCH  22  26
ENDBRANCH  16  21
ENDBRANCH   1  17
TORSDOF 4
ENDMDL
MODEL 6
REMARK VINA RESULT:      -6.8      2.210      9.222
REMARK  Name = 
REMARK  7 active torsions:
REMARK  status: ('A' for Active; 'I' for Inactive)
REMARK    1  A    between atoms: C_1  and  O_2
REMARK    2  A    between atoms: O_2  and  C_3
REMARK    3  A    between atoms: C_6  and  C_7
REMARK    4  A    between atoms: N_8  and  N_9
REMARK    5  A    between atoms: C_12  and  C_13
REMARK    6  A    between atoms: C_23  and  O_24
REMARK    7  A    between atoms: O_24  and  C_25
REMARK                            x       y       z     vdW  Elec       q    Type
REMARK                         _______ _______ _______ _____ _____    ______ ____
ROOT
ATOM      1  N   UNL     1       1.793   9.036  17.917  0.00  0.00    +0.000 N 
ATOM      2  C   UNL     1       2.398   7.802  18.269  0.00  0.00    +0.000 A 
ATOM      3  C   UNL     1       1.940   7.110  19.372  0.00  0.00    +0.000 A 
ATOM      4  C   UNL     1       2.585   5.942  19.681  0.00  0.00    +0.000 A 
ATOM      5  C   UNL     1       2.195   5.134  20.881  0.00  0.00    +0.000 C 
ATOM      6  N   UNL     1       3.601   5.477  18.935  0.00  0.00    +0.000 NA
ATOM      7  C   UNL     1       3.979   6.181  17.855  0.00  0.00    +0.000 A 
ATOM      8  N   UNL     1       4.970   5.660  17.068  0.00  0.00    +0.000 N 
ATOM      9  C   UNL     1       5.487   6.360  15.900  0.00  0.00    +0.000 C 
ATOM     10  C   UNL     1       5.662   5.344  14.758  0.00  0.00    +0.000 C 
ATOM     11  O   UNL     1       6.475   4.224  15.154  0.00  0.00    +0.000 OA
ATOM     12  C   UNL     1       5.884   3.547  16.279  0.00  0.00    +0.000 C 
ATOM     13  C   UNL     1       5.736   4.488  17.484  0.00  0.00    +0.000 C 
ATOM     14  N   UNL     1       3.396   7.337  17.498  0.00  0.00    +0.000 NA
ATOM     15  H   UNL     1       2.356   9.452  17.175  0.00  0.00    +0.000 HD
ENDROOT
BRANCH   1  17
ATOM     16  C   UNL     1       0.171  10.076  19.102  0.00  0.00    +0.000 C 
ATOM     17  N   UNL     1       1.437   9.820  18.973  0.00  0.00    +0.000 NA
BRANCH  16  21
ATOM     18  C   UNL     1      -1.240  12.270  22.492  0.00  0.00    +0.000 A 
ATOM     19  C   UNL     1      -0.700  10.994  22.641  0.00  0.00    +0.000 A 
ATOM     20  C   UNL     1      -0.230  10.297  21.532  0.00  0.00    +0.000 A 
ATOM     21  C   UNL     1      -0.283  10.880  20.259  0.00  0.00    +0.000 A 
ATOM     22  C   UNL     1      -0.805  12.172  20.093  0.00  0.00    +0.000 A 
ATOM     23  C   UNL     1      -1.291  12.853  21.221  0.00  0.00    +0.000 A 
BRANCH  18  25
ATOM     24  C   UNL     1      -1.647  14.257  23.738  0.00  0.00    +0.000 C 
ATOM     25  O   UNL     1      -1.677  12.838  23.657  0.00  0.00    +0.000 OA
ENDBRANCH  18  25
BRANCH  22  26
ATOM     26  O   UNL     1      -0.823  12.678  18.817  0.00  0.00    +0.000 OA
ATOM     27  C   UNL     1      -0.067  13.860  18.573  0.00  0.00    +0.000 C 
ENDBRANCH  22  26
ENDBRANCH  16  21
ENDBRANCH   1  17
TORSDOF 4
ENDMDL
MODEL 7
REMARK VINA RESULT:      -6.7      1.939      3.228
REMARK  Name = 
REMARK  7 active torsions:
REMARK  status: ('A' for Active; 'I' for Inactive)
REMARK    1  A    between atoms: C_1  and  O_2
REMARK    2  A    between atoms: O_2  and  C_3
REMARK    3  A    between atoms: C_6  and  C_7
REMARK    4  A    between atoms: N_8  and  N_9
REMARK    5  A    between atoms: C_12  and  C_13
REMARK    6  A    between atoms: C_23  and  O_24
REMARK    7  A    between atoms: O_24  and  C_25
REMARK                            x       y       z     vdW  Elec       q    Type
REMARK                         _______ _______ _______ _____ _____    ______ ____
ROOT
ATOM      1  N   UNL     1       1.045   8.841  20.655  0.00  0.00    +0.000 N 
ATOM      2  C   UNL     1       0.138   9.812  20.158  0.00  0.00    +0.000 A 
ATOM      3  C   UNL     1      -0.490   9.599  18.947  0.00  0.00    +0.000 A 
ATOM      4  C   UNL     1      -1.329  10.587  18.504  0.00  0.00    +0.000 A 
ATOM      5  C   UNL     1      -2.029  10.476  17.185  0.00  0.00    +0.000 C 
ATOM      6  N   UNL     1      -1.551  11.701  19.222  0.00  0.00    +0.000 NA
ATOM      7  C   UNL     1      -0.934  11.833  20.408  0.00  0.00    +0.000 A 
ATOM      8  N   UNL     1      -1.223  12.942  21.158  0.00  0.00    +0.000 N 
ATOM      9  C   UNL     1      -0.579  13.207  22.437  0.00  0.00    +0.000 C 
ATOM     10  C   UNL     1      -1.645  13.705  23.428  0.00  0.00    +0.000 C 
ATOM     11  O   UNL     1      -2.373  14.835  22.914  0.00  0.00    +0.000 OA
ATOM     12  C   UNL     1      -3.025  14.492  21.677  0.00  0.00    +0.000 C 
ATOM     13  C   UNL     1      -2.011  14.044  20.613  0.00  0.00    +0.000 C 
ATOM     14  N   UNL     1      -0.093  10.909  20.900  0.00  0.00    +0.000 NA
ATOM     15  H   UNL     1       1.503   9.241  21.474  0.00  0.00    +0.000 HD
ENDROOT
BRANCH   1  17
ATOM     16  C   UNL     1       2.188   7.025  19.941  0.00  0.00    +0.000 C 
ATOM     17  N   UNL     1       1.823   8.248  19.707  0.00  0.00    +0.000 NA
BRANCH  16  21
ATOM     18  C   UNL     1       4.429   5.043  16.884  0.00  0.00    +0.000 A 
ATOM     19  C   UNL     1       4.376   6.434  16.942  0.00  0.00    +0.000 A 
ATOM     20  C   UNL     1       3.656   7.067  17.951  0.00  0.00    +0.000 A 
ATOM     21  C   UNL     1       2.991   6.309  18.924  0.00  0.00    +0.000 A 
ATOM     22  C   UNL     1       3.051   4.907  18.893  0.00  0.00    +0.000 A 
ATOM     23  C   UNL     1       3.766   4.285  17.857  0.00  0.00    +0.000 A 
BRANCH  18  25
ATOM     24  C   UNL     1       6.533   4.902  15.780  0.00  0.00    +0.000 C 
ATOM     25  O   UNL     1       5.157   4.549  15.836  0.00  0.00    +0.000 OA
ENDBRANCH  18  25
BRANCH  22  26
ATOM     26  O   UNL     1       2.376   4.232  19.879  0.00  0.00    +0.000 OA
ATOM     27  C   UNL     1       1.146   3.609  19.521  0.00  0.00    +0.000 C 
ENDBRANCH  22  26
ENDBRANCH  16  21
ENDBRANCH   1  17
TORSDOF 4
ENDMDL
MODEL 8
REMARK VINA RESULT:      -6.6      1.955      3.172
REMARK  Name = 
REMARK  7 active torsions:
REMARK  status: ('A' for Active; 'I' for Inactive)
REMARK    1  A    between atoms: C_1  and  O_2
REMARK    2  A    between atoms: O_2  and  C_3
REMARK    3  A    between atoms: C_6  and  C_7
REMARK    4  A    between atoms: N_8  and  N_9
REMARK    5  A    between atoms: C_12  and  C_13
REMARK    6  A    between atoms: C_23  and  O_24
REMARK    7  A    between atoms: O_24  and  C_25
REMARK                            x       y       z     vdW  Elec       q    Type
REMARK                         _______ _______ _______ _____ _____    ______ ____
ROOT
ATOM      1  N   UNL     1       0.849   9.522  20.703  0.00  0.00    +0.000 N 
ATOM      2  C   UNL     1       0.093  10.572  20.122  0.00  0.00    +0.000 A 
ATOM      3  C   UNL     1      -0.693  10.313  19.017  0.00  0.00    +0.000 A 
ATOM      4  C   UNL     1      -1.375  11.373  18.481  0.00  0.00    +0.000 A 
ATOM      5  C   UNL     1      -2.222  11.212  17.257  0.00  0.00    +0.000 C 
ATOM      6  N   UNL     1      -1.302  12.604  19.016  0.00  0.00    +0.000 NA
ATOM      7  C   UNL     1      -0.545  12.783  20.112  0.00  0.00    +0.000 A 
ATOM      8  N   UNL     1      -0.536  14.027  20.685  0.00  0.00    +0.000 N 
ATOM      9  C   UNL     1       0.283  14.343  21.847  0.00  0.00    +0.000 C 
ATOM     10  C   UNL     1      -0.555  15.190  22.820  0.00  0.00    +0.000 C 
ATOM     11  O   UNL     1      -1.109  16.356  22.181  0.00  0.00    +0.000 OA
ATOM     12  C   UNL     1      -1.946  15.972  21.075  0.00  0.00    +0.000 C 
ATOM     13  C   UNL     1      -1.157  15.173  20.025  0.00  0.00    +0.000 C 
ATOM     14  N   UNL     1       0.155  11.791  20.685  0.00  0.00    +0.000 NA
ATOM     15  H   UNL     1       1.461   9.938  21.405  0.00  0.00    +0.000 HD
ENDROOT
BRANCH   1  17
ATOM     16  C   UNL     1       1.965   7.595  20.309  0.00  0.00    +0.000 C 
ATOM     17  N   UNL     1       1.393   8.648  19.811  0.00  0.00    +0.000 NA
BRANCH  16  21
ATOM     18  C   UNL     1       3.531   4.755  17.519  0.00  0.00    +0.000 A 
ATOM     19  C   UNL     1       3.811   6.114  17.388  0.00  0.00    +0.000 A 
ATOM     20  C   UNL     1       3.308   7.026  18.312  0.00  0.00    +0.000 A 
ATOM     21  C   UNL     1       2.528   6.582  19.388  0.00  0.00    +0.000 A 
ATOM     22  C   UNL     1       2.253   5.215  19.547  0.00  0.00    +0.000 A 
ATOM     23  C   UNL     1       2.753   4.311  18.595  0.00  0.00    +0.000 A 
BRANCH  18  25
ATOM     24  C   UNL     1       5.327   4.374  16.005  0.00  0.00    +0.000 C 
ATOM     25  O   UNL     1       4.073   3.970  16.539  0.00  0.00    +0.000 OA
ENDBRANCH  18  25
BRANCH  22  26
ATOM     26  O   UNL     1       1.485   4.855  20.625  0.00  0.00    +0.000 OA
ATOM     27  C   UNL     1       1.279   3.462  20.844  0.00  0.00    +0.000 C 
ENDBRANCH  22  26
ENDBRANCH  16  21
ENDBRANCH   1  17
TORSDOF 4
ENDMDL
MODEL 9
REMARK VINA RESULT:      -6.6      2.203      3.314
REMARK  Name = 
REMARK  7 active torsions:
REMARK  status: ('A' for Active; 'I' for Inactive)
REMARK    1  A    between atoms: C_1  and  O_2
REMARK    2  A    between atoms: O_2  and  C_3
REMARK    3  A    between atoms: C_6  and  C_7
REMARK    4  A    between atoms: N_8  and  N_9
REMARK    5  A    between atoms: C_12  and  C_13
REMARK    6  A    between atoms: C_23  and  O_24
REMARK    7  A    between atoms: O_24  and  C_25
REMARK                            x       y       z     vdW  Elec       q    Type
REMARK                         _______ _______ _______ _____ _____    ______ ____
ROOT
ATOM      1  N   UNL     1       0.802   9.652  17.835  0.00  0.00    +0.000 N 
ATOM      2  C   UNL     1       0.945  10.947  18.396  0.00  0.00    +0.000 A 
ATOM      3  C   UNL     1       2.083  11.682  18.127  0.00  0.00    +0.000 A 
ATOM      4  C   UNL     1       2.179  12.912  18.723  0.00  0.00    +0.000 A 
ATOM      5  C   UNL     1       3.389  13.773  18.533  0.00  0.00    +0.000 C 
ATOM      6  N   UNL     1       1.205  13.393  19.513  0.00  0.00    +0.000 NA
ATOM      7  C   UNL     1       0.108  12.642  19.708  0.00  0.00    +0.000 A 
ATOM      8  N   UNL     1      -0.905  13.175  20.460  0.00  0.00    +0.000 N 
ATOM      9  C   UNL     1      -2.118  12.431  20.772  0.00  0.00    +0.000 C 
ATOM     10  C   UNL     1      -3.324  13.373  20.612  0.00  0.00    +0.000 C 
ATOM     11  O   UNL     1      -3.177  14.574  21.394  0.00  0.00    +0.000 OA
ATOM     12  C   UNL     1      -1.988  15.285  21.002  0.00  0.00    +0.000 C 
ATOM     13  C   UNL     1      -0.730  14.424  21.196  0.00  0.00    +0.000 C 
ATOM     14  N   UNL     1      -0.050  11.426  19.163  0.00  0.00    +0.000 NA
ATOM     15  H   UNL     1      -0.022   9.225  18.260  0.00  0.00    +0.000 HD
ENDROOT
BRANCH   1  17
ATOM     16  C   UNL     1       1.971   7.824  18.473  0.00  0.00    +0.000 C 
ATOM     17  N   UNL     1       1.950   8.922  17.781  0.00  0.00    +0.000 NA
BRANCH  16  21
ATOM     18  C   UNL     1       5.410   5.302  18.138  0.00  0.00    +0.000 A 
ATOM     19  C   UNL     1       5.218   6.367  17.261  0.00  0.00    +0.000 A 
ATOM     20  C   UNL     1       4.102   7.190  17.390  0.00  0.00    +0.000 A 
ATOM     21  C   UNL     1       3.173   6.961  18.413  0.00  0.00    +0.000 A 
ATOM     22  C   UNL     1       3.361   5.905  19.318  0.00  0.00    +0.000 A 
ATOM     23  C   UNL     1       4.482   5.074  19.161  0.00  0.00    +0.000 A 
BRANCH  18  25
ATOM     24  C   UNL     1       7.031   4.563  16.560  0.00  0.00    +0.000 C 
ATOM     25  O   UNL     1       6.535   4.565  17.893  0.00  0.00    +0.000 OA
ENDBRANCH  18  25
BRANCH  22  26
ATOM     26  O   UNL     1       2.410   5.744  20.294  0.00  0.00    +0.000 OA
ATOM     27  C   UNL     1       2.173   4.419  20.762  0.00  0.00    +0.000 C 
ENDBRANCH  22  26
ENDBRANCH  16  21
ENDBRANCH   1  17
TORSDOF 4
ENDMDL
