MODEL 1
REMARK VINA RESULT:      -5.6      0.000      0.000
REMARK  Name = 
REMARK  11 active torsions:
REMARK  status: ('A' for Active; 'I' for Inactive)
REMARK    1  A    between atoms: C_1  and  O_2
REMARK    2  A    between atoms: O_2  and  C_3
REMARK    3  A    between atoms: C_8  and  O_9
REMARK    4  A    between atoms: O_9  and  C_10
REMARK    5  A    between atoms: C_11  and  O_12
REMARK    6  A    between atoms: O_12  and  C_13
REMARK    7  A    between atoms: C_17  and  O_18
REMARK    8  A    between atoms: O_18  and  C_19
REMARK    9  A    between atoms: C_24  and  N_25
REMARK   10  A    between atoms: N_25  and  C_26
REMARK   11  A    between atoms: C_26  and  N_27
REMARK                            x       y       z     vdW  Elec       q    Type
REMARK                         _______ _______ _______ _____ _____    ______ ____
ROOT
ATOM      1  C   UNL     1      -0.897  10.482  19.879  0.00  0.00    +0.000 A 
ATOM      2  C   UNL     1      -1.761  10.759  18.793  0.00  0.00    +0.000 A 
ATOM      3 CL   UNL     1      -1.712   9.730  17.370  0.00  0.00    +0.000 Cl
ATOM      4  C   UNL     1      -2.771  11.771  18.864  0.00  0.00    +0.000 A 
ATOM      5  C   UNL     1      -2.925  12.502  20.090  0.00  0.00    +0.000 A 
ATOM      6  C   UNL     1      -2.098  12.152  21.205  0.00  0.00    +0.000 A 
ATOM      7  C   UNL     1      -1.068  11.181  21.092  0.00  0.00    +0.000 A 
ATOM      8  C   UNL     1      -4.063  13.503  20.351  0.00  0.00    +0.000 A 
ATOM      9  C   UNL     1      -3.693  14.734  20.793  0.00  0.00    +0.000 A 
ATOM     10  C   UNL     1      -4.659  15.769  21.140  0.00  0.00    +0.000 A 
ATOM     11  C   UNL     1      -5.576  15.502  22.094  0.00  0.00    +0.000 A 
ATOM     12  C   UNL     1      -6.800  14.955  21.466  0.00  0.00    +0.000 A 
ATOM     13  O   UNL     1      -7.917  15.448  21.638  0.00  0.00    +0.000 OA
ATOM     14  C   UNL     1      -6.623  13.734  20.609  0.00  0.00    +0.000 A 
ATOM     15  C   UNL     1      -5.507  13.107  20.166  0.00  0.00    +0.000 A 
ATOM     16  C   UNL     1      -5.613  11.887  19.279  0.00  0.00    +0.000 C 
ATOM     17  C   UNL     1      -5.188  12.295  17.874  0.00  0.00    +0.000 C 
ATOM     18  C   UNL     1      -3.720  11.900  17.655  0.00  0.00    +0.000 C 
ENDROOT
BRANCH   1  20
ATOM     19  C   UNL     1       1.248   9.632  19.205  0.00  0.00    +0.000 C 
ATOM     20  O   UNL     1       0.003   9.440  19.877  0.00  0.00    +0.000 OA
ENDBRANCH   1  20
BRANCH   6  21
ATOM     21  O   UNL     1      -2.440  12.820  22.365  0.00  0.00    +0.000 OA
ATOM     22  C   UNL     1      -3.201  12.213  23.394  0.00  0.00    +0.000 C 
ENDBRANCH   6  21
BRANCH   7  23
ATOM     23  O   UNL     1      -0.320  11.016  22.227  0.00  0.00    +0.000 OA
ATOM     24  C   UNL     1      -0.415   9.888  23.072  0.00  0.00    +0.000 C 
ENDBRANCH   7  23
BRANCH  11  25
ATOM     25  O   UNL     1      -5.332  15.051  23.378  0.00  0.00    +0.000 OA
ATOM     26  C   UNL     1      -4.908  16.063  24.283  0.00  0.00    +0.000 C 
ENDBRANCH  11  25
BRANCH  16  27
ATOM     27  N   UNL     1      -6.763  11.035  19.498  0.00  0.00    +0.000 N 
ATOM     28  H   UNL     1      -7.411  11.040  18.717  0.00  0.00    +0.000 HD
BRANCH  27  29
ATOM     29  C   UNL     1      -7.168  10.165  20.424  0.00  0.00    +0.000 C 
ATOM     30  S   UNL     1      -7.177   8.547  20.058  0.00  0.00    +0.000 S 
BRANCH  29  31
ATOM     31  N   UNL     1      -7.527  10.602  21.637  0.00  0.00    +0.000 N 
ATOM     32  H   UNL     1      -6.857  10.752  22.367  0.00  0.00    +0.000 HD
ATOM     33  H   UNL     1      -8.404  11.103  21.701  0.00  0.00    +0.000 HD
ENDBRANCH  29  31
ENDBRANCH  27  29
ENDBRANCH  16  27
TORSDOF 7
ENDMDL
MODEL 2
REMARK VINA RESULT:      -5.5      1.143      1.301
REMARK  Name = 
REMARK  11 active torsions:
REMARK  status: ('A' for Active; 'I' for Inactive)
REMARK    1  A    between atoms: C_1  and  O_2
REMARK    2  A    between atoms: O_2  and  C_3
REMARK    3  A    between atoms: C_8  and  O_9
REMARK    4  A    between atoms: O_9  and  C_10
REMARK    5  A    between atoms: C_11  and  O_12
REMARK    6  A    between atoms: O_12  and  C_13
REMARK    7  A    between atoms: C_17  and  O_18
REMARK    8  A    between atoms: O_18  and  C_19
REMARK    9  A    between atoms: C_24  and  N_25
REMARK   10  A    between atoms: N_25  and  C_26
REMARK   11  A    between atoms: C_26  and  N_27
REMARK                            x       y       z     vdW  Elec       q    Type
REMARK                         _______ _______ _______ _____ _____    ______ ____
ROOT
ATOM      1  C   UNL     1      -1.009  10.479  18.954  0.00  0.00    +0.000 A 
ATOM      2  C   UNL     1      -2.178  10.820  18.231  0.00  0.00    +0.000 A 
ATOM      3 CL   UNL     1      -2.581   9.923  16.776  0.00  0.00    +0.000 Cl
ATOM      4  C   UNL     1      -3.117  11.784  18.718  0.00  0.00    +0.000 A 
ATOM      5  C   UNL     1      -2.874  12.397  19.993  0.00  0.00    +0.000 A 
ATOM      6  C   UNL     1      -1.730  11.981  20.747  0.00  0.00    +0.000 A 
ATOM      7  C   UNL     1      -0.785  11.061  20.219  0.00  0.00    +0.000 A 
ATOM      8  C   UNL     1      -3.873  13.329  20.698  0.00  0.00    +0.000 A 
ATOM      9  C   UNL     1      -3.389  14.528  21.114  0.00  0.00    +0.000 A 
ATOM     10  C   UNL     1      -4.199  15.493  21.848  0.00  0.00    +0.000 A 
ATOM     11  C   UNL     1      -4.758  15.109  23.015  0.00  0.00    +0.000 A 
ATOM     12  C   UNL     1      -6.116  14.576  22.761  0.00  0.00    +0.000 A 
ATOM     13  O   UNL     1      -7.122  15.011  23.327  0.00  0.00    +0.000 OA
ATOM     14  C   UNL     1      -6.216  13.443  21.780  0.00  0.00    +0.000 A 
ATOM     15  C   UNL     1      -5.298  12.899  20.946  0.00  0.00    +0.000 A 
ATOM     16  C   UNL     1      -5.676  11.759  20.027  0.00  0.00    +0.000 C 
ATOM     17  C   UNL     1      -5.727  12.305  18.605  0.00  0.00    +0.000 C 
ATOM     18  C   UNL     1      -4.405  11.985  17.893  0.00  0.00    +0.000 C 
ENDROOT
BRANCH   1  20
ATOM     19  C   UNL     1       1.049   9.844  17.885  0.00  0.00    +0.000 C 
ATOM     20  O   UNL     1      -0.151   9.475  18.565  0.00  0.00    +0.000 OA
ENDBRANCH   1  20
BRANCH   6  21
ATOM     21  O   UNL     1      -1.685  12.530  22.014  0.00  0.00    +0.000 OA
ATOM     22  C   UNL     1      -1.888  11.757  23.184  0.00  0.00    +0.000 C 
ENDBRANCH   6  21
BRANCH   7  23
ATOM     23  O   UNL     1       0.288  10.824  21.034  0.00  0.00    +0.000 OA
ATOM     24  C   UNL     1       0.471   9.627  21.762  0.00  0.00    +0.000 C 
ENDBRANCH   7  23
BRANCH  11  25
ATOM     25  O   UNL     1      -4.113  14.556  24.105  0.00  0.00    +0.000 OA
ATOM     26  C   UNL     1      -4.597  13.275  24.485  0.00  0.00    +0.000 C 
ENDBRANCH  11  25
BRANCH  16  27
ATOM     27  N   UNL     1      -6.689  10.850  20.519  0.00  0.00    +0.000 N 
ATOM     28  H   UNL     1      -7.164  11.199  21.345  0.00  0.00    +0.000 HD
BRANCH  27  29
ATOM     29  C   UNL     1      -7.238   9.699  20.128  0.00  0.00    +0.000 C 
ATOM     30  S   UNL     1      -7.916   8.702  21.269  0.00  0.00    +0.000 S 
BRANCH  29  31
ATOM     31  N   UNL     1      -7.264   9.381  18.829  0.00  0.00    +0.000 N 
ATOM     32  H   UNL     1      -7.133  10.068  18.111  0.00  0.00    +0.000 HD
ATOM     33  H   UNL     1      -7.067   8.417  18.590  0.00  0.00    +0.000 HD
ENDBRANCH  29  31
ENDBRANCH  27  29
ENDBRANCH  16  27
TORSDOF 7
ENDMDL
MODEL 3
REMARK VINA RESULT:      -5.4      4.146      5.897
REMARK  Name = 
REMARK  11 active torsions:
REMARK  status: ('A' for Active; 'I' for Inactive)
REMARK    1  A    between atoms: C_1  and  O_2
REMARK    2  A    between atoms: O_2  and  C_3
REMARK    3  A    between atoms: C_8  and  O_9
REMARK    4  A    between atoms: O_9  and  C_10
REMARK    5  A    between atoms: C_11  and  O_12
REMARK    6  A    between atoms: O_12  and  C_13
REMARK    7  A    between atoms: C_17  and  O_18
REMARK    8  A    between atoms: O_18  and  C_19
REMARK    9  A    between atoms: C_24  and  N_25
REMARK   10  A    between atoms: N_25  and  C_26
REMARK   11  A    between atoms: C_26  and  N_27
REMARK                            x       y       z     vdW  Elec       q    Type
REMARK                         _______ _______ _______ _____ _____    ______ ____
ROOT
ATOM      1  C   UNL     1      -2.937  10.575  17.710  0.00  0.00    +0.000 A 
ATOM      2  C   UNL     1      -1.645  10.285  18.212  0.00  0.00    +0.000 A 
ATOM      3 CL   UNL     1      -0.566   9.267  17.272  0.00  0.00    +0.000 Cl
ATOM      4  C   UNL     1      -1.136  10.901  19.400  0.00  0.00    +0.000 A 
ATOM      5  C   UNL     1      -1.954  11.865  20.079  0.00  0.00    +0.000 A 
ATOM      6  C   UNL     1      -3.224  12.206  19.512  0.00  0.00    +0.000 A 
ATOM      7  C   UNL     1      -3.729  11.543  18.363  0.00  0.00    +0.000 A 
ATOM      8  C   UNL     1      -1.472  12.708  21.271  0.00  0.00    +0.000 A 
ATOM      9  C   UNL     1      -2.260  12.693  22.378  0.00  0.00    +0.000 A 
ATOM     10  C   UNL     1      -1.966  13.488  23.565  0.00  0.00    +0.000 A 
ATOM     11  C   UNL     1      -1.861  14.828  23.434  0.00  0.00    +0.000 A 
ATOM     12  C   UNL     1      -0.449  15.191  23.176  0.00  0.00    +0.000 A 
ATOM     13  O   UNL     1       0.171  15.998  23.872  0.00  0.00    +0.000 OA
ATOM     14  C   UNL     1       0.204  14.536  21.992  0.00  0.00    +0.000 A 
ATOM     15  C   UNL     1      -0.214  13.535  21.181  0.00  0.00    +0.000 A 
ATOM     16  C   UNL     1       0.668  13.041  20.056  0.00  0.00    +0.000 C 
ATOM     17  C   UNL     1       1.192  11.664  20.446  0.00  0.00    +0.000 C 
ATOM     18  C   UNL     1       0.325  10.585  19.780  0.00  0.00    +0.000 C 
ENDROOT
BRANCH   1  20
ATOM     19  C   UNL     1      -3.065  10.794  15.320  0.00  0.00    +0.000 C 
ATOM     20  O   UNL     1      -3.405  10.085  16.512  0.00  0.00    +0.000 OA
ENDBRANCH   1  20
BRANCH   6  21
ATOM     21  O   UNL     1      -3.850  13.247  20.171  0.00  0.00    +0.000 OA
ATOM     22  C   UNL     1      -5.055  13.072  20.895  0.00  0.00    +0.000 C 
ENDBRANCH   6  21
BRANCH   7  23
ATOM     23  O   UNL     1      -4.987  11.934  17.992  0.00  0.00    +0.000 OA
ATOM     24  C   UNL     1      -6.138  11.131  18.152  0.00  0.00    +0.000 C 
ENDBRANCH   7  23
BRANCH  11  25
ATOM     25  O   UNL     1      -2.792  15.684  22.875  0.00  0.00    +0.000 OA
ATOM     26  C   UNL     1      -3.500  16.475  23.820  0.00  0.00    +0.000 C 
ENDBRANCH  11  25
BRANCH  16  27
ATOM     27  N   UNL     1       1.531  14.026  19.439  0.00  0.00    +0.000 N 
ATOM     28  H   UNL     1       1.621  14.871  19.993  0.00  0.00    +0.000 HD
BRANCH  27  29
ATOM     29  C   UNL     1       2.320  14.094  18.367  0.00  0.00    +0.000 C 
ATOM     30  S   UNL     1       3.246  15.451  18.134  0.00  0.00    +0.000 S 
BRANCH  29  31
ATOM     31  N   UNL     1       2.380  13.062  17.518  0.00  0.00    +0.000 N 
ATOM     32  H   UNL     1       3.188  12.471  17.455  0.00  0.00    +0.000 HD
ATOM     33  H   UNL     1       1.498  12.678  17.203  0.00  0.00    +0.000 HD
ENDBRANCH  29  31
ENDBRANCH  27  29
ENDBRANCH  16  27
TORSDOF 7
ENDMDL
MODEL 4
REMARK VINA RESULT:      -5.3      3.781      6.864
REMARK  Name = 
REMARK  11 active torsions:
REMARK  status: ('A' for Active; 'I' for Inactive)
REMARK    1  A    between atoms: C_1  and  O_2
REMARK    2  A    between atoms: O_2  and  C_3
REMARK    3  A    between atoms: C_8  and  O_9
REMARK    4  A    between atoms: O_9  and  C_10
REMARK    5  A    between atoms: C_11  and  O_12
REMARK    6  A    between atoms: O_12  and  C_13
REMARK    7  A    between atoms: C_17  and  O_18
REMARK    8  A    between atoms: O_18  and  C_19
REMARK    9  A    between atoms: C_24  and  N_25
REMARK   10  A    between atoms: N_25  and  C_26
REMARK   11  A    between atoms: C_26  and  N_27
REMARK                            x       y       z     vdW  Elec       q    Type
REMARK                         _______ _______ _______ _____ _____    ______ ____
ROOT
ATOM      1  C   UNL     1      -3.509  14.860  23.649  0.00  0.00    +0.000 A 
ATOM      2  C   UNL     1      -3.031  13.528  23.702  0.00  0.00    +0.000 A 
ATOM      3 CL   UNL     1      -4.037  12.282  24.424  0.00  0.00    +0.000 Cl
ATOM      4  C   UNL     1      -1.810  13.132  23.069  0.00  0.00    +0.000 A 
ATOM      5  C   UNL     1      -1.069  14.117  22.332  0.00  0.00    +0.000 A 
ATOM      6  C   UNL     1      -1.607  15.439  22.220  0.00  0.00    +0.000 A 
ATOM      7  C   UNL     1      -2.794  15.819  22.901  0.00  0.00    +0.000 A 
ATOM      8  C   UNL     1       0.171  13.794  21.482  0.00  0.00    +0.000 A 
ATOM      9  C   UNL     1       1.279  14.544  21.721  0.00  0.00    +0.000 A 
ATOM     10  C   UNL     1       2.511  14.396  20.956  0.00  0.00    +0.000 A 
ATOM     11  C   UNL     1       2.463  14.564  19.617  0.00  0.00    +0.000 A 
ATOM     12  C   UNL     1       2.222  13.259  18.962  0.00  0.00    +0.000 A 
ATOM     13  O   UNL     1       2.964  12.802  18.090  0.00  0.00    +0.000 OA
ATOM     14  C   UNL     1       0.998  12.508  19.400  0.00  0.00    +0.000 A 
ATOM     15  C   UNL     1       0.127  12.729  20.414  0.00  0.00    +0.000 A 
ATOM     16  C   UNL     1      -1.030  11.785  20.652  0.00  0.00    +0.000 C 
ATOM     17  C   UNL     1      -0.728  10.989  21.916  0.00  0.00    +0.000 C 
ATOM     18  C   UNL     1      -1.456  11.632  23.105  0.00  0.00    +0.000 C 
ENDROOT
BRANCH   1  20
ATOM     19  C   UNL     1      -5.873  15.115  23.300  0.00  0.00    +0.000 C 
ATOM     20  O   UNL     1      -4.733  15.240  24.150  0.00  0.00    +0.000 OA
ENDBRANCH   1  20
BRANCH   6  21
ATOM     21  O   UNL     1      -0.882  16.250  21.368  0.00  0.00    +0.000 OA
ATOM     22  C   UNL     1      -1.343  16.595  20.074  0.00  0.00    +0.000 C 
ENDBRANCH   6  21
BRANCH   7  23
ATOM     23  O   UNL     1      -3.134  17.136  22.750  0.00  0.00    +0.000 OA
ATOM     24  C   UNL     1      -2.770  18.151  23.663  0.00  0.00    +0.000 C 
ENDBRANCH   7  23
BRANCH  11  25
ATOM     25  O   UNL     1       1.963  15.657  18.934  0.00  0.00    +0.000 OA
ATOM     26  C   UNL     1       2.771  16.823  19.024  0.00  0.00    +0.000 C 
ENDBRANCH  11  25
BRANCH  16  27
ATOM     27  N   UNL     1      -1.588  11.148  19.478  0.00  0.00    +0.000 N 
ATOM     28  H   UNL     1      -1.274  10.190  19.364  0.00  0.00    +0.000 HD
BRANCH  27  29
ATOM     29  C   UNL     1      -2.483  11.453  18.537  0.00  0.00    +0.000 C 
ATOM     30  S   UNL     1      -2.330  10.771  17.032  0.00  0.00    +0.000 S 
BRANCH  29  31
ATOM     31  N   UNL     1      -3.502  12.269  18.827  0.00  0.00    +0.000 N 
ATOM     32  H   UNL     1      -4.430  11.925  18.987  0.00  0.00    +0.000 HD
ATOM     33  H   UNL     1      -3.267  13.171  19.222  0.00  0.00    +0.000 HD
ENDBRANCH  29  31
ENDBRANCH  27  29
ENDBRANCH  16  27
TORSDOF 7
ENDMDL
MODEL 5
REMARK VINA RESULT:      -5.1      1.273      1.387
REMARK  Name = 
REMARK  11 active torsions:
REMARK  status: ('A' for Active; 'I' for Inactive)
REMARK    1  A    between atoms: C_1  and  O_2
REMARK    2  A    between atoms: O_2  and  C_3
REMARK    3  A    between atoms: C_8  and  O_9
REMARK    4  A    between atoms: O_9  and  C_10
REMARK    5  A    between atoms: C_11  and  O_12
REMARK    6  A    between atoms: O_12  and  C_13
REMARK    7  A    between atoms: C_17  and  O_18
REMARK    8  A    between atoms: O_18  and  C_19
REMARK    9  A    between atoms: C_24  and  N_25
REMARK   10  A    between atoms: N_25  and  C_26
REMARK   11  A    between atoms: C_26  and  N_27
REMARK                            x       y       z     vdW  Elec       q    Type
REMARK                         _______ _______ _______ _____ _____    ______ ____
ROOT
ATOM      1  C   UNL     1      -0.235  10.351  19.227  0.00  0.00    +0.000 A 
ATOM      2  C   UNL     1      -1.360  10.685  18.434  0.00  0.00    +0.000 A 
ATOM      3 CL   UNL     1      -1.749   9.698  17.035  0.00  0.00    +0.000 Cl
ATOM      4  C   UNL     1      -2.272  11.723  18.808  0.00  0.00    +0.000 A 
ATOM      5  C   UNL     1      -2.049  12.421  20.043  0.00  0.00    +0.000 A 
ATOM      6  C   UNL     1      -0.954  12.015  20.872  0.00  0.00    +0.000 A 
ATOM      7  C   UNL     1      -0.033  11.018  20.454  0.00  0.00    +0.000 A 
ATOM      8  C   UNL     1      -3.030  13.446  20.635  0.00  0.00    +0.000 A 
ATOM      9  C   UNL     1      -2.507  14.652  20.979  0.00  0.00    +0.000 A 
ATOM     10  C   UNL     1      -3.299  15.704  21.605  0.00  0.00    +0.000 A 
ATOM     11  C   UNL     1      -3.919  15.435  22.774  0.00  0.00    +0.000 A 
ATOM     12  C   UNL     1      -5.289  14.943  22.505  0.00  0.00    +0.000 A 
ATOM     13  O   UNL     1      -6.294  15.463  22.995  0.00  0.00    +0.000 OA
ATOM     14  C   UNL     1      -5.404  13.743  21.609  0.00  0.00    +0.000 A 
ATOM     15  C   UNL     1      -4.481  13.098  20.855  0.00  0.00    +0.000 A 
ATOM     16  C   UNL     1      -4.876  11.908  20.010  0.00  0.00    +0.000 C 
ATOM     17  C   UNL     1      -4.849  12.345  18.550  0.00  0.00    +0.000 C 
ATOM     18  C   UNL     1      -3.516  11.915  17.918  0.00  0.00    +0.000 C 
ENDROOT
BRANCH   1  20
ATOM     19  C   UNL     1       1.671   9.492  18.041  0.00  0.00    +0.000 C 
ATOM     20  O   UNL     1       0.590   9.284  18.950  0.00  0.00    +0.000 OA
ENDBRANCH   1  20
BRANCH   6  21
ATOM     21  O   UNL     1      -0.932  12.658  22.095  0.00  0.00    +0.000 OA
ATOM     22  C   UNL     1      -1.447  12.064  23.273  0.00  0.00    +0.000 C 
ENDBRANCH   6  21
BRANCH   7  23
ATOM     23  O   UNL     1       0.997  10.798  21.327  0.00  0.00    +0.000 OA
ATOM     24  C   UNL     1       1.108   9.645  22.135  0.00  0.00    +0.000 C 
ENDBRANCH   7  23
BRANCH  11  25
ATOM     25  O   UNL     1      -3.340  14.940  23.928  0.00  0.00    +0.000 OA
ATOM     26  C   UNL     1      -3.539  15.752  25.077  0.00  0.00    +0.000 C 
ENDBRANCH  11  25
BRANCH  16  27
ATOM     27  N   UNL     1      -5.948  11.084  20.527  0.00  0.00    +0.000 N 
ATOM     28  H   UNL     1      -5.711  10.636  21.406  0.00  0.00    +0.000 HD
BRANCH  27  29
ATOM     29  C   UNL     1      -7.213  10.814  20.202  0.00  0.00    +0.000 C 
ATOM     30  S   UNL     1      -7.901   9.406  20.747  0.00  0.00    +0.000 S 
BRANCH  29  31
ATOM     31  N   UNL     1      -7.915  11.692  19.476  0.00  0.00    +0.000 N 
ATOM     32  H   UNL     1      -7.690  11.891  18.519  0.00  0.00    +0.000 HD
ATOM     33  H   UNL     1      -8.862  11.881  19.779  0.00  0.00    +0.000 HD
ENDBRANCH  29  31
ENDBRANCH  27  29
ENDBRANCH  16  27
TORSDOF 7
ENDMDL
MODEL 6
REMARK VINA RESULT:      -5.1     10.309     12.952
REMARK  Name = 
REMARK  11 active torsions:
REMARK  status: ('A' for Active; 'I' for Inactive)
REMARK    1  A    between atoms: C_1  and  O_2
REMARK    2  A    between atoms: O_2  and  C_3
REMARK    3  A    between atoms: C_8  and  O_9
REMARK    4  A    between atoms: O_9  and  C_10
REMARK    5  A    between atoms: C_11  and  O_12
REMARK    6  A    between atoms: O_12  and  C_13
REMARK    7  A    between atoms: C_17  and  O_18
REMARK    8  A    between atoms: O_18  and  C_19
REMARK    9  A    between atoms: C_24  and  N_25
REMARK   10  A    between atoms: N_25  and  C_26
REMARK   11  A    between atoms: C_26  and  N_27
REMARK                            x       y       z     vdW  Elec       q    Type
REMARK                         _______ _______ _______ _____ _____    ______ ____
ROOT
ATOM      1  C   UNL     1      11.229  14.697  18.695  0.00  0.00    +0.000 A 
ATOM      2  C   UNL     1      10.382  15.827  18.799  0.00  0.00    +0.000 A 
ATOM      3 CL   UNL     1      10.301  16.966  17.464  0.00  0.00    +0.000 Cl
ATOM      4  C   UNL     1       9.485  16.006  19.900  0.00  0.00    +0.000 A 
ATOM      5  C   UNL     1       9.427  14.989  20.911  0.00  0.00    +0.000 A 
ATOM      6  C   UNL     1      10.231  13.814  20.748  0.00  0.00    +0.000 A 
ATOM      7  C   UNL     1      11.150  13.684  19.674  0.00  0.00    +0.000 A 
ATOM      8  C   UNL     1       8.406  14.982  22.060  0.00  0.00    +0.000 A 
ATOM      9  C   UNL     1       8.909  14.840  23.314  0.00  0.00    +0.000 A 
ATOM     10  C   UNL     1       8.063  14.756  24.498  0.00  0.00    +0.000 A 
ATOM     11  C   UNL     1       7.138  13.775  24.561  0.00  0.00    +0.000 A 
ATOM     12  C   UNL     1       5.854  14.269  24.015  0.00  0.00    +0.000 A 
ATOM     13  O   UNL     1       4.798  14.230  24.650  0.00  0.00    +0.000 OA
ATOM     14  C   UNL     1       5.889  14.812  22.615  0.00  0.00    +0.000 A 
ATOM     15  C   UNL     1       6.926  15.084  21.787  0.00  0.00    +0.000 A 
ATOM     16  C   UNL     1       6.678  15.659  20.410  0.00  0.00    +0.000 C 
ATOM     17  C   UNL     1       7.123  17.117  20.429  0.00  0.00    +0.000 C 
ATOM     18  C   UNL     1       8.538  17.221  19.840  0.00  0.00    +0.000 C 
ENDROOT
BRANCH   1  20
ATOM     19  C   UNL     1      11.418  13.762  16.488  0.00  0.00    +0.000 C 
ATOM     20  O   UNL     1      12.014  14.444  17.593  0.00  0.00    +0.000 OA
ENDBRANCH   1  20
BRANCH   6  21
ATOM     21  O   UNL     1       9.978  12.848  21.703  0.00  0.00    +0.000 OA
ATOM     22  C   UNL     1       9.122  11.746  21.459  0.00  0.00    +0.000 C 
ENDBRANCH   6  21
BRANCH   7  23
ATOM     23  O   UNL     1      11.894  12.535  19.703  0.00  0.00    +0.000 OA
ATOM     24  C   UNL     1      11.581  11.379  18.954  0.00  0.00    +0.000 C 
ENDBRANCH   7  23
BRANCH  11  25
ATOM     25  O   UNL     1       7.352  12.419  24.403  0.00  0.00    +0.000 OA
ATOM     26  C   UNL     1       6.991  11.633  25.531  0.00  0.00    +0.000 C 
ENDBRANCH  11  25
BRANCH  16  27
ATOM     27  N   UNL     1       5.448  15.257  19.761  0.00  0.00    +0.000 N 
ATOM     28  H   UNL     1       4.725  14.989  20.419  0.00  0.00    +0.000 HD
BRANCH  27  29
ATOM     29  C   UNL     1       4.970  15.224  18.516  0.00  0.00    +0.000 C 
ATOM     30  S   UNL     1       3.719  16.236  18.108  0.00  0.00    +0.000 S 
BRANCH  29  31
ATOM     31  N   UNL     1       5.523  14.409  17.611  0.00  0.00    +0.000 N 
ATOM     32  H   UNL     1       4.972  13.908  16.940  0.00  0.00    +0.000 HD
ATOM     33  H   UNL     1       6.497  14.570  17.386  0.00  0.00    +0.000 HD
ENDBRANCH  29  31
ENDBRANCH  27  29
ENDBRANCH  16  27
TORSDOF 7
ENDMDL
MODEL 7
REMARK VINA RESULT:      -5.1      3.018      4.351
REMARK  Name = 
REMARK  11 active torsions:
REMARK  status: ('A' for Active; 'I' for Inactive)
REMARK    1  A    between atoms: C_1  and  O_2
REMARK    2  A    between atoms: O_2  and  C_3
REMARK    3  A    between atoms: C_8  and  O_9
REMARK    4  A    between atoms: O_9  and  C_10
REMARK    5  A    between atoms: C_11  and  O_12
REMARK    6  A    between atoms: O_12  and  C_13
REMARK    7  A    between atoms: C_17  and  O_18
REMARK    8  A    between atoms: O_18  and  C_19
REMARK    9  A    between atoms: C_24  and  N_25
REMARK   10  A    between atoms: N_25  and  C_26
REMARK   11  A    between atoms: C_26  and  N_27
REMARK                            x       y       z     vdW  Elec       q    Type
REMARK                         _______ _______ _______ _____ _____    ______ ____
ROOT
ATOM      1  C   UNL     1      -2.512  10.770  17.877  0.00  0.00    +0.000 A 
ATOM      2  C   UNL     1      -3.667  11.427  18.366  0.00  0.00    +0.000 A 
ATOM      3 CL   UNL     1      -5.253  10.766  17.999  0.00  0.00    +0.000 Cl
ATOM      4  C   UNL     1      -3.587  12.540  19.263  0.00  0.00    +0.000 A 
ATOM      5  C   UNL     1      -2.291  12.977  19.700  0.00  0.00    +0.000 A 
ATOM      6  C   UNL     1      -1.138  12.251  19.260  0.00  0.00    +0.000 A 
ATOM      7  C   UNL     1      -1.241  11.183  18.329  0.00  0.00    +0.000 A 
ATOM      8  C   UNL     1      -2.069  14.055  20.774  0.00  0.00    +0.000 A 
ATOM      9  C   UNL     1      -1.234  15.074  20.442  0.00  0.00    +0.000 A 
ATOM     10  C   UNL     1      -0.880  16.138  21.374  0.00  0.00    +0.000 A 
ATOM     11  C   UNL     1      -0.299  15.801  22.546  0.00  0.00    +0.000 A 
ATOM     12  C   UNL     1      -1.342  15.616  23.580  0.00  0.00    +0.000 A 
ATOM     13  O   UNL     1      -1.334  16.224  24.652  0.00  0.00    +0.000 OA
ATOM     14  C   UNL     1      -2.420  14.618  23.270  0.00  0.00    +0.000 A 
ATOM     15  C   UNL     1      -2.716  13.946  22.132  0.00  0.00    +0.000 A 
ATOM     16  C   UNL     1      -3.895  13.000  22.084  0.00  0.00    +0.000 C 
ATOM     17  C   UNL     1      -4.982  13.654  21.240  0.00  0.00    +0.000 C 
ATOM     18  C   UNL     1      -4.917  13.096  19.810  0.00  0.00    +0.000 C 
ENDROOT
BRANCH   1  20
ATOM     19  C   UNL     1      -2.707   9.781  15.695  0.00  0.00    +0.000 C 
ATOM     20  O   UNL     1      -2.565   9.630  17.108  0.00  0.00    +0.000 OA
ENDBRANCH   1  20
BRANCH   6  21
ATOM     21  O   UNL     1       0.032  12.673  19.862  0.00  0.00    +0.000 OA
ATOM     22  C   UNL     1       0.605  11.994  20.965  0.00  0.00    +0.000 C 
ENDBRANCH   6  21
BRANCH   7  23
ATOM     23  O   UNL     1      -0.041  10.642  17.955  0.00  0.00    +0.000 OA
ATOM     24  C   UNL     1       0.521   9.492  18.553  0.00  0.00    +0.000 C 
ENDBRANCH   7  23
BRANCH  11  25
ATOM     25  O   UNL     1       0.835  15.029  22.720  0.00  0.00    +0.000 OA
ATOM     26  C   UNL     1       2.016  15.591  22.164  0.00  0.00    +0.000 C 
ENDBRANCH  11  25
BRANCH  16  27
ATOM     27  N   UNL     1      -4.214  12.311  23.317  0.00  0.00    +0.000 N 
ATOM     28  H   UNL     1      -3.638  11.490  23.469  0.00  0.00    +0.000 HD
BRANCH  27  29
ATOM     29  C   UNL     1      -5.012  12.513  24.367  0.00  0.00    +0.000 C 
ATOM     30  S   UNL     1      -6.653  12.577  24.129  0.00  0.00    +0.000 S 
BRANCH  29  31
ATOM     31  N   UNL     1      -4.485  12.625  25.592  0.00  0.00    +0.000 N 
ATOM     32  H   UNL     1      -3.900  13.398  25.850  0.00  0.00    +0.000 HD
ATOM     33  H   UNL     1      -4.955  12.129  26.338  0.00  0.00    +0.000 HD
ENDBRANCH  29  31
ENDBRANCH  27  29
ENDBRANCH  16  27
TORSDOF 7
ENDMDL
MODEL 8
REMARK VINA RESULT:      -5.0      4.385      5.175
REMARK  Name = 
REMARK  11 active torsions:
REMARK  status: ('A' for Active; 'I' for Inactive)
REMARK    1  A    between atoms: C_1  and  O_2
REMARK    2  A    between atoms: O_2  and  C_3
REMARK    3  A    between atoms: C_8  and  O_9
REMARK    4  A    between atoms: O_9  and  C_10
REMARK    5  A    between atoms: C_11  and  O_12
REMARK    6  A    between atoms: O_12  and  C_13
REMARK    7  A    between atoms: C_17  and  O_18
REMARK    8  A    between atoms: O_18  and  C_19
REMARK    9  A    between atoms: C_24  and  N_25
REMARK   10  A    between atoms: N_25  and  C_26
REMARK   11  A    between atoms: C_26  and  N_27
REMARK                            x       y       z     vdW  Elec       q    Type
REMARK                         _______ _______ _______ _____ _____    ______ ____
ROOT
ATOM      1  C   UNL     1       2.879  14.434  20.007  0.00  0.00    +0.000 A 
ATOM      2  C   UNL     1       1.943  13.660  19.280  0.00  0.00    +0.000 A 
ATOM      3 CL   UNL     1       2.485  12.746  17.881  0.00  0.00    +0.000 Cl
ATOM      4  C   UNL     1       0.592  13.490  19.721  0.00  0.00    +0.000 A 
ATOM      5  C   UNL     1       0.192  14.100  20.958  0.00  0.00    +0.000 A 
ATOM      6  C   UNL     1       1.173  14.811  21.721  0.00  0.00    +0.000 A 
ATOM      7  C   UNL     1       2.492  15.010  21.235  0.00  0.00    +0.000 A 
ATOM      8  C   UNL     1      -1.177  13.871  21.620  0.00  0.00    +0.000 A 
ATOM      9  C   UNL     1      -1.875  14.985  21.963  0.00  0.00    +0.000 A 
ATOM     10  C   UNL     1      -3.159  14.930  22.651  0.00  0.00    +0.000 A 
ATOM     11  C   UNL     1      -3.225  14.300  23.844  0.00  0.00    +0.000 A 
ATOM     12  C   UNL     1      -3.585  12.880  23.635  0.00  0.00    +0.000 A 
ATOM     13  O   UNL     1      -4.551  12.347  24.186  0.00  0.00    +0.000 OA
ATOM     14  C   UNL     1      -2.692  12.091  22.720  0.00  0.00    +0.000 A 
ATOM     15  C   UNL     1      -1.680  12.478  21.907  0.00  0.00    +0.000 A 
ATOM     16  C   UNL     1      -0.948  11.463  21.059  0.00  0.00    +0.000 C 
ATOM     17  C   UNL     1      -1.363  11.684  19.609  0.00  0.00    +0.000 C 
ATOM     18  C   UNL     1      -0.297  12.534  18.901  0.00  0.00    +0.000 C 
ENDROOT
BRANCH   1  20
ATOM     19  C   UNL     1       4.605  15.554  18.764  0.00  0.00    +0.000 C 
ATOM     20  O   UNL     1       4.210  14.520  19.665  0.00  0.00    +0.000 OA
ENDBRANCH   1  20
BRANCH   6  21
ATOM     21  O   UNL     1       0.707  15.223  22.955  0.00  0.00    +0.000 OA
ATOM     22  C   UNL     1       0.665  16.587  23.333  0.00  0.00    +0.000 C 
ENDBRANCH   6  21
BRANCH   7  23
ATOM     23  O   UNL     1       3.285  15.772  22.050  0.00  0.00    +0.000 OA
ATOM     24  C   UNL     1       4.241  15.234  22.940  0.00  0.00    +0.000 C 
ENDBRANCH   7  23
BRANCH  11  25
ATOM     25  O   UNL     1      -2.440  14.542  24.956  0.00  0.00    +0.000 OA
ATOM     26  C   UNL     1      -2.533  15.868  25.461  0.00  0.00    +0.000 C 
ENDBRANCH  11  25
BRANCH  16  27
ATOM     27  N   UNL     1      -0.831  10.131  21.612  0.00  0.00    +0.000 N 
ATOM     28  H   UNL     1      -1.567   9.508  21.297  0.00  0.00    +0.000 HD
BRANCH  27  29
ATOM     29  C   UNL     1       0.043   9.463  22.366  0.00  0.00    +0.000 C 
ATOM     30  S   UNL     1       1.327   8.710  21.634  0.00  0.00    +0.000 S 
BRANCH  29  31
ATOM     31  N   UNL     1      -0.108   9.437  23.695  0.00  0.00    +0.000 N 
ATOM     32  H   UNL     1       0.664   9.276  24.315  0.00  0.00    +0.000 HD
ATOM     33  H   UNL     1      -0.913   9.919  24.073  0.00  0.00    +0.000 HD
ENDBRANCH  29  31
ENDBRANCH  27  29
ENDBRANCH  16  27
TORSDOF 7
ENDMDL
MODEL 9
REMARK VINA RESULT:      -5.0      4.378      5.315
REMARK  Name = 
REMARK  11 active torsions:
REMARK  status: ('A' for Active; 'I' for Inactive)
REMARK    1  A    between atoms: C_1  and  O_2
REMARK    2  A    between atoms: O_2  and  C_3
REMARK    3  A    between atoms: C_8  and  O_9
REMARK    4  A    between atoms: O_9  and  C_10
REMARK    5  A    between atoms: C_11  and  O_12
REMARK    6  A    between atoms: O_12  and  C_13
REMARK    7  A    between atoms: C_17  and  O_18
REMARK    8  A    between atoms: O_18  and  C_19
REMARK    9  A    between atoms: C_24  and  N_25
REMARK   10  A    between atoms: N_25  and  C_26
REMARK   11  A    between atoms: C_26  and  N_27
REMARK                            x       y       z     vdW  Elec       q    Type
REMARK                         _______ _______ _______ _____ _____    ______ ____
ROOT
ATOM      1  C   UNL     1       1.792  15.593  19.418  0.00  0.00    +0.000 A 
ATOM      2  C   UNL     1       1.246  14.366  18.971  0.00  0.00    +0.000 A 
ATOM      3 CL   UNL     1       2.139  13.400  17.807  0.00  0.00    +0.000 Cl
ATOM      4  C   UNL     1       0.049  13.817  19.534  0.00  0.00    +0.000 A 
ATOM      5  C   UNL     1      -0.592  14.524  20.606  0.00  0.00    +0.000 A 
ATOM      6  C   UNL     1       0.019  15.721  21.100  0.00  0.00    +0.000 A 
ATOM      7  C   UNL     1       1.176  16.273  20.490  0.00  0.00    +0.000 A 
ATOM      8  C   UNL     1      -1.789  13.973  21.398  0.00  0.00    +0.000 A 
ATOM      9  C   UNL     1      -2.871  14.789  21.502  0.00  0.00    +0.000 A 
ATOM     10  C   UNL     1      -4.057  14.431  22.270  0.00  0.00    +0.000 A 
ATOM     11  C   UNL     1      -3.914  14.150  23.583  0.00  0.00    +0.000 A 
ATOM     12  C   UNL     1      -3.698  12.696  23.757  0.00  0.00    +0.000 A 
ATOM     13  O   UNL     1      -4.404  11.998  24.488  0.00  0.00    +0.000 OA
ATOM     14  C   UNL     1      -2.544  12.097  23.005  0.00  0.00    +0.000 A 
ATOM     15  C   UNL     1      -1.731  12.616  22.054  0.00  0.00    +0.000 A 
ATOM     16  C   UNL     1      -0.640  11.772  21.433  0.00  0.00    +0.000 C 
ATOM     17  C   UNL     1      -1.063  11.443  20.006  0.00  0.00    +0.000 C 
ATOM     18  C   UNL     1      -0.381  12.421  19.038  0.00  0.00    +0.000 C 
ENDROOT
BRANCH   1  20
ATOM     19  C   UNL     1       3.019  16.797  17.737  0.00  0.00    +0.000 C 
ATOM     20  O   UNL     1       3.000  16.084  18.974  0.00  0.00    +0.000 OA
ENDBRANCH   1  20
BRANCH   6  21
ATOM     21  O   UNL     1      -0.608  16.227  22.223  0.00  0.00    +0.000 OA
ATOM     22  C   UNL     1      -1.164  17.529  22.260  0.00  0.00    +0.000 C 
ENDBRANCH   6  21
BRANCH   7  23
ATOM     23  O   UNL     1       1.592  17.457  21.035  0.00  0.00    +0.000 OA
ATOM     24  C   UNL     1       2.620  17.559  21.998  0.00  0.00    +0.000 C 
ENDBRANCH   7  23
BRANCH  11  25
ATOM     25  O   UNL     1      -3.317  14.944  24.544  0.00  0.00    +0.000 OA
ATOM     26  C   UNL     1      -3.969  16.188  24.764  0.00  0.00    +0.000 C 
ENDBRANCH  11  25
BRANCH  16  27
ATOM     27  N   UNL     1      -0.041  10.770  22.289  0.00  0.00    +0.000 N 
ATOM     28  H   UNL     1       0.372  11.165  23.127  0.00  0.00    +0.000 HD
BRANCH  27  29
ATOM     29  C   UNL     1       0.044   9.440  22.319  0.00  0.00    +0.000 C 
ATOM     30  S   UNL     1       1.195   8.686  21.391  0.00  0.00    +0.000 S 
BRANCH  29  31
ATOM     31  N   UNL     1      -0.770   8.739  23.116  0.00  0.00    +0.000 N 
ATOM     32  H   UNL     1      -1.690   8.463  22.827  0.00  0.00    +0.000 HD
ATOM     33  H   UNL     1      -0.334   8.199  23.853  0.00  0.00    +0.000 HD
ENDBRANCH  29  31
ENDBRANCH  27  29
ENDBRANCH  16  27
TORSDOF 7
ENDMDL
