MODEL 1
REMARK VINA RESULT:      -8.5      0.000      0.000
REMARK  Name = 
REMARK  6 active torsions:
REMARK  status: ('A' for Active; 'I' for Inactive)
REMARK    1  A    between atoms: C_1  and  O_2
REMARK    2  A    between atoms: O_2  and  C_3
REMARK    3  A    between atoms: C_7  and  N_8
REMARK    4  A    between atoms: C_18  and  S_19
REMARK    5  A    between atoms: S_19  and  C_20
REMARK    6  A    between atoms: C_20  and  C_21
REMARK                            x       y       z     vdW  Elec       q    Type
REMARK                         _______ _______ _______ _____ _____    ______ ____
ROOT
ATOM      1  N   UNL     1       4.389   4.601  17.075  0.00  0.00    +0.000 N 
ATOM      2  C   UNL     1       4.126   3.472  17.870  0.00  0.00    +0.000 A 
ATOM      3  O   UNL     1       4.655   2.368  17.747  0.00  0.00    +0.000 OA
ATOM      4  C   UNL     1       3.065   3.572  18.911  0.00  0.00    +0.000 A 
ATOM      5  C   UNL     1       2.758   2.443  19.685  0.00  0.00    +0.000 A 
ATOM      6  C   UNL     1       1.707   2.481  20.599  0.00  0.00    +0.000 A 
ATOM      7  C   UNL     1       0.940   3.636  20.724  0.00  0.00    +0.000 A 
ATOM      8  C   UNL     1       1.260   4.778  19.985  0.00  0.00    +0.000 A 
ATOM      9  C   UNL     1       2.356   4.756  19.117  0.00  0.00    +0.000 A 
ATOM     10  N   UNL     1       2.790   5.881  18.399  0.00  0.00    +0.000 N 
ATOM     11  C   UNL     1       2.568   7.236  18.550  0.00  0.00    +0.000 A 
ATOM     12  N   UNL     1       3.061   7.877  17.517  0.00  0.00    +0.000 NA
ATOM     13  N   UNL     1       3.784   6.974  16.784  0.00  0.00    +0.000 NA
ATOM     14  C   UNL     1       3.698   5.786  17.356  0.00  0.00    +0.000 A 
ENDROOT
BRANCH   1  19
ATOM     15  C   UNL     1       6.194   3.949  13.808  0.00  0.00    +0.000 A 
ATOM     16  C   UNL     1       7.407   4.590  14.038  0.00  0.00    +0.000 A 
ATOM     17  C   UNL     1       7.633   5.231  15.250  0.00  0.00    +0.000 A 
ATOM     18  C   UNL     1       6.640   5.234  16.235  0.00  0.00    +0.000 A 
ATOM     19  C   UNL     1       5.400   4.599  16.041  0.00  0.00    +0.000 A 
ATOM     20  C   UNL     1       5.210   3.953  14.805  0.00  0.00    +0.000 A 
BRANCH  15  22
ATOM     21  C   UNL     1       4.834   3.451  11.924  0.00  0.00    +0.000 C 
ATOM     22  O   UNL     1       6.088   3.336  12.588  0.00  0.00    +0.000 OA
ENDBRANCH  15  22
ENDBRANCH   1  19
BRANCH  11  23
ATOM     23  S   UNL     1       2.039   8.007  20.016  0.00  0.00    +0.000 S 
BRANCH  23  24
ATOM     24  C   UNL     1       1.065   9.406  19.369  0.00  0.00    +0.000 C 
BRANCH  24  25
ATOM     25  C   UNL     1       0.244  10.042  20.479  0.00  0.00    +0.000 A 
ATOM     26  C   UNL     1       0.378   9.630  21.753  0.00  0.00    +0.000 A 
ATOM     27  C   UNL     1      -0.416  10.274  22.824  0.00  0.00    +0.000 A 
ATOM     28  O   UNL     1      -0.298   9.897  23.985  0.00  0.00    +0.000 OA
ATOM     29  N   UNL     1      -1.238  11.281  22.388  0.00  0.00    +0.000 N 
ATOM     30  C   UNL     1      -2.075  12.021  23.195  0.00  0.00    +0.000 A 
ATOM     31  C   UNL     1      -2.772  12.956  22.539  0.00  0.00    +0.000 A 
ATOM     32  S   UNL     1      -2.399  12.954  20.835  0.00  0.00    +0.000 S 
ATOM     33  C   UNL     1      -1.269  11.626  21.057  0.00  0.00    +0.000 A 
ATOM     34  N   UNL     1      -0.588  11.080  20.106  0.00  0.00    +0.000 NA
ENDBRANCH  24  25
ENDBRANCH  23  24
ENDBRANCH  11  23
TORSDOF 5
ENDMDL
MODEL 2
REMARK VINA RESULT:      -8.5      1.814      2.184
REMARK  Name = 
REMARK  6 active torsions:
REMARK  status: ('A' for Active; 'I' for Inactive)
REMARK    1  A    between atoms: C_1  and  O_2
REMARK    2  A    between atoms: O_2  and  C_3
REMARK    3  A    between atoms: C_7  and  N_8
REMARK    4  A    between atoms: C_18  and  S_19
REMARK    5  A    between atoms: S_19  and  C_20
REMARK    6  A    between atoms: C_20  and  C_21
REMARK                            x       y       z     vdW  Elec       q    Type
REMARK                         _______ _______ _______ _____ _____    ______ ____
ROOT
ATOM      1  N   UNL     1       4.316   4.747  17.578  0.00  0.00    +0.000 N 
ATOM      2  C   UNL     1       4.223   3.664  18.467  0.00  0.00    +0.000 A 
ATOM      3  O   UNL     1       4.888   2.629  18.411  0.00  0.00    +0.000 OA
ATOM      4  C   UNL     1       3.187   3.713  19.537  0.00  0.00    +0.000 A 
ATOM      5  C   UNL     1       3.050   2.622  20.407  0.00  0.00    +0.000 A 
ATOM      6  C   UNL     1       2.029   2.601  21.355  0.00  0.00    +0.000 A 
ATOM      7  C   UNL     1       1.121   3.655  21.417  0.00  0.00    +0.000 A 
ATOM      8  C   UNL     1       1.271   4.764  20.580  0.00  0.00    +0.000 A 
ATOM      9  C   UNL     1       2.336   4.810  19.676  0.00  0.00    +0.000 A 
ATOM     10  N   UNL     1       2.601   5.918  18.857  0.00  0.00    +0.000 N 
ATOM     11  C   UNL     1       2.209   7.242  18.910  0.00  0.00    +0.000 A 
ATOM     12  N   UNL     1       2.587   7.853  17.812  0.00  0.00    +0.000 NA
ATOM     13  N   UNL     1       3.400   6.993  17.125  0.00  0.00    +0.000 NA
ATOM     14  C   UNL     1       3.485   5.854  17.790  0.00  0.00    +0.000 A 
ENDROOT
BRANCH   1  19
ATOM     15  C   UNL     1       6.017   4.208  14.235  0.00  0.00    +0.000 A 
ATOM     16  C   UNL     1       7.226   4.865  14.439  0.00  0.00    +0.000 A 
ATOM     17  C   UNL     1       7.483   5.480  15.658  0.00  0.00    +0.000 A 
ATOM     18  C   UNL     1       6.525   5.442  16.677  0.00  0.00    +0.000 A 
ATOM     19  C   UNL     1       5.291   4.789  16.509  0.00  0.00    +0.000 A 
ATOM     20  C   UNL     1       5.069   4.170  15.265  0.00  0.00    +0.000 A 
BRANCH  15  22
ATOM     21  C   UNL     1       6.929   3.852  12.070  0.00  0.00    +0.000 C 
ATOM     22  O   UNL     1       5.879   3.623  13.004  0.00  0.00    +0.000 OA
ENDBRANCH  15  22
ENDBRANCH   1  19
BRANCH  11  23
ATOM     23  S   UNL     1       1.624   8.057  20.330  0.00  0.00    +0.000 S 
BRANCH  23  24
ATOM     24  C   UNL     1       1.698   9.803  19.812  0.00  0.00    +0.000 C 
BRANCH  24  25
ATOM     25  C   UNL     1       0.303  10.333  19.522  0.00  0.00    +0.000 A 
ATOM     26  C   UNL     1      -0.306  11.168  20.384  0.00  0.00    +0.000 A 
ATOM     27  C   UNL     1      -1.657  11.689  20.077  0.00  0.00    +0.000 A 
ATOM     28  O   UNL     1      -2.215  12.448  20.863  0.00  0.00    +0.000 OA
ATOM     29  N   UNL     1      -2.170  11.256  18.881  0.00  0.00    +0.000 N 
ATOM     30  C   UNL     1      -3.409  11.598  18.383  0.00  0.00    +0.000 A 
ATOM     31  C   UNL     1      -3.681  11.056  17.191  0.00  0.00    +0.000 A 
ATOM     32  S   UNL     1      -2.361  10.068  16.620  0.00  0.00    +0.000 S 
ATOM     33  C   UNL     1      -1.437  10.417  18.074  0.00  0.00    +0.000 A 
ATOM     34  N   UNL     1      -0.260   9.949  18.320  0.00  0.00    +0.000 NA
ENDBRANCH  24  25
ENDBRANCH  23  24
ENDBRANCH  11  23
TORSDOF 5
ENDMDL
MODEL 3
REMARK VINA RESULT:      -8.5      4.043     10.070
REMARK  Name = 
REMARK  6 active torsions:
REMARK  status: ('A' for Active; 'I' for Inactive)
REMARK    1  A    between atoms: C_1  and  O_2
REMARK    2  A    between atoms: O_2  and  C_3
REMARK    3  A    between atoms: C_7  and  N_8
REMARK    4  A    between atoms: C_18  and  S_19
REMARK    5  A    between atoms: S_19  and  C_20
REMARK    6  A    between atoms: C_20  and  C_21
REMARK                            x       y       z     vdW  Elec       q    Type
REMARK                         _______ _______ _______ _____ _____    ______ ____
ROOT
ATOM      1  N   UNL     1       0.747  13.909  20.213  0.00  0.00    +0.000 N 
ATOM      2  C   UNL     1      -0.069  13.528  21.292  0.00  0.00    +0.000 A 
ATOM      3  O   UNL     1      -0.686  14.293  22.032  0.00  0.00    +0.000 OA
ATOM      4  C   UNL     1      -0.153  12.081  21.638  0.00  0.00    +0.000 A 
ATOM      5  C   UNL     1      -0.928  11.685  22.739  0.00  0.00    +0.000 A 
ATOM      6  C   UNL     1      -0.948  10.352  23.142  0.00  0.00    +0.000 A 
ATOM      7  C   UNL     1      -0.172   9.413  22.468  0.00  0.00    +0.000 A 
ATOM      8  C   UNL     1       0.574   9.789  21.348  0.00  0.00    +0.000 A 
ATOM      9  C   UNL     1       0.540  11.115  20.907  0.00  0.00    +0.000 A 
ATOM     10  N   UNL     1       1.197  11.557  19.749  0.00  0.00    +0.000 N 
ATOM     11  C   UNL     1       1.701  10.898  18.644  0.00  0.00    +0.000 A 
ATOM     12  N   UNL     1       2.379  11.742  17.903  0.00  0.00    +0.000 NA
ATOM     13  N   UNL     1       2.158  12.996  18.407  0.00  0.00    +0.000 NA
ATOM     14  C   UNL     1       1.376  12.903  19.468  0.00  0.00    +0.000 A 
ENDROOT
BRANCH   1  19
ATOM     15  C   UNL     1       0.232  17.197  18.401  0.00  0.00    +0.000 A 
ATOM     16  C   UNL     1       1.208  17.989  18.999  0.00  0.00    +0.000 A 
ATOM     17  C   UNL     1       2.027  17.453  19.985  0.00  0.00    +0.000 A 
ATOM     18  C   UNL     1       1.866  16.121  20.380  0.00  0.00    +0.000 A 
ATOM     19  C   UNL     1       0.891  15.288  19.802  0.00  0.00    +0.000 A 
ATOM     20  C   UNL     1       0.086  15.862  18.801  0.00  0.00    +0.000 A 
BRANCH  15  22
ATOM     21  C   UNL     1       0.228  18.459  16.389  0.00  0.00    +0.000 C 
ATOM     22  O   UNL     1      -0.504  17.822  17.431  0.00  0.00    +0.000 OA
ENDBRANCH  15  22
ENDBRANCH   1  19
BRANCH  11  23
ATOM     23  S   UNL     1       1.231   9.304  18.128  0.00  0.00    +0.000 S 
BRANCH  23  24
ATOM     24  C   UNL     1       2.846   8.539  17.772  0.00  0.00    +0.000 C 
BRANCH  24  25
ATOM     25  C   UNL     1       2.903   7.127  18.334  0.00  0.00    +0.000 A 
ATOM     26  C   UNL     1       2.354   6.844  19.529  0.00  0.00    +0.000 A 
ATOM     27  C   UNL     1       2.401   5.460  20.053  0.00  0.00    +0.000 A 
ATOM     28  O   UNL     1       1.904   5.200  21.144  0.00  0.00    +0.000 OA
ATOM     29  N   UNL     1       3.020   4.563  19.221  0.00  0.00    +0.000 N 
ATOM     30  C   UNL     1       3.192   3.223  19.492  0.00  0.00    +0.000 A 
ATOM     31  C   UNL     1       3.817   2.549  18.520  0.00  0.00    +0.000 A 
ATOM     32  S   UNL     1       4.228   3.591  17.182  0.00  0.00    +0.000 S 
ATOM     33  C   UNL     1       3.523   4.974  18.008  0.00  0.00    +0.000 A 
ATOM     34  N   UNL     1       3.495   6.173  17.531  0.00  0.00    +0.000 NA
ENDBRANCH  24  25
ENDBRANCH  23  24
ENDBRANCH  11  23
TORSDOF 5
ENDMDL
MODEL 4
REMARK VINA RESULT:      -8.4      1.835      2.146
REMARK  Name = 
REMARK  6 active torsions:
REMARK  status: ('A' for Active; 'I' for Inactive)
REMARK    1  A    between atoms: C_1  and  O_2
REMARK    2  A    between atoms: O_2  and  C_3
REMARK    3  A    between atoms: C_7  and  N_8
REMARK    4  A    between atoms: C_18  and  S_19
REMARK    5  A    between atoms: S_19  and  C_20
REMARK    6  A    between atoms: C_20  and  C_21
REMARK                            x       y       z     vdW  Elec       q    Type
REMARK                         _______ _______ _______ _____ _____    ______ ____
ROOT
ATOM      1  N   UNL     1       4.350   4.745  17.603  0.00  0.00    +0.000 N 
ATOM      2  C   UNL     1       4.270   3.675  18.511  0.00  0.00    +0.000 A 
ATOM      3  O   UNL     1       4.939   2.643  18.466  0.00  0.00    +0.000 OA
ATOM      4  C   UNL     1       3.242   3.737  19.588  0.00  0.00    +0.000 A 
ATOM      5  C   UNL     1       3.118   2.659  20.477  0.00  0.00    +0.000 A 
ATOM      6  C   UNL     1       2.104   2.649  21.433  0.00  0.00    +0.000 A 
ATOM      7  C   UNL     1       1.192   3.700  21.486  0.00  0.00    +0.000 A 
ATOM      8  C   UNL     1       1.329   4.796  20.630  0.00  0.00    +0.000 A 
ATOM      9  C   UNL     1       2.387   4.833  19.716  0.00  0.00    +0.000 A 
ATOM     10  N   UNL     1       2.640   5.928  18.877  0.00  0.00    +0.000 N 
ATOM     11  C   UNL     1       2.241   7.251  18.912  0.00  0.00    +0.000 A 
ATOM     12  N   UNL     1       2.607   7.846  17.802  0.00  0.00    +0.000 NA
ATOM     13  N   UNL     1       3.420   6.978  17.121  0.00  0.00    +0.000 NA
ATOM     14  C   UNL     1       3.516   5.851  17.805  0.00  0.00    +0.000 A 
ENDROOT
BRANCH   1  19
ATOM     15  C   UNL     1       6.003   4.207  14.236  0.00  0.00    +0.000 A 
ATOM     16  C   UNL     1       7.234   4.825  14.439  0.00  0.00    +0.000 A 
ATOM     17  C   UNL     1       7.520   5.413  15.664  0.00  0.00    +0.000 A 
ATOM     18  C   UNL     1       6.571   5.387  16.691  0.00  0.00    +0.000 A 
ATOM     19  C   UNL     1       5.316   4.774  16.526  0.00  0.00    +0.000 A 
ATOM     20  C   UNL     1       5.064   4.182  15.275  0.00  0.00    +0.000 A 
BRANCH  15  22
ATOM     21  C   UNL     1       6.919   3.787  12.084  0.00  0.00    +0.000 C 
ATOM     22  O   UNL     1       5.837   3.646  12.998  0.00  0.00    +0.000 OA
ENDBRANCH  15  22
ENDBRANCH   1  19
BRANCH  11  23
ATOM     23  S   UNL     1       1.664   8.086  20.324  0.00  0.00    +0.000 S 
BRANCH  23  24
ATOM     24  C   UNL     1       1.716   9.823  19.774  0.00  0.00    +0.000 C 
BRANCH  24  25
ATOM     25  C   UNL     1       0.328  10.295  19.369  0.00  0.00    +0.000 A 
ATOM     26  C   UNL     1      -0.230   9.874  18.220  0.00  0.00    +0.000 A 
ATOM     27  C   UNL     1      -1.590  10.330  17.851  0.00  0.00    +0.000 A 
ATOM     28  O   UNL     1      -2.099   9.950  16.801  0.00  0.00    +0.000 OA
ATOM     29  N   UNL     1      -2.173  11.164  18.768  0.00  0.00    +0.000 N 
ATOM     30  C   UNL     1      -3.429  11.721  18.644  0.00  0.00    +0.000 A 
ATOM     31  C   UNL     1      -3.782  12.495  19.676  0.00  0.00    +0.000 A 
ATOM     32  S   UNL     1      -2.527  12.561  20.886  0.00  0.00    +0.000 S 
ATOM     33  C   UNL     1      -1.506  11.504  19.922  0.00  0.00    +0.000 A 
ATOM     34  N   UNL     1      -0.321  11.122  20.265  0.00  0.00    +0.000 NA
ENDBRANCH  24  25
ENDBRANCH  23  24
ENDBRANCH  11  23
TORSDOF 5
ENDMDL
MODEL 5
REMARK VINA RESULT:      -8.4      2.855     11.201
REMARK  Name = 
REMARK  6 active torsions:
REMARK  status: ('A' for Active; 'I' for Inactive)
REMARK    1  A    between atoms: C_1  and  O_2
REMARK    2  A    between atoms: O_2  and  C_3
REMARK    3  A    between atoms: C_7  and  N_8
REMARK    4  A    between atoms: C_18  and  S_19
REMARK    5  A    between atoms: S_19  and  C_20
REMARK    6  A    between atoms: C_20  and  C_21
REMARK                            x       y       z     vdW  Elec       q    Type
REMARK                         _______ _______ _______ _____ _____    ______ ____
ROOT
ATOM      1  N   UNL     1      -1.720  12.517  22.049  0.00  0.00    +0.000 N 
ATOM      2  C   UNL     1      -2.089  12.860  20.738  0.00  0.00    +0.000 A 
ATOM      3  O   UNL     1      -2.716  13.866  20.407  0.00  0.00    +0.000 OA
ATOM      4  C   UNL     1      -1.770  11.903  19.640  0.00  0.00    +0.000 A 
ATOM      5  C   UNL     1      -2.170  12.208  18.330  0.00  0.00    +0.000 A 
ATOM      6  C   UNL     1      -1.970  11.290  17.302  0.00  0.00    +0.000 A 
ATOM      7  C   UNL     1      -1.398  10.051  17.581  0.00  0.00    +0.000 A 
ATOM      8  C   UNL     1      -0.962   9.752  18.875  0.00  0.00    +0.000 A 
ATOM      9  C   UNL     1      -1.106  10.702  19.891  0.00  0.00    +0.000 A 
ATOM     10  N   UNL     1      -0.626  10.511  21.195  0.00  0.00    +0.000 N 
ATOM     11  C   UNL     1       0.306   9.646  21.737  0.00  0.00    +0.000 A 
ATOM     12  N   UNL     1       0.281   9.742  23.046  0.00  0.00    +0.000 NA
ATOM     13  N   UNL     1      -0.518  10.808  23.362  0.00  0.00    +0.000 NA
ATOM     14  C   UNL     1      -1.000  11.332  22.248  0.00  0.00    +0.000 A 
ENDROOT
BRANCH   1  19
ATOM     15  C   UNL     1      -1.297  15.136  24.754  0.00  0.00    +0.000 A 
ATOM     16  C   UNL     1      -2.523  15.048  25.408  0.00  0.00    +0.000 A 
ATOM     17  C   UNL     1      -3.479  14.141  24.968  0.00  0.00    +0.000 A 
ATOM     18  C   UNL     1      -3.211  13.322  23.866  0.00  0.00    +0.000 A 
ATOM     19  C   UNL     1      -1.986  13.381  23.178  0.00  0.00    +0.000 A 
ATOM     20  C   UNL     1      -1.038  14.305  23.657  0.00  0.00    +0.000 A 
BRANCH  15  22
ATOM     21  C   UNL     1      -0.496  16.255  26.691  0.00  0.00    +0.000 C 
ATOM     22  O   UNL     1      -0.426  16.050  25.284  0.00  0.00    +0.000 OA
ENDBRANCH  15  22
ENDBRANCH   1  19
BRANCH  11  23
ATOM     23  S   UNL     1       1.549   8.823  20.841  0.00  0.00    +0.000 S 
BRANCH  23  24
ATOM     24  C   UNL     1       1.067   7.079  21.056  0.00  0.00    +0.000 C 
BRANCH  24  25
ATOM     25  C   UNL     1       2.044   6.163  20.336  0.00  0.00    +0.000 A 
ATOM     26  C   UNL     1       2.176   4.876  20.705  0.00  0.00    +0.000 A 
ATOM     27  C   UNL     1       3.119   3.994  19.981  0.00  0.00    +0.000 A 
ATOM     28  O   UNL     1       3.243   2.821  20.318  0.00  0.00    +0.000 OA
ATOM     29  N   UNL     1       3.784   4.605  18.950  0.00  0.00    +0.000 N 
ATOM     30  C   UNL     1       4.714   3.993  18.137  0.00  0.00    +0.000 A 
ATOM     31  C   UNL     1       5.221   4.796  17.194  0.00  0.00    +0.000 A 
ATOM     32  S   UNL     1       4.534   6.398  17.280  0.00  0.00    +0.000 S 
ATOM     33  C   UNL     1       3.544   5.928  18.655  0.00  0.00    +0.000 A 
ATOM     34  N   UNL     1       2.730   6.716  19.272  0.00  0.00    +0.000 NA
ENDBRANCH  24  25
ENDBRANCH  23  24
ENDBRANCH  11  23
TORSDOF 5
ENDMDL
MODEL 6
REMARK VINA RESULT:      -8.4      3.979     10.200
REMARK  Name = 
REMARK  6 active torsions:
REMARK  status: ('A' for Active; 'I' for Inactive)
REMARK    1  A    between atoms: C_1  and  O_2
REMARK    2  A    between atoms: O_2  and  C_3
REMARK    3  A    between atoms: C_7  and  N_8
REMARK    4  A    between atoms: C_18  and  S_19
REMARK    5  A    between atoms: S_19  and  C_20
REMARK    6  A    between atoms: C_20  and  C_21
REMARK                            x       y       z     vdW  Elec       q    Type
REMARK                         _______ _______ _______ _____ _____    ______ ____
ROOT
ATOM      1  N   UNL     1       0.617  13.923  20.089  0.00  0.00    +0.000 N 
ATOM      2  C   UNL     1      -0.191  13.576  21.185  0.00  0.00    +0.000 A 
ATOM      3  O   UNL     1      -0.825  14.362  21.888  0.00  0.00    +0.000 OA
ATOM      4  C   UNL     1      -0.244  12.145  21.600  0.00  0.00    +0.000 A 
ATOM      5  C   UNL     1      -1.011  11.786  22.718  0.00  0.00    +0.000 A 
ATOM      6  C   UNL     1      -1.003  10.474  23.185  0.00  0.00    +0.000 A 
ATOM      7  C   UNL     1      -0.206   9.520  22.555  0.00  0.00    +0.000 A 
ATOM      8  C   UNL     1       0.532   9.859  21.418  0.00  0.00    +0.000 A 
ATOM      9  C   UNL     1       0.470  11.161  20.915  0.00  0.00    +0.000 A 
ATOM     10  N   UNL     1       1.117  11.562  19.737  0.00  0.00    +0.000 N 
ATOM     11  C   UNL     1       1.635  10.862  18.664  0.00  0.00    +0.000 A 
ATOM     12  N   UNL     1       2.296  11.684  17.883  0.00  0.00    +0.000 NA
ATOM     13  N   UNL     1       2.048  12.956  18.327  0.00  0.00    +0.000 NA
ATOM     14  C   UNL     1       1.267  12.897  19.392  0.00  0.00    +0.000 A 
ENDROOT
BRANCH   1  19
ATOM     15  C   UNL     1       1.866  17.463  19.575  0.00  0.00    +0.000 A 
ATOM     16  C   UNL     1       0.919  17.955  18.683  0.00  0.00    +0.000 A 
ATOM     17  C   UNL     1      -0.119  17.138  18.252  0.00  0.00    +0.000 A 
ATOM     18  C   UNL     1      -0.207  15.820  18.712  0.00  0.00    +0.000 A 
ATOM     19  C   UNL     1       0.731  15.284  19.613  0.00  0.00    +0.000 A 
ATOM     20  C   UNL     1       1.762  16.143  20.033  0.00  0.00    +0.000 A 
BRANCH  15  22
ATOM     21  C   UNL     1       3.501  18.105  21.174  0.00  0.00    +0.000 C 
ATOM     22  O   UNL     1       2.832  18.361  19.944  0.00  0.00    +0.000 OA
ENDBRANCH  15  22
ENDBRANCH   1  19
BRANCH  11  23
ATOM     23  S   UNL     1       1.200   9.236  18.225  0.00  0.00    +0.000 S 
BRANCH  23  24
ATOM     24  C   UNL     1       2.829   8.499  17.871  0.00  0.00    +0.000 C 
BRANCH  24  25
ATOM     25  C   UNL     1       2.896   7.075  18.400  0.00  0.00    +0.000 A 
ATOM     26  C   UNL     1       2.349   6.759  19.589  0.00  0.00    +0.000 A 
ATOM     27  C   UNL     1       2.406   5.364  20.080  0.00  0.00    +0.000 A 
ATOM     28  O   UNL     1       1.911   5.075  21.164  0.00  0.00    +0.000 OA
ATOM     29  N   UNL     1       3.031   4.492  19.227  0.00  0.00    +0.000 N 
ATOM     30  C   UNL     1       3.213   3.146  19.467  0.00  0.00    +0.000 A 
ATOM     31  C   UNL     1       3.843   2.500  18.479  0.00  0.00    +0.000 A 
ATOM     32  S   UNL     1       4.246   3.576  17.166  0.00  0.00    +0.000 S 
ATOM     33  C   UNL     1       3.532   4.934  18.024  0.00  0.00    +0.000 A 
ATOM     34  N   UNL     1       3.495   6.143  17.575  0.00  0.00    +0.000 NA
ENDBRANCH  24  25
ENDBRANCH  23  24
ENDBRANCH  11  23
TORSDOF 5
ENDMDL
MODEL 7
REMARK VINA RESULT:      -8.3      1.110      1.110
REMARK  Name = 
REMARK  6 active torsions:
REMARK  status: ('A' for Active; 'I' for Inactive)
REMARK    1  A    between atoms: C_1  and  O_2
REMARK    2  A    between atoms: O_2  and  C_3
REMARK    3  A    between atoms: C_7  and  N_8
REMARK    4  A    between atoms: C_18  and  S_19
REMARK    5  A    between atoms: S_19  and  C_20
REMARK    6  A    between atoms: C_20  and  C_21
REMARK                            x       y       z     vdW  Elec       q    Type
REMARK                         _______ _______ _______ _____ _____    ______ ____
ROOT
ATOM      1  N   UNL     1       4.491   4.752  17.653  0.00  0.00    +0.000 N 
ATOM      2  C   UNL     1       4.430   3.713  18.597  0.00  0.00    +0.000 A 
ATOM      3  O   UNL     1       5.126   2.697  18.592  0.00  0.00    +0.000 OA
ATOM      4  C   UNL     1       3.393   3.785  19.663  0.00  0.00    +0.000 A 
ATOM      5  C   UNL     1       3.289   2.736  20.588  0.00  0.00    +0.000 A 
ATOM      6  C   UNL     1       2.268   2.732  21.536  0.00  0.00    +0.000 A 
ATOM      7  C   UNL     1       1.328   3.760  21.546  0.00  0.00    +0.000 A 
ATOM      8  C   UNL     1       1.444   4.829  20.654  0.00  0.00    +0.000 A 
ATOM      9  C   UNL     1       2.508   4.862  19.747  0.00  0.00    +0.000 A 
ATOM     10  N   UNL     1       2.740   5.934  18.873  0.00  0.00    +0.000 N 
ATOM     11  C   UNL     1       2.307   7.246  18.859  0.00  0.00    +0.000 A 
ATOM     12  N   UNL     1       2.667   7.812  17.731  0.00  0.00    +0.000 NA
ATOM     13  N   UNL     1       3.507   6.943  17.087  0.00  0.00    +0.000 NA
ATOM     14  C   UNL     1       3.626   5.843  17.810  0.00  0.00    +0.000 A 
ENDROOT
BRANCH   1  19
ATOM     15  C   UNL     1       6.241   4.040  14.369  0.00  0.00    +0.000 A 
ATOM     16  C   UNL     1       7.397   4.802  14.510  0.00  0.00    +0.000 A 
ATOM     17  C   UNL     1       7.603   5.542  15.667  0.00  0.00    +0.000 A 
ATOM     18  C   UNL     1       6.646   5.525  16.687  0.00  0.00    +0.000 A 
ATOM     19  C   UNL     1       5.464   4.769  16.583  0.00  0.00    +0.000 A 
ATOM     20  C   UNL     1       5.294   4.026  15.400  0.00  0.00    +0.000 A 
BRANCH  15  22
ATOM     21  C   UNL     1       5.050   3.647  12.351  0.00  0.00    +0.000 C 
ATOM     22  O   UNL     1       6.153   3.338  13.197  0.00  0.00    +0.000 OA
ENDBRANCH  15  22
ENDBRANCH   1  19
BRANCH  11  23
ATOM     23  S   UNL     1       1.697   8.114  20.236  0.00  0.00    +0.000 S 
BRANCH  23  24
ATOM     24  C   UNL     1       1.111   9.661  19.470  0.00  0.00    +0.000 C 
BRANCH  24  25
ATOM     25  C   UNL     1       0.474  10.565  20.514  0.00  0.00    +0.000 A 
ATOM     26  C   UNL     1      -0.259  10.045  21.515  0.00  0.00    +0.000 A 
ATOM     27  C   UNL     1      -0.856  10.938  22.533  0.00  0.00    +0.000 A 
ATOM     28  O   UNL     1      -1.528  10.467  23.444  0.00  0.00    +0.000 OA
ATOM     29  N   UNL     1      -0.576  12.268  22.350  0.00  0.00    +0.000 N 
ATOM     30  C   UNL     1      -1.023  13.288  23.161  0.00  0.00    +0.000 A 
ATOM     31  C   UNL     1      -0.609  14.503  22.783  0.00  0.00    +0.000 A 
ATOM     32  S   UNL     1       0.392  14.421  21.356  0.00  0.00    +0.000 S 
ATOM     33  C   UNL     1       0.210  12.674  21.296  0.00  0.00    +0.000 A 
ATOM     34  N   UNL     1       0.739  11.915  20.395  0.00  0.00    +0.000 NA
ENDBRANCH  24  25
ENDBRANCH  23  24
ENDBRANCH  11  23
TORSDOF 5
ENDMDL
MODEL 8
REMARK VINA RESULT:      -8.2      3.633      9.832
REMARK  Name = 
REMARK  6 active torsions:
REMARK  status: ('A' for Active; 'I' for Inactive)
REMARK    1  A    between atoms: C_1  and  O_2
REMARK    2  A    between atoms: O_2  and  C_3
REMARK    3  A    between atoms: C_7  and  N_8
REMARK    4  A    between atoms: C_18  and  S_19
REMARK    5  A    between atoms: S_19  and  C_20
REMARK    6  A    between atoms: C_20  and  C_21
REMARK                            x       y       z     vdW  Elec       q    Type
REMARK                         _______ _______ _______ _____ _____    ______ ____
ROOT
ATOM      1  N   UNL     1       0.833  13.324  19.984  0.00  0.00    +0.000 N 
ATOM      2  C   UNL     1       0.049  12.919  21.077  0.00  0.00    +0.000 A 
ATOM      3  O   UNL     1      -0.593  13.666  21.816  0.00  0.00    +0.000 OA
ATOM      4  C   UNL     1       0.034  11.474  21.441  0.00  0.00    +0.000 A 
ATOM      5  C   UNL     1      -0.708  11.058  22.556  0.00  0.00    +0.000 A 
ATOM      6  C   UNL     1      -0.664   9.730  22.975  0.00  0.00    +0.000 A 
ATOM      7  C   UNL     1       0.146   8.819  22.302  0.00  0.00    +0.000 A 
ATOM      8  C   UNL     1       0.860   9.214  21.168  0.00  0.00    +0.000 A 
ATOM      9  C   UNL     1       0.761  10.532  20.712  0.00  0.00    +0.000 A 
ATOM     10  N   UNL     1       1.383  10.989  19.541  0.00  0.00    +0.000 N 
ATOM     11  C   UNL     1       1.902  10.340  18.437  0.00  0.00    +0.000 A 
ATOM     12  N   UNL     1       2.532  11.205  17.678  0.00  0.00    +0.000 NA
ATOM     13  N   UNL     1       2.262  12.453  18.170  0.00  0.00    +0.000 NA
ATOM     14  C   UNL     1       1.498  12.339  19.242  0.00  0.00    +0.000 A 
ENDROOT
BRANCH   1  19
ATOM     15  C   UNL     1       2.085  16.858  19.435  0.00  0.00    +0.000 A 
ATOM     16  C   UNL     1       1.025  17.411  18.724  0.00  0.00    +0.000 A 
ATOM     17  C   UNL     1      -0.089  16.637  18.427  0.00  0.00    +0.000 A 
ATOM     18  C   UNL     1      -0.142  15.300  18.837  0.00  0.00    +0.000 A 
ATOM     19  C   UNL     1       0.910  14.703  19.555  0.00  0.00    +0.000 A 
ATOM     20  C   UNL     1       2.018  15.521  19.846  0.00  0.00    +0.000 A 
BRANCH  15  22
ATOM     21  C   UNL     1       4.422  17.272  19.318  0.00  0.00    +0.000 C 
ATOM     22  O   UNL     1       3.121  17.717  19.687  0.00  0.00    +0.000 OA
ENDBRANCH  15  22
ENDBRANCH   1  19
BRANCH  11  23
ATOM     23  S   UNL     1       1.498   8.721  17.946  0.00  0.00    +0.000 S 
BRANCH  23  24
ATOM     24  C   UNL     1       3.148   7.973  17.744  0.00  0.00    +0.000 C 
BRANCH  24  25
ATOM     25  C   UNL     1       3.092   6.478  18.016  0.00  0.00    +0.000 A 
ATOM     26  C   UNL     1       3.914   5.632  17.367  0.00  0.00    +0.000 A 
ATOM     27  C   UNL     1       3.859   4.182  17.658  0.00  0.00    +0.000 A 
ATOM     28  O   UNL     1       4.604   3.409  17.065  0.00  0.00    +0.000 OA
ATOM     29  N   UNL     1       2.940   3.833  18.614  0.00  0.00    +0.000 N 
ATOM     30  C   UNL     1       2.702   2.546  19.049  0.00  0.00    +0.000 A 
ATOM     31  C   UNL     1       1.763   2.461  19.998  0.00  0.00    +0.000 A 
ATOM     32  S   UNL     1       1.119   4.030  20.405  0.00  0.00    +0.000 S 
ATOM     33  C   UNL     1       2.172   4.798  19.224  0.00  0.00    +0.000 A 
ATOM     34  N   UNL     1       2.200   6.066  18.987  0.00  0.00    +0.000 NA
ENDBRANCH  24  25
ENDBRANCH  23  24
ENDBRANCH  11  23
TORSDOF 5
ENDMDL
MODEL 9
REMARK VINA RESULT:      -8.2      2.916      4.894
REMARK  Name = 
REMARK  6 active torsions:
REMARK  status: ('A' for Active; 'I' for Inactive)
REMARK    1  A    between atoms: C_1  and  O_2
REMARK    2  A    between atoms: O_2  and  C_3
REMARK    3  A    between atoms: C_7  and  N_8
REMARK    4  A    between atoms: C_18  and  S_19
REMARK    5  A    between atoms: S_19  and  C_20
REMARK    6  A    between atoms: C_20  and  C_21
REMARK                            x       y       z     vdW  Elec       q    Type
REMARK                         _______ _______ _______ _____ _____    ______ ____
ROOT
ATOM      1  N   UNL     1       1.999   7.659  19.247  0.00  0.00    +0.000 N 
ATOM      2  C   UNL     1       1.536   7.480  20.562  0.00  0.00    +0.000 A 
ATOM      3  O   UNL     1       1.574   6.428  21.200  0.00  0.00    +0.000 OA
ATOM      4  C   UNL     1       0.870   8.628  21.239  0.00  0.00    +0.000 A 
ATOM      5  C   UNL     1       0.363   8.455  22.536  0.00  0.00    +0.000 A 
ATOM      6  C   UNL     1      -0.348   9.481  23.156  0.00  0.00    +0.000 A 
ATOM      7  C   UNL     1      -0.582  10.672  22.473  0.00  0.00    +0.000 A 
ATOM      8  C   UNL     1      -0.049  10.868  21.196  0.00  0.00    +0.000 A 
ATOM      9  C   UNL     1       0.719   9.861  20.603  0.00  0.00    +0.000 A 
ATOM     10  N   UNL     1       1.352  10.007  19.360  0.00  0.00    +0.000 N 
ATOM     11  C   UNL     1       1.688  11.112  18.601  0.00  0.00    +0.000 A 
ATOM     12  N   UNL     1       2.121  10.719  17.426  0.00  0.00    +0.000 NA
ATOM     13  N   UNL     1       2.261   9.357  17.477  0.00  0.00    +0.000 NA
ATOM     14  C   UNL     1       1.883   8.929  18.669  0.00  0.00    +0.000 A 
ENDROOT
BRANCH   1  19
ATOM     15  C   UNL     1       2.663   4.366  17.494  0.00  0.00    +0.000 A 
ATOM     16  C   UNL     1       3.981   4.541  17.083  0.00  0.00    +0.000 A 
ATOM     17  C   UNL     1       4.647   5.725  17.376  0.00  0.00    +0.000 A 
ATOM     18  C   UNL     1       3.990   6.741  18.078  0.00  0.00    +0.000 A 
ATOM     19  C   UNL     1       2.659   6.603  18.510  0.00  0.00    +0.000 A 
ATOM     20  C   UNL     1       2.019   5.388  18.203  0.00  0.00    +0.000 A 
BRANCH  15  22
ATOM     21  C   UNL     1       2.639   2.015  17.839  0.00  0.00    +0.000 C 
ATOM     22  O   UNL     1       2.114   3.155  17.167  0.00  0.00    +0.000 OA
ENDBRANCH  15  22
ENDBRANCH   1  19
BRANCH  11  23
ATOM     23  S   UNL     1       1.849  12.734  19.208  0.00  0.00    +0.000 S 
BRANCH  23  24
ATOM     24  C   UNL     1       0.536  13.604  18.290  0.00  0.00    +0.000 C 
BRANCH  24  25
ATOM     25  C   UNL     1      -0.831  13.262  18.862  0.00  0.00    +0.000 A 
ATOM     26  C   UNL     1      -1.589  12.304  18.297  0.00  0.00    +0.000 A 
ATOM     27  C   UNL     1      -2.909  11.971  18.877  0.00  0.00    +0.000 A 
ATOM     28  O   UNL     1      -3.603  11.101  18.361  0.00  0.00    +0.000 OA
ATOM     29  N   UNL     1      -3.234  12.699  19.992  0.00  0.00    +0.000 N 
ATOM     30  C   UNL     1      -4.409  12.572  20.703  0.00  0.00    +0.000 A 
ATOM     31  C   UNL     1      -4.492  13.387  21.760  0.00  0.00    +0.000 A 
ATOM     32  S   UNL     1      -3.062  14.373  21.923  0.00  0.00    +0.000 S 
ATOM     33  C   UNL     1      -2.360  13.638  20.489  0.00  0.00    +0.000 A 
ATOM     34  N   UNL     1      -1.206  13.947  20.000  0.00  0.00    +0.000 NA
ENDBRANCH  24  25
ENDBRANCH  23  24
ENDBRANCH  11  23
TORSDOF 5
ENDMDL
