MODEL 1
REMARK VINA RESULT:      -9.3      0.000      0.000
REMARK  Name = 
REMARK  7 active torsions:
REMARK  status: ('A' for Active; 'I' for Inactive)
REMARK    1  A    between atoms: C_1  and  C_2
REMARK    2  A    between atoms: N_4  and  C_5
REMARK    3  A    between atoms: C_10  and  O_11
REMARK    4  A    between atoms: O_11  and  C_12
REMARK    5  A    between atoms: C_14  and  N_15
REMARK    6  A    between atoms: C_16  and  C_18
REMARK    7  A    between atoms: C_27  and  C_28
REMARK                            x       y       z     vdW  Elec       q    Type
REMARK                         _______ _______ _______ _____ _____    ______ ____
ROOT
ATOM      1  C   UNL     1       3.914   4.183  19.575  0.00  0.00    +0.000 A 
ATOM      2  C   UNL     1       3.410   5.427  19.973  0.00  0.00    +0.000 A 
ATOM      3  C   UNL     1       2.071   5.600  20.329  0.00  0.00    +0.000 A 
ATOM      4  C   UNL     1       1.187   4.542  20.114  0.00  0.00    +0.000 A 
ATOM      5  C   UNL     1       1.655   3.321  19.605  0.00  0.00    +0.000 A 
ATOM      6  C   UNL     1       3.024   3.123  19.348  0.00  0.00    +0.000 A 
ATOM      7  C   UNL     1       3.502   1.789  18.851  0.00  0.00    +0.000 C 
ENDROOT
BRANCH   3   8
ATOM      8  N   UNL     1       1.585   6.792  20.927  0.00  0.00    +0.000 N 
ATOM      9  C   UNL     1       1.560   8.041  20.321  0.00  0.00    +0.000 C 
ATOM     10  O   UNL     1       1.964   8.306  19.195  0.00  0.00    +0.000 OA
ATOM     11  H   UNL     1       1.326   6.732  21.905  0.00  0.00    +0.000 HD
BRANCH   9  12
ATOM     12  C   UNL     1       0.958   9.175  21.062  0.00  0.00    +0.000 A 
ATOM     13  C   UNL     1       0.507   8.863  22.357  0.00  0.00    +0.000 A 
ATOM     14  C   UNL     1      -0.135   9.830  23.099  0.00  0.00    +0.000 A 
ATOM     15  N   UNL     1      -0.348  11.078  22.645  0.00  0.00    +0.000 NA
ATOM     16  C   UNL     1       0.083  11.358  21.388  0.00  0.00    +0.000 A 
ATOM     17  C   UNL     1       0.740  10.456  20.561  0.00  0.00    +0.000 A 
ATOM     18 CL   UNL     1       1.183  10.965  18.977  0.00  0.00    +0.000 Cl
ENDBRANCH   9  12
ENDBRANCH   3   8
BRANCH   1  19
ATOM     19  O   UNL     1       5.273   3.935  19.437  0.00  0.00    +0.000 OA
BRANCH  19  25
ATOM     20  C   UNL     1       6.842   4.835  14.867  0.00  0.00    +0.000 A 
ATOM     21  C   UNL     1       6.126   3.745  14.365  0.00  0.00    +0.000 A 
ATOM     22  C   UNL     1       5.231   3.065  15.166  0.00  0.00    +0.000 A 
ATOM     23  C   UNL     1       5.091   3.442  16.492  0.00  0.00    +0.000 A 
ATOM     24  C   UNL     1       5.946   4.395  17.081  0.00  0.00    +0.000 A 
ATOM     25  C   UNL     1       6.012   4.624  18.480  0.00  0.00    +0.000 A 
ATOM     26  C   UNL     1       6.847   5.614  18.983  0.00  0.00    +0.000 A 
ATOM     27  C   UNL     1       7.620   6.322  18.087  0.00  0.00    +0.000 A 
ATOM     28  N   UNL     1       7.622   6.115  16.748  0.00  0.00    +0.000 NA
ATOM     29  C   UNL     1       6.823   5.138  16.245  0.00  0.00    +0.000 A 
BRANCH  20  33
ATOM     30  C   UNL     1       8.608   6.476  11.940  0.00  0.00    +0.000 C 
ATOM     31  C   UNL     1       7.813   5.414  12.643  0.00  0.00    +0.000 C 
ATOM     32  O   UNL     1       7.411   4.442  12.008  0.00  0.00    +0.000 OA
ATOM     33  N   UNL     1       7.596   5.669  13.989  0.00  0.00    +0.000 N 
ATOM     34  H   UNL     1       7.781   6.597  14.358  0.00  0.00    +0.000 HD
ENDBRANCH  20  33
ENDBRANCH  19  25
ENDBRANCH   1  19
TORSDOF 5
ENDMDL
MODEL 2
REMARK VINA RESULT:      -9.1      4.720      8.507
REMARK  Name = 
REMARK  7 active torsions:
REMARK  status: ('A' for Active; 'I' for Inactive)
REMARK    1  A    between atoms: C_1  and  C_2
REMARK    2  A    between atoms: N_4  and  C_5
REMARK    3  A    between atoms: C_10  and  O_11
REMARK    4  A    between atoms: O_11  and  C_12
REMARK    5  A    between atoms: C_14  and  N_15
REMARK    6  A    between atoms: C_16  and  C_18
REMARK    7  A    between atoms: C_27  and  C_28
REMARK                            x       y       z     vdW  Elec       q    Type
REMARK                         _______ _______ _______ _____ _____    ______ ____
ROOT
ATOM      1  C   UNL     1      -1.291  11.645  18.990  0.00  0.00    +0.000 A 
ATOM      2  C   UNL     1      -1.756  12.678  19.812  0.00  0.00    +0.000 A 
ATOM      3  C   UNL     1      -3.118  12.951  19.953  0.00  0.00    +0.000 A 
ATOM      4  C   UNL     1      -4.017  12.285  19.119  0.00  0.00    +0.000 A 
ATOM      5  C   UNL     1      -3.556  11.326  18.205  0.00  0.00    +0.000 A 
ATOM      6  C   UNL     1      -2.193  10.983  18.143  0.00  0.00    +0.000 A 
ATOM      7  C   UNL     1      -1.737   9.917  17.189  0.00  0.00    +0.000 C 
ENDROOT
BRANCH   3   8
ATOM      8  N   UNL     1      -3.622  13.851  20.930  0.00  0.00    +0.000 N 
ATOM      9  C   UNL     1      -4.059  13.495  22.198  0.00  0.00    +0.000 C 
ATOM     10  O   UNL     1      -4.093  12.359  22.658  0.00  0.00    +0.000 OA
ATOM     11  H   UNL     1      -3.753  14.811  20.632  0.00  0.00    +0.000 HD
BRANCH   9  12
ATOM     12  C   UNL     1      -4.497  14.567  23.123  0.00  0.00    +0.000 A 
ATOM     13  C   UNL     1      -5.790  15.065  22.882  0.00  0.00    +0.000 A 
ATOM     14  C   UNL     1      -6.261  16.114  23.640  0.00  0.00    +0.000 A 
ATOM     15  N   UNL     1      -5.539  16.691  24.617  0.00  0.00    +0.000 NA
ATOM     16  C   UNL     1      -4.288  16.206  24.828  0.00  0.00    +0.000 A 
ATOM     17  C   UNL     1      -3.721  15.153  24.120  0.00  0.00    +0.000 A 
ATOM     18 CL   UNL     1      -2.105  14.691  24.488  0.00  0.00    +0.000 Cl
ENDBRANCH   9  12
ENDBRANCH   3   8
BRANCH   1  19
ATOM     19  O   UNL     1       0.027  11.209  19.008  0.00  0.00    +0.000 OA
BRANCH  19  25
ATOM     20  C   UNL     1       2.275   6.891  19.680  0.00  0.00    +0.000 A 
ATOM     21  C   UNL     1       2.753   6.891  18.366  0.00  0.00    +0.000 A 
ATOM     22  C   UNL     1       2.616   8.011  17.571  0.00  0.00    +0.000 A 
ATOM     23  C   UNL     1       1.950   9.117  18.073  0.00  0.00    +0.000 A 
ATOM     24  C   UNL     1       1.277   9.074  19.309  0.00  0.00    +0.000 A 
ATOM     25  C   UNL     1       0.376  10.080  19.743  0.00  0.00    +0.000 A 
ATOM     26  C   UNL     1      -0.215   9.991  20.997  0.00  0.00    +0.000 A 
ATOM     27  C   UNL     1       0.076   8.886  21.770  0.00  0.00    +0.000 A 
ATOM     28  N   UNL     1       0.898   7.880  21.386  0.00  0.00    +0.000 NA
ATOM     29  C   UNL     1       1.468   7.947  20.154  0.00  0.00    +0.000 A 
BRANCH  20  33
ATOM     30  C   UNL     1       2.459   3.688  21.702  0.00  0.00    +0.000 C 
ATOM     31  C   UNL     1       1.862   4.667  20.733  0.00  0.00    +0.000 C 
ATOM     32  O   UNL     1       0.809   4.387  20.164  0.00  0.00    +0.000 OA
ATOM     33  N   UNL     1       2.607   5.825  20.567  0.00  0.00    +0.000 N 
ATOM     34  H   UNL     1       3.561   5.859  20.915  0.00  0.00    +0.000 HD
ENDBRANCH  20  33
ENDBRANCH  19  25
ENDBRANCH   1  19
TORSDOF 5
ENDMDL
MODEL 3
REMARK VINA RESULT:      -9.0      3.793     10.349
REMARK  Name = 
REMARK  7 active torsions:
REMARK  status: ('A' for Active; 'I' for Inactive)
REMARK    1  A    between atoms: C_1  and  C_2
REMARK    2  A    between atoms: N_4  and  C_5
REMARK    3  A    between atoms: C_10  and  O_11
REMARK    4  A    between atoms: O_11  and  C_12
REMARK    5  A    between atoms: C_14  and  N_15
REMARK    6  A    between atoms: C_16  and  C_18
REMARK    7  A    between atoms: C_27  and  C_28
REMARK                            x       y       z     vdW  Elec       q    Type
REMARK                         _______ _______ _______ _____ _____    ______ ____
ROOT
ATOM      1  C   UNL     1       1.297   9.154  19.872  0.00  0.00    +0.000 A 
ATOM      2  C   UNL     1       2.274   8.649  19.005  0.00  0.00    +0.000 A 
ATOM      3  C   UNL     1       2.613   7.295  18.985  0.00  0.00    +0.000 A 
ATOM      4  C   UNL     1       2.083   6.465  19.974  0.00  0.00    +0.000 A 
ATOM      5  C   UNL     1       1.190   6.980  20.925  0.00  0.00    +0.000 A 
ATOM      6  C   UNL     1       0.774   8.323  20.874  0.00  0.00    +0.000 A 
ATOM      7  C   UNL     1      -0.223   8.832  21.876  0.00  0.00    +0.000 C 
ENDROOT
BRANCH   3   8
ATOM      8  N   UNL     1       3.445   6.729  17.983  0.00  0.00    +0.000 N 
ATOM      9  C   UNL     1       4.554   5.928  18.220  0.00  0.00    +0.000 C 
ATOM     10  O   UNL     1       4.990   5.605  19.319  0.00  0.00    +0.000 OA
ATOM     11  H   UNL     1       3.258   7.014  17.029  0.00  0.00    +0.000 HD
BRANCH   9  12
ATOM     12  C   UNL     1       5.278   5.361  17.058  0.00  0.00    +0.000 A 
ATOM     13  C   UNL     1       4.663   4.245  16.465  0.00  0.00    +0.000 A 
ATOM     14  C   UNL     1       5.295   3.599  15.424  0.00  0.00    +0.000 A 
ATOM     15  N   UNL     1       6.485   3.992  14.936  0.00  0.00    +0.000 NA
ATOM     16  C   UNL     1       7.070   5.065  15.529  0.00  0.00    +0.000 A 
ATOM     17  C   UNL     1       6.517   5.783  16.582  0.00  0.00    +0.000 A 
ATOM     18 CL   UNL     1       7.414   7.094  17.244  0.00  0.00    +0.000 Cl
ENDBRANCH   9  12
ENDBRANCH   3   8
BRANCH   1  19
ATOM     19  O   UNL     1       0.785  10.438  19.756  0.00  0.00    +0.000 OA
BRANCH  19  25
ATOM     20  C   UNL     1      -3.736  12.326  19.358  0.00  0.00    +0.000 A 
ATOM     21  C   UNL     1      -3.642  12.918  20.621  0.00  0.00    +0.000 A 
ATOM     22  C   UNL     1      -2.442  12.927  21.304  0.00  0.00    +0.000 A 
ATOM     23  C   UNL     1      -1.344  12.293  20.745  0.00  0.00    +0.000 A 
ATOM     24  C   UNL     1      -1.458  11.512  19.579  0.00  0.00    +0.000 A 
ATOM     25  C   UNL     1      -0.434  10.645  19.117  0.00  0.00    +0.000 A 
ATOM     26  C   UNL     1      -0.602   9.941  17.931  0.00  0.00    +0.000 A 
ATOM     27  C   UNL     1      -1.796  10.088  17.257  0.00  0.00    +0.000 A 
ATOM     28  N   UNL     1      -2.818  10.872  17.676  0.00  0.00    +0.000 NA
ATOM     29  C   UNL     1      -2.674  11.553  18.843  0.00  0.00    +0.000 A 
BRANCH  20  33
ATOM     30  C   UNL     1      -7.200  12.273  17.816  0.00  0.00    +0.000 C 
ATOM     31  C   UNL     1      -6.119  11.871  18.778  0.00  0.00    +0.000 C 
ATOM     32  O   UNL     1      -6.371  11.055  19.662  0.00  0.00    +0.000 OA
ATOM     33  N   UNL     1      -4.905  12.507  18.563  0.00  0.00    +0.000 N 
ATOM     34  H   UNL     1      -4.868  13.317  17.950  0.00  0.00    +0.000 HD
ENDBRANCH  20  33
ENDBRANCH  19  25
ENDBRANCH   1  19
TORSDOF 5
ENDMDL
MODEL 4
REMARK VINA RESULT:      -9.0      4.793      8.454
REMARK  Name = 
REMARK  7 active torsions:
REMARK  status: ('A' for Active; 'I' for Inactive)
REMARK    1  A    between atoms: C_1  and  C_2
REMARK    2  A    between atoms: N_4  and  C_5
REMARK    3  A    between atoms: C_10  and  O_11
REMARK    4  A    between atoms: O_11  and  C_12
REMARK    5  A    between atoms: C_14  and  N_15
REMARK    6  A    between atoms: C_16  and  C_18
REMARK    7  A    between atoms: C_27  and  C_28
REMARK                            x       y       z     vdW  Elec       q    Type
REMARK                         _______ _______ _______ _____ _____    ______ ____
ROOT
ATOM      1  C   UNL     1      -1.108  11.598  19.033  0.00  0.00    +0.000 A 
ATOM      2  C   UNL     1      -1.552  12.659  19.831  0.00  0.00    +0.000 A 
ATOM      3  C   UNL     1      -2.908  12.964  19.963  0.00  0.00    +0.000 A 
ATOM      4  C   UNL     1      -3.819  12.298  19.143  0.00  0.00    +0.000 A 
ATOM      5  C   UNL     1      -3.377  11.309  18.251  0.00  0.00    +0.000 A 
ATOM      6  C   UNL     1      -2.022  10.936  18.200  0.00  0.00    +0.000 A 
ATOM      7  C   UNL     1      -1.587   9.839  17.271  0.00  0.00    +0.000 C 
ENDROOT
BRANCH   3   8
ATOM      8  N   UNL     1      -3.394  13.896  20.918  0.00  0.00    +0.000 N 
ATOM      9  C   UNL     1      -3.921  13.569  22.161  0.00  0.00    +0.000 C 
ATOM     10  O   UNL     1      -4.061  12.438  22.612  0.00  0.00    +0.000 OA
ATOM     11  H   UNL     1      -3.439  14.863  20.621  0.00  0.00    +0.000 HD
BRANCH   9  12
ATOM     12  C   UNL     1      -4.325  14.669  23.069  0.00  0.00    +0.000 A 
ATOM     13  C   UNL     1      -3.321  15.109  23.949  0.00  0.00    +0.000 A 
ATOM     14  C   UNL     1      -3.619  16.076  24.884  0.00  0.00    +0.000 A 
ATOM     15  N   UNL     1      -4.838  16.634  24.994  0.00  0.00    +0.000 NA
ATOM     16  C   UNL     1      -5.799  16.188  24.144  0.00  0.00    +0.000 A 
ATOM     17  C   UNL     1      -5.601  15.220  23.168  0.00  0.00    +0.000 A 
ATOM     18 CL   UNL     1      -6.941  14.741  22.201  0.00  0.00    +0.000 Cl
ENDBRANCH   9  12
ENDBRANCH   3   8
BRANCH   1  19
ATOM     19  O   UNL     1       0.200  11.135  19.063  0.00  0.00    +0.000 OA
BRANCH  19  25
ATOM     20  C   UNL     1       2.323   6.748  19.697  0.00  0.00    +0.000 A 
ATOM     21  C   UNL     1       2.802   6.746  18.383  0.00  0.00    +0.000 A 
ATOM     22  C   UNL     1       2.698   7.877  17.598  0.00  0.00    +0.000 A 
ATOM     23  C   UNL     1       2.063   8.997  18.110  0.00  0.00    +0.000 A 
ATOM     24  C   UNL     1       1.388   8.962  19.346  0.00  0.00    +0.000 A 
ATOM     25  C   UNL     1       0.516   9.990  19.788  0.00  0.00    +0.000 A 
ATOM     26  C   UNL     1      -0.077   9.906  21.041  0.00  0.00    +0.000 A 
ATOM     27  C   UNL     1       0.181   8.787  21.804  0.00  0.00    +0.000 A 
ATOM     28  N   UNL     1       0.974   7.760  21.411  0.00  0.00    +0.000 NA
ATOM     29  C   UNL     1       1.547   7.822  20.180  0.00  0.00    +0.000 A 
BRANCH  20  33
ATOM     30  C   UNL     1       2.421   3.517  21.680  0.00  0.00    +0.000 C 
ATOM     31  C   UNL     1       1.854   4.520  20.717  0.00  0.00    +0.000 C 
ATOM     32  O   UNL     1       0.803   4.267  20.132  0.00  0.00    +0.000 OA
ATOM     33  N   UNL     1       2.624   5.665  20.574  0.00  0.00    +0.000 N 
ATOM     34  H   UNL     1       3.574   5.675  20.934  0.00  0.00    +0.000 HD
ENDBRANCH  20  33
ENDBRANCH  19  25
ENDBRANCH   1  19
TORSDOF 5
ENDMDL
MODEL 5
REMARK VINA RESULT:      -8.9      3.891     10.425
REMARK  Name = 
REMARK  7 active torsions:
REMARK  status: ('A' for Active; 'I' for Inactive)
REMARK    1  A    between atoms: C_1  and  C_2
REMARK    2  A    between atoms: N_4  and  C_5
REMARK    3  A    between atoms: C_10  and  O_11
REMARK    4  A    between atoms: O_11  and  C_12
REMARK    5  A    between atoms: C_14  and  N_15
REMARK    6  A    between atoms: C_16  and  C_18
REMARK    7  A    between atoms: C_27  and  C_28
REMARK                            x       y       z     vdW  Elec       q    Type
REMARK                         _______ _______ _______ _____ _____    ______ ____
ROOT
ATOM      1  C   UNL     1       1.196   9.177  19.948  0.00  0.00    +0.000 A 
ATOM      2  C   UNL     1       2.076   8.575  19.040  0.00  0.00    +0.000 A 
ATOM      3  C   UNL     1       2.361   7.209  19.085  0.00  0.00    +0.000 A 
ATOM      4  C   UNL     1       1.887   6.469  20.168  0.00  0.00    +0.000 A 
ATOM      5  C   UNL     1       1.098   7.082  21.152  0.00  0.00    +0.000 A 
ATOM      6  C   UNL     1       0.729   8.435  21.044  0.00  0.00    +0.000 A 
ATOM      7  C   UNL     1      -0.159   9.051  22.087  0.00  0.00    +0.000 C 
ENDROOT
BRANCH   3   8
ATOM      8  N   UNL     1       3.083   6.543  18.059  0.00  0.00    +0.000 N 
ATOM      9  C   UNL     1       4.276   5.857  18.234  0.00  0.00    +0.000 C 
ATOM     10  O   UNL     1       4.893   5.736  19.287  0.00  0.00    +0.000 OA
ATOM     11  H   UNL     1       2.736   6.664  17.114  0.00  0.00    +0.000 HD
BRANCH   9  12
ATOM     12  C   UNL     1       4.869   5.159  17.068  0.00  0.00    +0.000 A 
ATOM     13  C   UNL     1       5.518   5.998  16.145  0.00  0.00    +0.000 A 
ATOM     14  C   UNL     1       6.038   5.455  14.989  0.00  0.00    +0.000 A 
ATOM     15  N   UNL     1       5.961   4.144  14.699  0.00  0.00    +0.000 NA
ATOM     16  C   UNL     1       5.320   3.351  15.597  0.00  0.00    +0.000 A 
ATOM     17  C   UNL     1       4.763   3.799  16.788  0.00  0.00    +0.000 A 
ATOM     18 CL   UNL     1       3.949   2.664  17.793  0.00  0.00    +0.000 Cl
ENDBRANCH   9  12
ENDBRANCH   3   8
BRANCH   1  19
ATOM     19  O   UNL     1       0.724  10.472  19.787  0.00  0.00    +0.000 OA
BRANCH  19  25
ATOM     20  C   UNL     1      -3.789  12.387  19.437  0.00  0.00    +0.000 A 
ATOM     21  C   UNL     1      -3.685  12.962  20.707  0.00  0.00    +0.000 A 
ATOM     22  C   UNL     1      -2.482  12.956  21.384  0.00  0.00    +0.000 A 
ATOM     23  C   UNL     1      -1.390  12.324  20.811  0.00  0.00    +0.000 A 
ATOM     24  C   UNL     1      -1.514  11.559  19.635  0.00  0.00    +0.000 A 
ATOM     25  C   UNL     1      -0.497  10.693  19.157  0.00  0.00    +0.000 A 
ATOM     26  C   UNL     1      -0.675  10.005  17.963  0.00  0.00    +0.000 A 
ATOM     27  C   UNL     1      -1.871  10.167  17.296  0.00  0.00    +0.000 A 
ATOM     28  N   UNL     1      -2.888  10.951  17.731  0.00  0.00    +0.000 NA
ATOM     29  C   UNL     1      -2.734  11.615  18.906  0.00  0.00    +0.000 A 
BRANCH  20  33
ATOM     30  C   UNL     1      -7.254  12.351  17.896  0.00  0.00    +0.000 C 
ATOM     31  C   UNL     1      -6.167  11.925  18.841  0.00  0.00    +0.000 C 
ATOM     32  O   UNL     1      -6.407  11.072  19.692  0.00  0.00    +0.000 OA
ATOM     33  N   UNL     1      -4.962  12.584  18.650  0.00  0.00    +0.000 N 
ATOM     34  H   UNL     1      -4.935  13.418  18.069  0.00  0.00    +0.000 HD
ENDBRANCH  20  33
ENDBRANCH  19  25
ENDBRANCH   1  19
TORSDOF 5
ENDMDL
MODEL 6
REMARK VINA RESULT:      -8.8      1.063      1.390
REMARK  Name = 
REMARK  7 active torsions:
REMARK  status: ('A' for Active; 'I' for Inactive)
REMARK    1  A    between atoms: C_1  and  C_2
REMARK    2  A    between atoms: N_4  and  C_5
REMARK    3  A    between atoms: C_10  and  O_11
REMARK    4  A    between atoms: O_11  and  C_12
REMARK    5  A    between atoms: C_14  and  N_15
REMARK    6  A    between atoms: C_16  and  C_18
REMARK    7  A    between atoms: C_27  and  C_28
REMARK                            x       y       z     vdW  Elec       q    Type
REMARK                         _______ _______ _______ _____ _____    ______ ____
ROOT
ATOM      1  C   UNL     1       4.113   4.507  19.676  0.00  0.00    +0.000 A 
ATOM      2  C   UNL     1       3.512   5.769  19.747  0.00  0.00    +0.000 A 
ATOM      3  C   UNL     1       2.173   5.929  20.105  0.00  0.00    +0.000 A 
ATOM      4  C   UNL     1       1.379   4.788  20.227  0.00  0.00    +0.000 A 
ATOM      5  C   UNL     1       1.939   3.515  20.044  0.00  0.00    +0.000 A 
ATOM      6  C   UNL     1       3.313   3.360  19.786  0.00  0.00    +0.000 A 
ATOM      7  C   UNL     1       3.893   1.981  19.646  0.00  0.00    +0.000 C 
ENDROOT
BRANCH   3   8
ATOM      8  N   UNL     1       1.600   7.199  20.382  0.00  0.00    +0.000 N 
ATOM      9  C   UNL     1       1.634   8.296  19.532  0.00  0.00    +0.000 C 
ATOM     10  O   UNL     1       2.172   8.342  18.432  0.00  0.00    +0.000 OA
ATOM     11  H   UNL     1       1.221   7.328  21.313  0.00  0.00    +0.000 HD
BRANCH   9  12
ATOM     12  C   UNL     1       0.929   9.533  19.945  0.00  0.00    +0.000 A 
ATOM     13  C   UNL     1       0.408  10.299  18.887  0.00  0.00    +0.000 A 
ATOM     14  C   UNL     1      -0.199  11.504  19.161  0.00  0.00    +0.000 A 
ATOM     15  N   UNL     1      -0.328  11.990  20.409  0.00  0.00    +0.000 NA
ATOM     16  C   UNL     1       0.191  11.243  21.418  0.00  0.00    +0.000 A 
ATOM     17  C   UNL     1       0.821  10.017  21.247  0.00  0.00    +0.000 A 
ATOM     18 CL   UNL     1       1.460   9.221  22.633  0.00  0.00    +0.000 Cl
ENDBRANCH   9  12
ENDBRANCH   3   8
BRANCH   1  19
ATOM     19  O   UNL     1       5.484   4.336  19.547  0.00  0.00    +0.000 OA
BRANCH  19  25
ATOM     20  C   UNL     1       6.842   4.894  14.857  0.00  0.00    +0.000 A 
ATOM     21  C   UNL     1       6.129   3.754  14.474  0.00  0.00    +0.000 A 
ATOM     22  C   UNL     1       5.283   3.124  15.365  0.00  0.00    +0.000 A 
ATOM     23  C   UNL     1       5.191   3.605  16.661  0.00  0.00    +0.000 A 
ATOM     24  C   UNL     1       6.048   4.617  17.136  0.00  0.00    +0.000 A 
ATOM     25  C   UNL     1       6.168   4.959  18.507  0.00  0.00    +0.000 A 
ATOM     26  C   UNL     1       7.001   6.001  18.893  0.00  0.00    +0.000 A 
ATOM     27  C   UNL     1       7.721   6.649  17.912  0.00  0.00    +0.000 A 
ATOM     28  N   UNL     1       7.672   6.335  16.595  0.00  0.00    +0.000 NA
ATOM     29  C   UNL     1       6.874   5.306  16.206  0.00  0.00    +0.000 A 
BRANCH  20  33
ATOM     30  C   UNL     1       8.442   6.331  11.733  0.00  0.00    +0.000 C 
ATOM     31  C   UNL     1       7.698   5.315  12.552  0.00  0.00    +0.000 C 
ATOM     32  O   UNL     1       7.282   4.293  12.011  0.00  0.00    +0.000 OA
ATOM     33  N   UNL     1       7.540   5.668  13.884  0.00  0.00    +0.000 N 
ATOM     34  H   UNL     1       7.728   6.624  14.173  0.00  0.00    +0.000 HD
ENDBRANCH  20  33
ENDBRANCH  19  25
ENDBRANCH   1  19
TORSDOF 5
ENDMDL
MODEL 7
REMARK VINA RESULT:      -8.6      3.802      8.569
REMARK  Name = 
REMARK  7 active torsions:
REMARK  status: ('A' for Active; 'I' for Inactive)
REMARK    1  A    between atoms: C_1  and  C_2
REMARK    2  A    between atoms: N_4  and  C_5
REMARK    3  A    between atoms: C_10  and  O_11
REMARK    4  A    between atoms: O_11  and  C_12
REMARK    5  A    between atoms: C_14  and  N_15
REMARK    6  A    between atoms: C_16  and  C_18
REMARK    7  A    between atoms: C_27  and  C_28
REMARK                            x       y       z     vdW  Elec       q    Type
REMARK                         _______ _______ _______ _____ _____    ______ ____
ROOT
ATOM      1  C   UNL     1       5.319   6.704  17.542  0.00  0.00    +0.000 A 
ATOM      2  C   UNL     1       5.993   7.928  17.627  0.00  0.00    +0.000 A 
ATOM      3  C   UNL     1       7.387   8.006  17.599  0.00  0.00    +0.000 A 
ATOM      4  C   UNL     1       8.117   6.818  17.660  0.00  0.00    +0.000 A 
ATOM      5  C   UNL     1       7.455   5.582  17.692  0.00  0.00    +0.000 A 
ATOM      6  C   UNL     1       6.052   5.511  17.615  0.00  0.00    +0.000 A 
ATOM      7  C   UNL     1       5.374   4.171  17.601  0.00  0.00    +0.000 C 
ENDROOT
BRANCH   3   8
ATOM      8  N   UNL     1       8.084   9.237  17.478  0.00  0.00    +0.000 N 
ATOM      9  C   UNL     1       8.797   9.858  18.494  0.00  0.00    +0.000 C 
ATOM     10  O   UNL     1       8.919   9.452  19.644  0.00  0.00    +0.000 OA
ATOM     11  H   UNL     1       7.967   9.736  16.603  0.00  0.00    +0.000 HD
BRANCH   9  12
ATOM     12  C   UNL     1       9.524  11.112  18.184  0.00  0.00    +0.000 A 
ATOM     13  C   UNL     1      10.881  11.115  18.553  0.00  0.00    +0.000 A 
ATOM     14  C   UNL     1      11.626  12.261  18.376  0.00  0.00    +0.000 A 
ATOM     15  N   UNL     1      11.116  13.390  17.853  0.00  0.00    +0.000 NA
ATOM     16  C   UNL     1       9.800  13.372  17.514  0.00  0.00    +0.000 A 
ATOM     17  C   UNL     1       8.965  12.271  17.652  0.00  0.00    +0.000 A 
ATOM     18 CL   UNL     1       7.310  12.434  17.210  0.00  0.00    +0.000 Cl
ENDBRANCH   9  12
ENDBRANCH   3   8
BRANCH   1  19
ATOM     19  O   UNL     1       3.949   6.617  17.340  0.00  0.00    +0.000 OA
BRANCH  19  25
ATOM     20  C   UNL     1       0.897   9.465  19.935  0.00  0.00    +0.000 A 
ATOM     21  C   UNL     1       1.151  10.561  19.103  0.00  0.00    +0.000 A 
ATOM     22  C   UNL     1       1.875  10.404  17.939  0.00  0.00    +0.000 A 
ATOM     23  C   UNL     1       2.396   9.158  17.632  0.00  0.00    +0.000 A 
ATOM     24  C   UNL     1       2.338   8.088  18.547  0.00  0.00    +0.000 A 
ATOM     25  C   UNL     1       3.073   6.885  18.388  0.00  0.00    +0.000 A 
ATOM     26  C   UNL     1       2.928   5.856  19.310  0.00  0.00    +0.000 A 
ATOM     27  C   UNL     1       2.087   6.064  20.383  0.00  0.00    +0.000 A 
ATOM     28  N   UNL     1       1.395   7.208  20.600  0.00  0.00    +0.000 NA
ATOM     29  C   UNL     1       1.541   8.229  19.715  0.00  0.00    +0.000 A 
BRANCH  20  33
ATOM     30  C   UNL     1      -0.852   9.863  23.276  0.00  0.00    +0.000 C 
ATOM     31  C   UNL     1       0.321   9.726  22.348  0.00  0.00    +0.000 C 
ATOM     32  O   UNL     1       1.460   9.767  22.806  0.00  0.00    +0.000 OA
ATOM     33  N   UNL     1      -0.028   9.578  21.014  0.00  0.00    +0.000 N 
ATOM     34  H   UNL     1      -0.981   9.776  20.722  0.00  0.00    +0.000 HD
ENDBRANCH  20  33
ENDBRANCH  19  25
ENDBRANCH   1  19
TORSDOF 5
ENDMDL
MODEL 8
REMARK VINA RESULT:      -8.5      4.512      8.302
REMARK  Name = 
REMARK  7 active torsions:
REMARK  status: ('A' for Active; 'I' for Inactive)
REMARK    1  A    between atoms: C_1  and  C_2
REMARK    2  A    between atoms: N_4  and  C_5
REMARK    3  A    between atoms: C_10  and  O_11
REMARK    4  A    between atoms: O_11  and  C_12
REMARK    5  A    between atoms: C_14  and  N_15
REMARK    6  A    between atoms: C_16  and  C_18
REMARK    7  A    between atoms: C_27  and  C_28
REMARK                            x       y       z     vdW  Elec       q    Type
REMARK                         _______ _______ _______ _____ _____    ______ ____
ROOT
ATOM      1  C   UNL     1       0.318  11.954  19.032  0.00  0.00    +0.000 A 
ATOM      2  C   UNL     1      -1.000  11.952  19.506  0.00  0.00    +0.000 A 
ATOM      3  C   UNL     1      -1.688  13.137  19.775  0.00  0.00    +0.000 A 
ATOM      4  C   UNL     1      -0.980  14.338  19.729  0.00  0.00    +0.000 A 
ATOM      5  C   UNL     1       0.375  14.347  19.367  0.00  0.00    +0.000 A 
ATOM      6  C   UNL     1       1.033  13.160  18.997  0.00  0.00    +0.000 A 
ATOM      7  C   UNL     1       2.470  13.209  18.565  0.00  0.00    +0.000 C 
ENDROOT
BRANCH   3   8
ATOM      8  N   UNL     1      -3.079  13.168  20.058  0.00  0.00    +0.000 N 
ATOM      9  C   UNL     1      -3.659  12.804  21.265  0.00  0.00    +0.000 C 
ATOM     10  O   UNL     1      -3.068  12.389  22.256  0.00  0.00    +0.000 OA
ATOM     11  H   UNL     1      -3.692  13.386  19.281  0.00  0.00    +0.000 HD
BRANCH   9  12
ATOM     12  C   UNL     1      -5.126  12.956  21.419  0.00  0.00    +0.000 A 
ATOM     13  C   UNL     1      -5.896  12.252  20.477  0.00  0.00    +0.000 A 
ATOM     14  C   UNL     1      -7.267  12.388  20.489  0.00  0.00    +0.000 A 
ATOM     15  N   UNL     1      -7.917  13.165  21.374  0.00  0.00    +0.000 NA
ATOM     16  C   UNL     1      -7.156  13.847  22.270  0.00  0.00    +0.000 A 
ATOM     17  C   UNL     1      -5.770  13.779  22.340  0.00  0.00    +0.000 A 
ATOM     18 CL   UNL     1      -4.959  14.742  23.513  0.00  0.00    +0.000 Cl
ENDBRANCH   9  12
ENDBRANCH   3   8
BRANCH   1  19
ATOM     19  O   UNL     1       0.940  10.812  18.546  0.00  0.00    +0.000 OA
BRANCH  19  25
ATOM     20  C   UNL     1       2.555   6.297  19.624  0.00  0.00    +0.000 A 
ATOM     21  C   UNL     1       3.120   6.154  18.353  0.00  0.00    +0.000 A 
ATOM     22  C   UNL     1       3.187   7.230  17.490  0.00  0.00    +0.000 A 
ATOM     23  C   UNL     1       2.636   8.440  17.878  0.00  0.00    +0.000 A 
ATOM     24  C   UNL     1       1.877   8.560  19.059  0.00  0.00    +0.000 A 
ATOM     25  C   UNL     1       1.086   9.698  19.366  0.00  0.00    +0.000 A 
ATOM     26  C   UNL     1       0.402   9.762  20.573  0.00  0.00    +0.000 A 
ATOM     27  C   UNL     1       0.492   8.682  21.425  0.00  0.00    +0.000 A 
ATOM     28  N   UNL     1       1.201   7.558  21.161  0.00  0.00    +0.000 NA
ATOM     29  C   UNL     1       1.861   7.474  19.976  0.00  0.00    +0.000 A 
BRANCH  20  33
ATOM     30  C   UNL     1       2.230   3.188  21.770  0.00  0.00    +0.000 C 
ATOM     31  C   UNL     1       1.848   4.154  20.686  0.00  0.00    +0.000 C 
ATOM     32  O   UNL     1       0.874   3.909  19.976  0.00  0.00    +0.000 OA
ATOM     33  N   UNL     1       2.682   5.257  20.590  0.00  0.00    +0.000 N 
ATOM     34  H   UNL     1       3.575   5.251  21.077  0.00  0.00    +0.000 HD
ENDBRANCH  20  33
ENDBRANCH  19  25
ENDBRANCH   1  19
TORSDOF 5
ENDMDL
MODEL 9
REMARK VINA RESULT:      -8.5      4.506      7.991
REMARK  Name = 
REMARK  7 active torsions:
REMARK  status: ('A' for Active; 'I' for Inactive)
REMARK    1  A    between atoms: C_1  and  C_2
REMARK    2  A    between atoms: N_4  and  C_5
REMARK    3  A    between atoms: C_10  and  O_11
REMARK    4  A    between atoms: O_11  and  C_12
REMARK    5  A    between atoms: C_14  and  N_15
REMARK    6  A    between atoms: C_16  and  C_18
REMARK    7  A    between atoms: C_27  and  C_28
REMARK                            x       y       z     vdW  Elec       q    Type
REMARK                         _______ _______ _______ _____ _____    ______ ____
ROOT
ATOM      1  C   UNL     1      -0.514  11.430  19.039  0.00  0.00    +0.000 A 
ATOM      2  C   UNL     1      -0.622  12.486  19.952  0.00  0.00    +0.000 A 
ATOM      3  C   UNL     1      -1.858  13.019  20.321  0.00  0.00    +0.000 A 
ATOM      4  C   UNL     1      -2.994  12.597  19.628  0.00  0.00    +0.000 A 
ATOM      5  C   UNL     1      -2.889  11.620  18.627  0.00  0.00    +0.000 A 
ATOM      6  C   UNL     1      -1.654  11.014  18.335  0.00  0.00    +0.000 A 
ATOM      7  C   UNL     1      -1.582   9.935  17.292  0.00  0.00    +0.000 C 
ENDROOT
BRANCH   3   8
ATOM      8  N   UNL     1      -2.007  13.943  21.389  0.00  0.00    +0.000 N 
ATOM      9  C   UNL     1      -2.592  13.663  22.616  0.00  0.00    +0.000 C 
ATOM     10  O   UNL     1      -3.080  12.591  22.956  0.00  0.00    +0.000 OA
ATOM     11  H   UNL     1      -1.745  14.903  21.194  0.00  0.00    +0.000 HD
BRANCH   9  12
ATOM     12  C   UNL     1      -2.611  14.724  23.650  0.00  0.00    +0.000 A 
ATOM     13  C   UNL     1      -1.408  14.877  24.362  0.00  0.00    +0.000 A 
ATOM     14  C   UNL     1      -1.346  15.786  25.396  0.00  0.00    +0.000 A 
ATOM     15  N   UNL     1      -2.391  16.552  25.758  0.00  0.00    +0.000 NA
ATOM     16  C   UNL     1      -3.548  16.383  25.067  0.00  0.00    +0.000 A 
ATOM     17  C   UNL     1      -3.713  15.495  24.012  0.00  0.00    +0.000 A 
ATOM     18 CL   UNL     1      -5.262  15.377  23.271  0.00  0.00    +0.000 Cl
ENDBRANCH   9  12
ENDBRANCH   3   8
BRANCH   1  19
ATOM     19  O   UNL     1       0.670  10.738  18.831  0.00  0.00    +0.000 OA
BRANCH  19  25
ATOM     20  C   UNL     1       2.615   6.275  19.510  0.00  0.00    +0.000 A 
ATOM     21  C   UNL     1       3.082   6.237  18.192  0.00  0.00    +0.000 A 
ATOM     22  C   UNL     1       3.019   7.360  17.392  0.00  0.00    +0.000 A 
ATOM     23  C   UNL     1       2.435   8.512  17.894  0.00  0.00    +0.000 A 
ATOM     24  C   UNL     1       1.770   8.522  19.135  0.00  0.00    +0.000 A 
ATOM     25  C   UNL     1       0.945   9.591  19.570  0.00  0.00    +0.000 A 
ATOM     26  C   UNL     1       0.358   9.548  20.828  0.00  0.00    +0.000 A 
ATOM     27  C   UNL     1       0.576   8.430  21.604  0.00  0.00    +0.000 A 
ATOM     28  N   UNL     1       1.322   7.366  21.219  0.00  0.00    +0.000 NA
ATOM     29  C   UNL     1       1.887   7.387  19.984  0.00  0.00    +0.000 A 
BRANCH  20  33
ATOM     30  C   UNL     1       2.560   3.102  21.585  0.00  0.00    +0.000 C 
ATOM     31  C   UNL     1       2.021   4.127  20.629  0.00  0.00    +0.000 C 
ATOM     32  O   UNL     1       0.914   3.955  20.123  0.00  0.00    +0.000 OA
ATOM     33  N   UNL     1       2.877   5.193  20.400  0.00  0.00    +0.000 N 
ATOM     34  H   UNL     1       3.847   5.127  20.696  0.00  0.00    +0.000 HD
ENDBRANCH  20  33
ENDBRANCH  19  25
ENDBRANCH   1  19
TORSDOF 5
ENDMDL
