MODEL 1
REMARK VINA RESULT:      -7.8      0.000      0.000
REMARK  Name = 
REMARK  2 active torsions:
REMARK  status: ('A' for Active; 'I' for Inactive)
REMARK    1  A    between atoms: C_5  and  C_6
REMARK    2  A    between atoms: C_6  and  N_7
REMARK                            x       y       z     vdW  Elec       q    Type
REMARK                         _______ _______ _______ _____ _____    ______ ____
ROOT
ATOM      1  N   UNL     1       2.283   7.990  18.384  0.00  0.00    +0.000 N 
ATOM      2  C   UNL     1       1.639   8.983  17.649  0.00  0.00    +0.000 A 
ATOM      3  C   UNL     1       1.083   9.802  18.593  0.00  0.00    +0.000 A 
ATOM      4  C   UNL     1       1.194   9.072  19.787  0.00  0.00    +0.000 A 
ATOM      5  N   UNL     1       1.892   7.957  19.697  0.00  0.00    +0.000 NA
ATOM      6  C   UNL     1       0.475   9.836  20.778  0.00  0.00    +0.000 A 
ATOM      7  C   UNL     1      -0.230   9.723  21.929  0.00  0.00    +0.000 A 
ATOM      8  C   UNL     1      -0.714  11.049  22.204  0.00  0.00    +0.000 A 
ATOM      9  C   UNL     1      -1.557  11.594  23.187  0.00  0.00    +0.000 A 
ATOM     10  C   UNL     1      -1.540  12.978  23.389  0.00  0.00    +0.000 A 
ATOM     11  C   UNL     1      -0.722  13.802  22.613  0.00  0.00    +0.000 A 
ATOM     12  C   UNL     1      -0.049  13.303  21.490  0.00  0.00    +0.000 A 
ATOM     13  C   UNL     1      -0.130  11.923  21.269  0.00  0.00    +0.000 A 
ATOM     14  N   UNL     1       0.259  11.091  20.271  0.00  0.00    +0.000 N 
ATOM     15  C   UNL     1       0.347  11.097  18.802  0.00  0.00    +0.000 C 
ENDROOT
BRANCH   1  16
ATOM     16  C   UNL     1       3.504   7.302  17.964  0.00  0.00    +0.000 C 
BRANCH  16  21
ATOM     17 CL   UNL     1       3.553   1.298  18.525  0.00  0.00    +0.000 Cl
ATOM     18  C   UNL     1       3.539   3.008  18.401  0.00  0.00    +0.000 A 
ATOM     19  C   UNL     1       2.413   3.660  17.901  0.00  0.00    +0.000 A 
ATOM     20  C   UNL     1       2.415   5.062  17.793  0.00  0.00    +0.000 A 
ATOM     21  C   UNL     1       3.522   5.811  18.189  0.00  0.00    +0.000 A 
ATOM     22  C   UNL     1       4.649   5.132  18.674  0.00  0.00    +0.000 A 
ATOM     23  C   UNL     1       4.655   3.741  18.784  0.00  0.00    +0.000 A 
ENDBRANCH  16  21
ENDBRANCH   1  16
TORSDOF 2
ENDMDL
MODEL 2
REMARK VINA RESULT:      -7.8      0.129      1.005
REMARK  Name = 
REMARK  2 active torsions:
REMARK  status: ('A' for Active; 'I' for Inactive)
REMARK    1  A    between atoms: C_5  and  C_6
REMARK    2  A    between atoms: C_6  and  N_7
REMARK                            x       y       z     vdW  Elec       q    Type
REMARK                         _______ _______ _______ _____ _____    ______ ____
ROOT
ATOM      1  N   UNL     1       2.272   8.000  18.376  0.00  0.00    +0.000 N 
ATOM      2  C   UNL     1       1.588   8.967  17.642  0.00  0.00    +0.000 A 
ATOM      3  C   UNL     1       1.033   9.787  18.586  0.00  0.00    +0.000 A 
ATOM      4  C   UNL     1       1.189   9.077  19.788  0.00  0.00    +0.000 A 
ATOM      5  N   UNL     1       1.910   7.978  19.699  0.00  0.00    +0.000 NA
ATOM      6  C   UNL     1       0.473   9.838  20.783  0.00  0.00    +0.000 A 
ATOM      7  C   UNL     1      -0.204   9.726  21.951  0.00  0.00    +0.000 A 
ATOM      8  C   UNL     1      -0.713  11.044  22.219  0.00  0.00    +0.000 A 
ATOM      9  C   UNL     1      -1.547  11.583  23.212  0.00  0.00    +0.000 A 
ATOM     10  C   UNL     1      -1.559  12.970  23.393  0.00  0.00    +0.000 A 
ATOM     11  C   UNL     1      -0.778  13.801  22.588  0.00  0.00    +0.000 A 
ATOM     12  C   UNL     1      -0.119  13.302  21.458  0.00  0.00    +0.000 A 
ATOM     13  C   UNL     1      -0.171  11.918  21.259  0.00  0.00    +0.000 A 
ATOM     14  N   UNL     1       0.216  11.080  20.264  0.00  0.00    +0.000 N 
ATOM     15  C   UNL     1       0.271  11.066  18.793  0.00  0.00    +0.000 C 
ENDROOT
BRANCH   1  16
ATOM     16  C   UNL     1       3.500   7.335  17.940  0.00  0.00    +0.000 C 
BRANCH  16  21
ATOM     17 CL   UNL     1       3.488   1.326  18.450  0.00  0.00    +0.000 Cl
ATOM     18  C   UNL     1       3.486   3.032  18.270  0.00  0.00    +0.000 A 
ATOM     19  C   UNL     1       4.665   3.752  18.451  0.00  0.00    +0.000 A 
ATOM     20  C   UNL     1       4.650   5.151  18.312  0.00  0.00    +0.000 A 
ATOM     21  C   UNL     1       3.476   5.828  17.985  0.00  0.00    +0.000 A 
ATOM     22  C   UNL     1       2.299   5.083  17.823  0.00  0.00    +0.000 A 
ATOM     23  C   UNL     1       2.305   3.695  17.960  0.00  0.00    +0.000 A 
ENDBRANCH  16  21
ENDBRANCH   1  16
TORSDOF 2
ENDMDL
MODEL 3
REMARK VINA RESULT:      -7.7      3.700      8.545
REMARK  Name = 
REMARK  2 active torsions:
REMARK  status: ('A' for Active; 'I' for Inactive)
REMARK    1  A    between atoms: C_5  and  C_6
REMARK    2  A    between atoms: C_6  and  N_7
REMARK                            x       y       z     vdW  Elec       q    Type
REMARK                         _______ _______ _______ _____ _____    ______ ____
ROOT
ATOM      1  N   UNL     1       1.344   9.230  18.548  0.00  0.00    +0.000 N 
ATOM      2  C   UNL     1       1.325   8.106  19.371  0.00  0.00    +0.000 A 
ATOM      3  C   UNL     1       2.445   7.403  19.017  0.00  0.00    +0.000 A 
ATOM      4  C   UNL     1       2.869   8.015  17.826  0.00  0.00    +0.000 A 
ATOM      5  N   UNL     1       2.213   9.109  17.495  0.00  0.00    +0.000 NA
ATOM      6  C   UNL     1       3.955   7.201  17.337  0.00  0.00    +0.000 A 
ATOM      7  C   UNL     1       4.592   6.811  16.207  0.00  0.00    +0.000 A 
ATOM      8  C   UNL     1       5.564   5.843  16.638  0.00  0.00    +0.000 A 
ATOM      9  C   UNL     1       6.478   5.015  15.966  0.00  0.00    +0.000 A 
ATOM     10  C   UNL     1       7.529   4.450  16.696  0.00  0.00    +0.000 A 
ATOM     11  C   UNL     1       7.652   4.685  18.066  0.00  0.00    +0.000 A 
ATOM     12  C   UNL     1       6.633   5.320  18.786  0.00  0.00    +0.000 A 
ATOM     13  C   UNL     1       5.558   5.823  18.044  0.00  0.00    +0.000 A 
ATOM     14  N   UNL     1       4.358   6.375  18.354  0.00  0.00    +0.000 N 
ATOM     15  C   UNL     1       3.298   6.215  19.364  0.00  0.00    +0.000 C 
ENDROOT
BRANCH   1  16
ATOM     16  C   UNL     1       0.823  10.546  18.923  0.00  0.00    +0.000 C 
BRANCH  16  21
ATOM     17 CL   UNL     1      -5.028  11.235  17.637  0.00  0.00    +0.000 Cl
ATOM     18  C   UNL     1      -3.357  11.071  17.989  0.00  0.00    +0.000 A 
ATOM     19  C   UNL     1      -2.585  10.150  17.285  0.00  0.00    +0.000 A 
ATOM     20  C   UNL     1      -1.219  10.015  17.589  0.00  0.00    +0.000 A 
ATOM     21  C   UNL     1      -0.622  10.797  18.576  0.00  0.00    +0.000 A 
ATOM     22  C   UNL     1      -1.423  11.708  19.282  0.00  0.00    +0.000 A 
ATOM     23  C   UNL     1      -2.779  11.846  18.987  0.00  0.00    +0.000 A 
ENDBRANCH  16  21
ENDBRANCH   1  16
TORSDOF 2
ENDMDL
MODEL 4
REMARK VINA RESULT:      -7.7      4.405      9.442
REMARK  Name = 
REMARK  2 active torsions:
REMARK  status: ('A' for Active; 'I' for Inactive)
REMARK    1  A    between atoms: C_5  and  C_6
REMARK    2  A    between atoms: C_6  and  N_7
REMARK                            x       y       z     vdW  Elec       q    Type
REMARK                         _______ _______ _______ _____ _____    ______ ____
ROOT
ATOM      1  N   UNL     1       3.964   4.633  19.086  0.00  0.00    +0.000 N 
ATOM      2  C   UNL     1       5.350   4.592  19.222  0.00  0.00    +0.000 A 
ATOM      3  C   UNL     1       5.822   4.599  17.938  0.00  0.00    +0.000 A 
ATOM      4  C   UNL     1       4.683   4.349  17.155  0.00  0.00    +0.000 A 
ATOM      5  N   UNL     1       3.542   4.337  17.816  0.00  0.00    +0.000 NA
ATOM      6  C   UNL     1       5.167   4.190  15.805  0.00  0.00    +0.000 A 
ATOM      7  C   UNL     1       4.903   3.580  14.625  0.00  0.00    +0.000 A 
ATOM      8  C   UNL     1       6.023   3.893  13.781  0.00  0.00    +0.000 A 
ATOM      9  C   UNL     1       6.401   3.513  12.482  0.00  0.00    +0.000 A 
ATOM     10  C   UNL     1       7.366   4.276  11.816  0.00  0.00    +0.000 A 
ATOM     11  C   UNL     1       7.958   5.377  12.439  0.00  0.00    +0.000 A 
ATOM     12  C   UNL     1       7.757   5.633  13.801  0.00  0.00    +0.000 A 
ATOM     13  C   UNL     1       6.833   4.818  14.465  0.00  0.00    +0.000 A 
ATOM     14  N   UNL     1       6.454   4.660  15.758  0.00  0.00    +0.000 N 
ATOM     15  C   UNL     1       7.065   4.679  17.097  0.00  0.00    +0.000 C 
ENDROOT
BRANCH   1  16
ATOM     16  C   UNL     1       3.052   5.278  20.031  0.00  0.00    +0.000 C 
BRANCH  16  21
ATOM     17 CL   UNL     1       0.992  10.733  18.496  0.00  0.00    +0.000 Cl
ATOM     18  C   UNL     1       1.554   9.167  18.910  0.00  0.00    +0.000 A 
ATOM     19  C   UNL     1       1.316   8.657  20.184  0.00  0.00    +0.000 A 
ATOM     20  C   UNL     1       1.791   7.376  20.518  0.00  0.00    +0.000 A 
ATOM     21  C   UNL     1       2.487   6.604  19.590  0.00  0.00    +0.000 A 
ATOM     22  C   UNL     1       2.728   7.145  18.318  0.00  0.00    +0.000 A 
ATOM     23  C   UNL     1       2.261   8.415  17.980  0.00  0.00    +0.000 A 
ENDBRANCH  16  21
ENDBRANCH   1  16
TORSDOF 2
ENDMDL
MODEL 5
REMARK VINA RESULT:      -7.7      2.155      2.618
REMARK  Name = 
REMARK  2 active torsions:
REMARK  status: ('A' for Active; 'I' for Inactive)
REMARK    1  A    between atoms: C_5  and  C_6
REMARK    2  A    between atoms: C_6  and  N_7
REMARK                            x       y       z     vdW  Elec       q    Type
REMARK                         _______ _______ _______ _____ _____    ______ ____
ROOT
ATOM      1  N   UNL     1       2.868   6.285  19.266  0.00  0.00    +0.000 N 
ATOM      2  C   UNL     1       2.514   7.171  18.250  0.00  0.00    +0.000 A 
ATOM      3  C   UNL     1       1.936   8.227  18.902  0.00  0.00    +0.000 A 
ATOM      4  C   UNL     1       1.734   7.752  20.208  0.00  0.00    +0.000 A 
ATOM      5  N   UNL     1       2.260   6.571  20.461  0.00  0.00    +0.000 NA
ATOM      6  C   UNL     1       0.982   8.782  20.882  0.00  0.00    +0.000 A 
ATOM      7  C   UNL     1       0.083   8.993  21.874  0.00  0.00    +0.000 A 
ATOM      8  C   UNL     1      -0.234  10.394  21.803  0.00  0.00    +0.000 A 
ATOM      9  C   UNL     1      -1.139  11.224  22.485  0.00  0.00    +0.000 A 
ATOM     10  C   UNL     1      -0.947  12.608  22.430  0.00  0.00    +0.000 A 
ATOM     11  C   UNL     1       0.104  13.154  21.691  0.00  0.00    +0.000 A 
ATOM     12  C   UNL     1       0.873  12.359  20.832  0.00  0.00    +0.000 A 
ATOM     13  C   UNL     1       0.624  10.982  20.856  0.00  0.00    +0.000 A 
ATOM     14  N   UNL     1       1.046   9.921  20.123  0.00  0.00    +0.000 N 
ATOM     15  C   UNL     1       1.380   9.612  18.722  0.00  0.00    +0.000 C 
ENDROOT
BRANCH   1  16
ATOM     16  C   UNL     1       4.024   5.390  19.226  0.00  0.00    +0.000 C 
BRANCH  16  21
ATOM     17 CL   UNL     1       7.158   4.944  14.093  0.00  0.00    +0.000 Cl
ATOM     18  C   UNL     1       6.240   5.085  15.535  0.00  0.00    +0.000 A 
ATOM     19  C   UNL     1       6.632   5.985  16.524  0.00  0.00    +0.000 A 
ATOM     20  C   UNL     1       5.879   6.085  17.707  0.00  0.00    +0.000 A 
ATOM     21  C   UNL     1       4.739   5.307  17.901  0.00  0.00    +0.000 A 
ATOM     22  C   UNL     1       4.373   4.397  16.898  0.00  0.00    +0.000 A 
ATOM     23  C   UNL     1       5.115   4.291  15.722  0.00  0.00    +0.000 A 
ENDBRANCH  16  21
ENDBRANCH   1  16
TORSDOF 2
ENDMDL
MODEL 6
REMARK VINA RESULT:      -7.6      3.720      8.615
REMARK  Name = 
REMARK  2 active torsions:
REMARK  status: ('A' for Active; 'I' for Inactive)
REMARK    1  A    between atoms: C_5  and  C_6
REMARK    2  A    between atoms: C_6  and  N_7
REMARK                            x       y       z     vdW  Elec       q    Type
REMARK                         _______ _______ _______ _____ _____    ______ ____
ROOT
ATOM      1  N   UNL     1       1.356   9.181  18.538  0.00  0.00    +0.000 N 
ATOM      2  C   UNL     1       1.339   8.051  19.353  0.00  0.00    +0.000 A 
ATOM      3  C   UNL     1       2.464   7.357  19.001  0.00  0.00    +0.000 A 
ATOM      4  C   UNL     1       2.892   7.980  17.817  0.00  0.00    +0.000 A 
ATOM      5  N   UNL     1       2.232   9.072  17.489  0.00  0.00    +0.000 NA
ATOM      6  C   UNL     1       3.986   7.175  17.329  0.00  0.00    +0.000 A 
ATOM      7  C   UNL     1       4.632   6.796  16.200  0.00  0.00    +0.000 A 
ATOM      8  C   UNL     1       5.606   5.830  16.630  0.00  0.00    +0.000 A 
ATOM      9  C   UNL     1       6.529   5.012  15.958  0.00  0.00    +0.000 A 
ATOM     10  C   UNL     1       7.579   4.448  16.690  0.00  0.00    +0.000 A 
ATOM     11  C   UNL     1       7.693   4.674  18.063  0.00  0.00    +0.000 A 
ATOM     12  C   UNL     1       6.665   5.299  18.781  0.00  0.00    +0.000 A 
ATOM     13  C   UNL     1       5.592   5.801  18.036  0.00  0.00    +0.000 A 
ATOM     14  N   UNL     1       4.387   6.344  18.342  0.00  0.00    +0.000 N 
ATOM     15  C   UNL     1       3.322   6.171  19.345  0.00  0.00    +0.000 C 
ENDROOT
BRANCH   1  16
ATOM     16  C   UNL     1       0.826  10.491  18.918  0.00  0.00    +0.000 C 
BRANCH  16  21
ATOM     17 CL   UNL     1      -4.963  11.677  17.712  0.00  0.00    +0.000 Cl
ATOM     18  C   UNL     1      -3.326  11.308  18.066  0.00  0.00    +0.000 A 
ATOM     19  C   UNL     1      -2.674  11.965  19.108  0.00  0.00    +0.000 A 
ATOM     20  C   UNL     1      -1.329  11.663  19.383  0.00  0.00    +0.000 A 
ATOM     21  C   UNL     1      -0.640  10.707  18.638  0.00  0.00    +0.000 A 
ATOM     22  C   UNL     1      -1.312  10.070  17.585  0.00  0.00    +0.000 A 
ATOM     23  C   UNL     1      -2.646  10.365  17.305  0.00  0.00    +0.000 A 
ENDBRANCH  16  21
ENDBRANCH   1  16
TORSDOF 2
ENDMDL
MODEL 7
REMARK VINA RESULT:      -7.6      3.597      7.763
REMARK  Name = 
REMARK  2 active torsions:
REMARK  status: ('A' for Active; 'I' for Inactive)
REMARK    1  A    between atoms: C_5  and  C_6
REMARK    2  A    between atoms: C_6  and  N_7
REMARK                            x       y       z     vdW  Elec       q    Type
REMARK                         _______ _______ _______ _____ _____    ______ ____
ROOT
ATOM      1  N   UNL     1       1.333  10.474  18.967  0.00  0.00    +0.000 N 
ATOM      2  C   UNL     1       2.253  10.052  18.010  0.00  0.00    +0.000 A 
ATOM      3  C   UNL     1       2.303   8.693  18.158  0.00  0.00    +0.000 A 
ATOM      4  C   UNL     1       1.637   8.457  19.372  0.00  0.00    +0.000 A 
ATOM      5  N   UNL     1       1.057   9.514  19.906  0.00  0.00    +0.000 NA
ATOM      6  C   UNL     1       1.808   7.050  19.642  0.00  0.00    +0.000 A 
ATOM      7  C   UNL     1       1.886   6.141  20.643  0.00  0.00    +0.000 A 
ATOM      8  C   UNL     1       2.190   4.894  19.997  0.00  0.00    +0.000 A 
ATOM      9  C   UNL     1       2.473   3.599  20.462  0.00  0.00    +0.000 A 
ATOM     10  C   UNL     1       2.371   2.530  19.565  0.00  0.00    +0.000 A 
ATOM     11  C   UNL     1       2.021   2.749  18.232  0.00  0.00    +0.000 A 
ATOM     12  C   UNL     1       1.955   4.045  17.705  0.00  0.00    +0.000 A 
ATOM     13  C   UNL     1       2.121   5.101  18.607  0.00  0.00    +0.000 A 
ATOM     14  N   UNL     1       2.245   6.447  18.491  0.00  0.00    +0.000 N 
ATOM     15  C   UNL     1       2.861   7.423  17.577  0.00  0.00    +0.000 C 
ENDROOT
BRANCH   1  16
ATOM     16  C   UNL     1       0.450  11.632  18.821  0.00  0.00    +0.000 C 
BRANCH  16  21
ATOM     17 CL   UNL     1      -5.417  10.675  17.807  0.00  0.00    +0.000 Cl
ATOM     18  C   UNL     1      -3.747  10.917  18.113  0.00  0.00    +0.000 A 
ATOM     19  C   UNL     1      -3.337  11.937  18.969  0.00  0.00    +0.000 A 
ATOM     20  C   UNL     1      -1.965  12.134  19.204  0.00  0.00    +0.000 A 
ATOM     21  C   UNL     1      -1.008  11.317  18.604  0.00  0.00    +0.000 A 
ATOM     22  C   UNL     1      -1.444  10.306  17.735  0.00  0.00    +0.000 A 
ATOM     23  C   UNL     1      -2.803  10.105  17.495  0.00  0.00    +0.000 A 
ENDBRANCH  16  21
ENDBRANCH   1  16
TORSDOF 2
ENDMDL
MODEL 8
REMARK VINA RESULT:      -7.5      2.348      2.889
REMARK  Name = 
REMARK  2 active torsions:
REMARK  status: ('A' for Active; 'I' for Inactive)
REMARK    1  A    between atoms: C_5  and  C_6
REMARK    2  A    between atoms: C_6  and  N_7
REMARK                            x       y       z     vdW  Elec       q    Type
REMARK                         _______ _______ _______ _____ _____    ______ ____
ROOT
ATOM      1  N   UNL     1       3.256   5.767  19.122  0.00  0.00    +0.000 N 
ATOM      2  C   UNL     1       2.882   6.612  18.078  0.00  0.00    +0.000 A 
ATOM      3  C   UNL     1       2.279   7.673  18.696  0.00  0.00    +0.000 A 
ATOM      4  C   UNL     1       2.086   7.235  20.016  0.00  0.00    +0.000 A 
ATOM      5  N   UNL     1       2.640   6.075  20.307  0.00  0.00    +0.000 NA
ATOM      6  C   UNL     1       1.308   8.268  20.657  0.00  0.00    +0.000 A 
ATOM      7  C   UNL     1       0.403   8.488  21.641  0.00  0.00    +0.000 A 
ATOM      8  C   UNL     1       0.053   9.878  21.526  0.00  0.00    +0.000 A 
ATOM      9  C   UNL     1      -0.872  10.707  22.181  0.00  0.00    +0.000 A 
ATOM     10  C   UNL     1      -0.714  12.093  22.082  0.00  0.00    +0.000 A 
ATOM     11  C   UNL     1       0.325  12.640  21.327  0.00  0.00    +0.000 A 
ATOM     12  C   UNL     1       1.114  11.837  20.494  0.00  0.00    +0.000 A 
ATOM     13  C   UNL     1       0.898  10.456  20.561  0.00  0.00    +0.000 A 
ATOM     14  N   UNL     1       1.346   9.383  19.862  0.00  0.00    +0.000 N 
ATOM     15  C   UNL     1       1.689   9.038  18.473  0.00  0.00    +0.000 C 
ENDROOT
BRANCH   1  16
ATOM     16  C   UNL     1       4.433   4.898  19.111  0.00  0.00    +0.000 C 
BRANCH  16  21
ATOM     17 CL   UNL     1       7.380   5.047  13.851  0.00  0.00    +0.000 Cl
ATOM     18  C   UNL     1       6.570   4.991  15.362  0.00  0.00    +0.000 A 
ATOM     19  C   UNL     1       5.518   4.098  15.556  0.00  0.00    +0.000 A 
ATOM     20  C   UNL     1       4.854   4.068  16.795  0.00  0.00    +0.000 A 
ATOM     21  C   UNL     1       5.240   4.910  17.837  0.00  0.00    +0.000 A 
ATOM     22  C   UNL     1       6.291   5.811  17.613  0.00  0.00    +0.000 A 
ATOM     23  C   UNL     1       6.954   5.847  16.387  0.00  0.00    +0.000 A 
ENDBRANCH  16  21
ENDBRANCH   1  16
TORSDOF 2
ENDMDL
MODEL 9
REMARK VINA RESULT:      -7.5      2.755      3.433
REMARK  Name = 
REMARK  2 active torsions:
REMARK  status: ('A' for Active; 'I' for Inactive)
REMARK    1  A    between atoms: C_5  and  C_6
REMARK    2  A    between atoms: C_6  and  N_7
REMARK                            x       y       z     vdW  Elec       q    Type
REMARK                         _______ _______ _______ _____ _____    ______ ____
ROOT
ATOM      1  N   UNL     1       4.196   5.878  18.333  0.00  0.00    +0.000 N 
ATOM      2  C   UNL     1       3.558   6.734  17.438  0.00  0.00    +0.000 A 
ATOM      3  C   UNL     1       2.783   7.539  18.227  0.00  0.00    +0.000 A 
ATOM      4  C   UNL     1       2.802   6.908  19.481  0.00  0.00    +0.000 A 
ATOM      5  N   UNL     1       3.626   5.884  19.579  0.00  0.00    +0.000 NA
ATOM      6  C   UNL     1       1.866   7.641  20.299  0.00  0.00    +0.000 A 
ATOM      7  C   UNL     1       1.019   7.519  21.349  0.00  0.00    +0.000 A 
ATOM      8  C   UNL     1       0.355   8.791  21.446  0.00  0.00    +0.000 A 
ATOM      9  C   UNL     1      -0.677   9.292  22.257  0.00  0.00    +0.000 A 
ATOM     10  C   UNL     1      -0.844  10.678  22.344  0.00  0.00    +0.000 A 
ATOM     11  C   UNL     1      -0.020  11.543  21.622  0.00  0.00    +0.000 A 
ATOM     12  C   UNL     1       0.859  11.057  20.646  0.00  0.00    +0.000 A 
ATOM     13  C   UNL     1       0.967   9.667  20.531  0.00  0.00    +0.000 A 
ATOM     14  N   UNL     1       1.586   8.825  19.667  0.00  0.00    +0.000 N 
ATOM     15  C   UNL     1       1.885   8.745  18.227  0.00  0.00    +0.000 C 
ENDROOT
BRANCH   1  16
ATOM     16  C   UNL     1       5.535   5.318  18.141  0.00  0.00    +0.000 C 
BRANCH  16  21
ATOM     17 CL   UNL     1       6.547   3.681  12.426  0.00  0.00    +0.000 Cl
ATOM     18  C   UNL     1       6.288   4.129  14.062  0.00  0.00    +0.000 A 
ATOM     19  C   UNL     1       5.200   3.611  14.761  0.00  0.00    +0.000 A 
ATOM     20  C   UNL     1       4.990   3.993  16.097  0.00  0.00    +0.000 A 
ATOM     21  C   UNL     1       5.861   4.873  16.738  0.00  0.00    +0.000 A 
ATOM     22  C   UNL     1       6.940   5.393  16.009  0.00  0.00    +0.000 A 
ATOM     23  C   UNL     1       7.155   5.020  14.683  0.00  0.00    +0.000 A 
ENDBRANCH  16  21
ENDBRANCH   1  16
TORSDOF 2
ENDMDL
