MODEL 1
REMARK VINA RESULT:      -8.2      0.000      0.000
REMARK  Name = 
REMARK  4 active torsions:
REMARK  status: ('A' for Active; 'I' for Inactive)
REMARK    1  A    between atoms: C_6  and  S_7
REMARK    2  A    between atoms: S_7  and  C_8
REMARK    3  A    between atoms: C_8  and  C_9
REMARK    4  A    between atoms: C_9  and  C_11
REMARK                            x       y       z     vdW  Elec       q    Type
REMARK                         _______ _______ _______ _____ _____    ______ ____
ROOT
ATOM      1  N   UNL     1       8.224   7.669  18.233  0.00  0.00    +0.000 N 
ATOM      2  C   UNL     1       7.463   6.591  17.926  0.00  0.00    +0.000 A 
ATOM      3  N   UNL     1       6.888   5.924  18.889  0.00  0.00    +0.000 NA
ATOM      4  C   UNL     1       6.127   4.828  18.466  0.00  0.00    +0.000 A 
ATOM      5  N   UNL     1       5.421   3.956  19.260  0.00  0.00    +0.000 NA
ATOM      6  C   UNL     1       4.884   3.109  18.410  0.00  0.00    +0.000 A 
ATOM      7  N   UNL     1       5.213   3.399  17.111  0.00  0.00    +0.000 N 
ATOM      8  C   UNL     1       6.011   4.501  17.143  0.00  0.00    +0.000 A 
ATOM      9  C   UNL     1       6.635   5.230  16.104  0.00  0.00    +0.000 A 
ATOM     10  O   UNL     1       6.552   4.969  14.907  0.00  0.00    +0.000 OA
ATOM     11  N   UNL     1       7.363   6.288  16.588  0.00  0.00    +0.000 N 
ATOM     12  H   UNL     1       8.307   7.910  19.212  0.00  0.00    +0.000 HD
ATOM     13  H   UNL     1       8.699   8.244  17.556  0.00  0.00    +0.000 HD
ATOM     14  H   UNL     1       4.914   2.884  16.293  0.00  0.00    +0.000 HD
ATOM     15  H   UNL     1       7.837   6.851  15.901  0.00  0.00    +0.000 HD
ENDROOT
BRANCH   6  16
ATOM     16  S   UNL     1       3.872   1.750  18.719  0.00  0.00    +0.000 S 
BRANCH  16  17
ATOM     17  C   UNL     1       2.409   2.049  17.677  0.00  0.00    +0.000 C 
BRANCH  17  18
ATOM     18  C   UNL     1       1.335   2.808  18.464  0.00  0.00    +0.000 C 
ATOM     19  O   UNL     1       0.233   2.341  18.756  0.00  0.00    +0.000 OA
BRANCH  18  20
ATOM     20  C   UNL     1       1.626   4.204  18.920  0.00  0.00    +0.000 A 
ATOM     21  C   UNL     1       2.107   5.188  18.049  0.00  0.00    +0.000 A 
ATOM     22  C   UNL     1       2.340   6.482  18.520  0.00  0.00    +0.000 A 
ATOM     23  C   UNL     1       2.097   6.793  19.857  0.00  0.00    +0.000 A 
ATOM     24  F   UNL     1       2.315   8.037  20.297  0.00  0.00    +0.000 F 
ATOM     25  C   UNL     1       1.617   5.827  20.734  0.00  0.00    +0.000 A 
ATOM     26  C   UNL     1       1.382   4.535  20.267  0.00  0.00    +0.000 A 
ENDBRANCH  18  20
ENDBRANCH  17  18
ENDBRANCH  16  17
ENDBRANCH   6  16
TORSDOF 4
ENDMDL
MODEL 2
REMARK VINA RESULT:      -8.0      0.793      1.341
REMARK  Name = 
REMARK  4 active torsions:
REMARK  status: ('A' for Active; 'I' for Inactive)
REMARK    1  A    between atoms: C_6  and  S_7
REMARK    2  A    between atoms: S_7  and  C_8
REMARK    3  A    between atoms: C_8  and  C_9
REMARK    4  A    between atoms: C_9  and  C_11
REMARK                            x       y       z     vdW  Elec       q    Type
REMARK                         _______ _______ _______ _____ _____    ______ ____
ROOT
ATOM      1  N   UNL     1       8.378   7.464  18.665  0.00  0.00    +0.000 N 
ATOM      2  C   UNL     1       7.546   6.491  18.223  0.00  0.00    +0.000 A 
ATOM      3  N   UNL     1       6.943   5.728  19.093  0.00  0.00    +0.000 NA
ATOM      4  C   UNL     1       6.107   4.754  18.534  0.00  0.00    +0.000 A 
ATOM      5  N   UNL     1       5.357   3.821  19.210  0.00  0.00    +0.000 NA
ATOM      6  C   UNL     1       4.756   3.141  18.260  0.00  0.00    +0.000 A 
ATOM      7  N   UNL     1       5.084   3.595  17.009  0.00  0.00    +0.000 N 
ATOM      8  C   UNL     1       5.952   4.630  17.181  0.00  0.00    +0.000 A 
ATOM      9  C   UNL     1       6.607   5.461  16.244  0.00  0.00    +0.000 A 
ATOM     10  O   UNL     1       6.492   5.383  15.024  0.00  0.00    +0.000 OA
ATOM     11  N   UNL     1       7.409   6.392  16.858  0.00  0.00    +0.000 N 
ATOM     12  H   UNL     1       8.491   7.554  19.666  0.00  0.00    +0.000 HD
ATOM     13  H   UNL     1       8.880   8.100  18.067  0.00  0.00    +0.000 HD
ATOM     14  H   UNL     1       4.742   3.223  16.133  0.00  0.00    +0.000 HD
ATOM     15  H   UNL     1       7.908   7.018  16.248  0.00  0.00    +0.000 HD
ENDROOT
BRANCH   6  16
ATOM     16  S   UNL     1       3.663   1.816  18.393  0.00  0.00    +0.000 S 
BRANCH  16  17
ATOM     17  C   UNL     1       2.019   2.591  18.264  0.00  0.00    +0.000 C 
BRANCH  17  18
ATOM     18  C   UNL     1       1.736   3.457  19.497  0.00  0.00    +0.000 C 
ATOM     19  O   UNL     1       1.396   3.007  20.593  0.00  0.00    +0.000 OA
BRANCH  18  20
ATOM     20  C   UNL     1       1.879   4.942  19.385  0.00  0.00    +0.000 A 
ATOM     21  C   UNL     1       1.711   5.793  20.483  0.00  0.00    +0.000 A 
ATOM     22  C   UNL     1       1.879   7.171  20.330  0.00  0.00    +0.000 A 
ATOM     23  C   UNL     1       2.210   7.699  19.083  0.00  0.00    +0.000 A 
ATOM     24  F   UNL     1       2.376   9.019  18.948  0.00  0.00    +0.000 F 
ATOM     25  C   UNL     1       2.383   6.867  17.983  0.00  0.00    +0.000 A 
ATOM     26  C   UNL     1       2.218   5.492  18.133  0.00  0.00    +0.000 A 
ENDBRANCH  18  20
ENDBRANCH  17  18
ENDBRANCH  16  17
ENDBRANCH   6  16
TORSDOF 4
ENDMDL
MODEL 3
REMARK VINA RESULT:      -7.8      2.251      3.106
REMARK  Name = 
REMARK  4 active torsions:
REMARK  status: ('A' for Active; 'I' for Inactive)
REMARK    1  A    between atoms: C_6  and  S_7
REMARK    2  A    between atoms: S_7  and  C_8
REMARK    3  A    between atoms: C_8  and  C_9
REMARK    4  A    between atoms: C_9  and  C_11
REMARK                            x       y       z     vdW  Elec       q    Type
REMARK                         _______ _______ _______ _____ _____    ______ ____
ROOT
ATOM      1  N   UNL     1       7.264   5.352  13.788  0.00  0.00    +0.000 N 
ATOM      2  C   UNL     1       6.761   4.942  14.977  0.00  0.00    +0.000 A 
ATOM      3  N   UNL     1       5.493   4.641  15.059  0.00  0.00    +0.000 NA
ATOM      4  C   UNL     1       5.073   4.231  16.330  0.00  0.00    +0.000 A 
ATOM      5  N   UNL     1       3.803   3.859  16.701  0.00  0.00    +0.000 NA
ATOM      6  C   UNL     1       3.912   3.567  17.978  0.00  0.00    +0.000 A 
ATOM      7  N   UNL     1       5.192   3.733  18.440  0.00  0.00    +0.000 N 
ATOM      8  C   UNL     1       5.940   4.159  17.386  0.00  0.00    +0.000 A 
ATOM      9  C   UNL     1       7.312   4.484  17.289  0.00  0.00    +0.000 A 
ATOM     10  O   UNL     1       8.120   4.431  18.211  0.00  0.00    +0.000 OA
ATOM     11  N   UNL     1       7.656   4.878  16.019  0.00  0.00    +0.000 N 
ATOM     12  H   UNL     1       6.622   5.403  13.009  0.00  0.00    +0.000 HD
ATOM     13  H   UNL     1       8.228   5.599  13.632  0.00  0.00    +0.000 HD
ATOM     14  H   UNL     1       5.508   3.568  19.387  0.00  0.00    +0.000 HD
ATOM     15  H   UNL     1       8.621   5.127  15.878  0.00  0.00    +0.000 HD
ENDROOT
BRANCH   6  16
ATOM     16  S   UNL     1       2.702   3.031  19.080  0.00  0.00    +0.000 S 
BRANCH  16  17
ATOM     17  C   UNL     1       1.767   4.543  19.472  0.00  0.00    +0.000 C 
BRANCH  17  18
ATOM     18  C   UNL     1       2.718   5.732  19.650  0.00  0.00    +0.000 C 
ATOM     19  O   UNL     1       3.884   5.631  20.037  0.00  0.00    +0.000 OA
BRANCH  18  20
ATOM     20  C   UNL     1       2.221   7.108  19.336  0.00  0.00    +0.000 A 
ATOM     21  C   UNL     1       2.313   7.659  18.053  0.00  0.00    +0.000 A 
ATOM     22  C   UNL     1       1.813   8.940  17.807  0.00  0.00    +0.000 A 
ATOM     23  C   UNL     1       1.225   9.670  18.840  0.00  0.00    +0.000 A 
ATOM     24  F   UNL     1       0.742  10.892  18.592  0.00  0.00    +0.000 F 
ATOM     25  C   UNL     1       1.125   9.135  20.118  0.00  0.00    +0.000 A 
ATOM     26  C   UNL     1       1.621   7.857  20.367  0.00  0.00    +0.000 A 
ENDBRANCH  18  20
ENDBRANCH  17  18
ENDBRANCH  16  17
ENDBRANCH   6  16
TORSDOF 4
ENDMDL
MODEL 4
REMARK VINA RESULT:      -7.8      0.978      1.091
REMARK  Name = 
REMARK  4 active torsions:
REMARK  status: ('A' for Active; 'I' for Inactive)
REMARK    1  A    between atoms: C_6  and  S_7
REMARK    2  A    between atoms: S_7  and  C_8
REMARK    3  A    between atoms: C_8  and  C_9
REMARK    4  A    between atoms: C_9  and  C_11
REMARK                            x       y       z     vdW  Elec       q    Type
REMARK                         _______ _______ _______ _____ _____    ______ ____
ROOT
ATOM      1  N   UNL     1       7.828   7.730  17.195  0.00  0.00    +0.000 N 
ATOM      2  C   UNL     1       7.074   6.605  17.209  0.00  0.00    +0.000 A 
ATOM      3  N   UNL     1       6.726   6.088  18.356  0.00  0.00    +0.000 NA
ATOM      4  C   UNL     1       5.951   4.926  18.261  0.00  0.00    +0.000 A 
ATOM      5  N   UNL     1       5.451   4.179  19.300  0.00  0.00    +0.000 NA
ATOM      6  C   UNL     1       4.802   3.199  18.710  0.00  0.00    +0.000 A 
ATOM      7  N   UNL     1       4.863   3.287  17.343  0.00  0.00    +0.000 N 
ATOM      8  C   UNL     1       5.599   4.394  17.051  0.00  0.00    +0.000 A 
ATOM      9  C   UNL     1       5.979   4.960  15.812  0.00  0.00    +0.000 A 
ATOM     10  O   UNL     1       5.682   4.512  14.708  0.00  0.00    +0.000 OA
ATOM     11  N   UNL     1       6.736   6.093  15.979  0.00  0.00    +0.000 N 
ATOM     12  H   UNL     1       8.085   8.123  18.091  0.00  0.00    +0.000 HD
ATOM     13  H   UNL     1       8.138   8.199  16.360  0.00  0.00    +0.000 HD
ATOM     14  H   UNL     1       4.439   2.644  16.687  0.00  0.00    +0.000 HD
ATOM     15  H   UNL     1       7.042   6.549  15.135  0.00  0.00    +0.000 HD
ENDROOT
BRANCH   6  16
ATOM     16  S   UNL     1       3.933   1.889  19.412  0.00  0.00    +0.000 S 
BRANCH  16  17
ATOM     17  C   UNL     1       2.192   2.266  19.032  0.00  0.00    +0.000 C 
BRANCH  17  18
ATOM     18  C   UNL     1       1.663   3.357  19.969  0.00  0.00    +0.000 C 
ATOM     19  O   UNL     1       1.071   3.133  21.027  0.00  0.00    +0.000 OA
BRANCH  18  20
ATOM     20  C   UNL     1       1.870   4.792  19.596  0.00  0.00    +0.000 A 
ATOM     21  C   UNL     1       2.128   5.190  18.279  0.00  0.00    +0.000 A 
ATOM     22  C   UNL     1       2.292   6.545  17.981  0.00  0.00    +0.000 A 
ATOM     23  C   UNL     1       2.201   7.500  18.994  0.00  0.00    +0.000 A 
ATOM     24  F   UNL     1       2.351   8.794  18.696  0.00  0.00    +0.000 F 
ATOM     25  C   UNL     1       1.943   7.119  20.305  0.00  0.00    +0.000 A 
ATOM     26  C   UNL     1       1.778   5.769  20.606  0.00  0.00    +0.000 A 
ENDBRANCH  18  20
ENDBRANCH  17  18
ENDBRANCH  16  17
ENDBRANCH   6  16
TORSDOF 4
ENDMDL
MODEL 5
REMARK VINA RESULT:      -7.8      1.280      2.247
REMARK  Name = 
REMARK  4 active torsions:
REMARK  status: ('A' for Active; 'I' for Inactive)
REMARK    1  A    between atoms: C_6  and  S_7
REMARK    2  A    between atoms: S_7  and  C_8
REMARK    3  A    between atoms: C_8  and  C_9
REMARK    4  A    between atoms: C_9  and  C_11
REMARK                            x       y       z     vdW  Elec       q    Type
REMARK                         _______ _______ _______ _____ _____    ______ ____
ROOT
ATOM      1  N   UNL     1       7.267   5.372  13.865  0.00  0.00    +0.000 N 
ATOM      2  C   UNL     1       6.895   5.088  15.136  0.00  0.00    +0.000 A 
ATOM      3  N   UNL     1       5.978   4.183  15.342  0.00  0.00    +0.000 NA
ATOM      4  C   UNL     1       5.665   3.966  16.689  0.00  0.00    +0.000 A 
ATOM      5  N   UNL     1       4.743   3.080  17.191  0.00  0.00    +0.000 NA
ATOM      6  C   UNL     1       4.811   3.246  18.493  0.00  0.00    +0.000 A 
ATOM      7  N   UNL     1       5.734   4.195  18.847  0.00  0.00    +0.000 N 
ATOM      8  C   UNL     1       6.284   4.660  17.692  0.00  0.00    +0.000 A 
ATOM      9  C   UNL     1       7.279   5.638  17.462  0.00  0.00    +0.000 A 
ATOM     10  O   UNL     1       7.858   6.279  18.334  0.00  0.00    +0.000 OA
ATOM     11  N   UNL     1       7.536   5.800  16.122  0.00  0.00    +0.000 N 
ATOM     12  H   UNL     1       6.809   4.857  13.125  0.00  0.00    +0.000 HD
ATOM     13  H   UNL     1       7.968   6.050  13.613  0.00  0.00    +0.000 HD
ATOM     14  H   UNL     1       5.955   4.488  19.790  0.00  0.00    +0.000 HD
ATOM     15  H   UNL     1       8.235   6.485  15.886  0.00  0.00    +0.000 HD
ENDROOT
BRANCH   6  16
ATOM     16  S   UNL     1       3.924   2.456  19.741  0.00  0.00    +0.000 S 
BRANCH  16  17
ATOM     17  C   UNL     1       2.518   1.699  18.866  0.00  0.00    +0.000 C 
BRANCH  17  18
ATOM     18  C   UNL     1       1.339   2.676  18.797  0.00  0.00    +0.000 C 
ATOM     19  O   UNL     1       0.190   2.353  18.488  0.00  0.00    +0.000 OA
BRANCH  18  20
ATOM     20  C   UNL     1       1.575   4.117  19.127  0.00  0.00    +0.000 A 
ATOM     21  C   UNL     1       1.433   4.618  20.426  0.00  0.00    +0.000 A 
ATOM     22  C   UNL     1       1.688   5.967  20.684  0.00  0.00    +0.000 A 
ATOM     23  C   UNL     1       2.081   6.814  19.648  0.00  0.00    +0.000 A 
ATOM     24  F   UNL     1       2.330   8.102  19.908  0.00  0.00    +0.000 F 
ATOM     25  C   UNL     1       2.228   6.331  18.354  0.00  0.00    +0.000 A 
ATOM     26  C   UNL     1       1.976   4.985  18.093  0.00  0.00    +0.000 A 
ENDBRANCH  18  20
ENDBRANCH  17  18
ENDBRANCH  16  17
ENDBRANCH   6  16
TORSDOF 4
ENDMDL
MODEL 6
REMARK VINA RESULT:      -7.7      1.961      2.424
REMARK  Name = 
REMARK  4 active torsions:
REMARK  status: ('A' for Active; 'I' for Inactive)
REMARK    1  A    between atoms: C_6  and  S_7
REMARK    2  A    between atoms: S_7  and  C_8
REMARK    3  A    between atoms: C_8  and  C_9
REMARK    4  A    between atoms: C_9  and  C_11
REMARK                            x       y       z     vdW  Elec       q    Type
REMARK                         _______ _______ _______ _____ _____    ______ ____
ROOT
ATOM      1  N   UNL     1       8.398   8.909  17.704  0.00  0.00    +0.000 N 
ATOM      2  C   UNL     1       7.791   7.722  17.942  0.00  0.00    +0.000 A 
ATOM      3  N   UNL     1       6.824   7.334  17.155  0.00  0.00    +0.000 NA
ATOM      4  C   UNL     1       6.262   6.096  17.489  0.00  0.00    +0.000 A 
ATOM      5  N   UNL     1       5.237   5.452  16.839  0.00  0.00    +0.000 NA
ATOM      6  C   UNL     1       5.070   4.341  17.522  0.00  0.00    +0.000 A 
ATOM      7  N   UNL     1       5.940   4.245  18.576  0.00  0.00    +0.000 N 
ATOM      8  C   UNL     1       6.707   5.369  18.558  0.00  0.00    +0.000 A 
ATOM      9  C   UNL     1       7.756   5.795  19.406  0.00  0.00    +0.000 A 
ATOM     10  O   UNL     1       8.184   5.170  20.373  0.00  0.00    +0.000 OA
ATOM     11  N   UNL     1       8.260   7.014  19.023  0.00  0.00    +0.000 N 
ATOM     12  H   UNL     1       8.068   9.444  16.911  0.00  0.00    +0.000 HD
ATOM     13  H   UNL     1       9.153   9.284  18.254  0.00  0.00    +0.000 HD
ATOM     14  H   UNL     1       5.993   3.479  19.236  0.00  0.00    +0.000 HD
ATOM     15  H   UNL     1       9.011   7.378  19.585  0.00  0.00    +0.000 HD
ENDROOT
BRANCH   6  16
ATOM     16  S   UNL     1       3.946   3.061  17.264  0.00  0.00    +0.000 S 
BRANCH  16  17
ATOM     17  C   UNL     1       2.381   3.715  17.928  0.00  0.00    +0.000 C 
BRANCH  17  18
ATOM     18  C   UNL     1       2.622   4.440  19.256  0.00  0.00    +0.000 C 
ATOM     19  O   UNL     1       3.079   3.900  20.266  0.00  0.00    +0.000 OA
BRANCH  18  20
ATOM     20  C   UNL     1       2.294   5.897  19.353  0.00  0.00    +0.000 A 
ATOM     21  C   UNL     1       2.447   6.770  18.270  0.00  0.00    +0.000 A 
ATOM     22  C   UNL     1       2.103   8.117  18.406  0.00  0.00    +0.000 A 
ATOM     23  C   UNL     1       1.612   8.593  19.622  0.00  0.00    +0.000 A 
ATOM     24  F   UNL     1       1.280   9.883  19.740  0.00  0.00    +0.000 F 
ATOM     25  C   UNL     1       1.453   7.738  20.705  0.00  0.00    +0.000 A 
ATOM     26  C   UNL     1       1.793   6.393  20.572  0.00  0.00    +0.000 A 
ENDBRANCH  18  20
ENDBRANCH  17  18
ENDBRANCH  16  17
ENDBRANCH   6  16
TORSDOF 4
ENDMDL
MODEL 7
REMARK VINA RESULT:      -7.7      3.451      6.451
REMARK  Name = 
REMARK  4 active torsions:
REMARK  status: ('A' for Active; 'I' for Inactive)
REMARK    1  A    between atoms: C_6  and  S_7
REMARK    2  A    between atoms: S_7  and  C_8
REMARK    3  A    between atoms: C_8  and  C_9
REMARK    4  A    between atoms: C_9  and  C_11
REMARK                            x       y       z     vdW  Elec       q    Type
REMARK                         _______ _______ _______ _____ _____    ______ ____
ROOT
ATOM      1  N   UNL     1       0.025   2.846  19.289  0.00  0.00    +0.000 N 
ATOM      2  C   UNL     1       1.371   2.962  19.199  0.00  0.00    +0.000 A 
ATOM      3  N   UNL     1       1.928   4.113  19.459  0.00  0.00    +0.000 NA
ATOM      4  C   UNL     1       3.323   4.128  19.334  0.00  0.00    +0.000 A 
ATOM      5  N   UNL     1       4.160   5.197  19.544  0.00  0.00    +0.000 NA
ATOM      6  C   UNL     1       5.360   4.720  19.301  0.00  0.00    +0.000 A 
ATOM      7  N   UNL     1       5.330   3.396  18.948  0.00  0.00    +0.000 N 
ATOM      8  C   UNL     1       4.024   3.012  18.967  0.00  0.00    +0.000 A 
ATOM      9  C   UNL     1       3.414   1.768  18.689  0.00  0.00    +0.000 A 
ATOM     10  O   UNL     1       4.009   0.745  18.359  0.00  0.00    +0.000 OA
ATOM     11  N   UNL     1       2.049   1.824  18.829  0.00  0.00    +0.000 N 
ATOM     12  H   UNL     1      -0.491   3.672  19.562  0.00  0.00    +0.000 HD
ATOM     13  H   UNL     1      -0.488   1.997  19.112  0.00  0.00    +0.000 HD
ATOM     14  H   UNL     1       6.131   2.823  18.717  0.00  0.00    +0.000 HD
ATOM     15  H   UNL     1       1.549   0.970  18.644  0.00  0.00    +0.000 HD
ENDROOT
BRANCH   6  16
ATOM     16  S   UNL     1       6.885   5.517  19.370  0.00  0.00    +0.000 S 
BRANCH  16  17
ATOM     17  C   UNL     1       7.719   4.999  17.836  0.00  0.00    +0.000 C 
BRANCH  17  18
ATOM     18  C   UNL     1       7.219   5.827  16.647  0.00  0.00    +0.000 C 
ATOM     19  O   UNL     1       7.140   7.057  16.646  0.00  0.00    +0.000 OA
BRANCH  18  20
ATOM     20  C   UNL     1       6.800   5.117  15.398  0.00  0.00    +0.000 A 
ATOM     21  C   UNL     1       7.514   5.233  14.199  0.00  0.00    +0.000 A 
ATOM     22  C   UNL     1       7.093   4.531  13.067  0.00  0.00    +0.000 A 
ATOM     23  C   UNL     1       5.962   3.717  13.130  0.00  0.00    +0.000 A 
ATOM     24  F   UNL     1       5.573   3.043  12.043  0.00  0.00    +0.000 F 
ATOM     25  C   UNL     1       5.245   3.590  14.313  0.00  0.00    +0.000 A 
ATOM     26  C   UNL     1       5.663   4.288  15.445  0.00  0.00    +0.000 A 
ENDBRANCH  18  20
ENDBRANCH  17  18
ENDBRANCH  16  17
ENDBRANCH   6  16
TORSDOF 4
ENDMDL
MODEL 8
REMARK VINA RESULT:      -7.6      3.128      4.499
REMARK  Name = 
REMARK  4 active torsions:
REMARK  status: ('A' for Active; 'I' for Inactive)
REMARK    1  A    between atoms: C_6  and  S_7
REMARK    2  A    between atoms: S_7  and  C_8
REMARK    3  A    between atoms: C_8  and  C_9
REMARK    4  A    between atoms: C_9  and  C_11
REMARK                            x       y       z     vdW  Elec       q    Type
REMARK                         _______ _______ _______ _____ _____    ______ ____
ROOT
ATOM      1  N   UNL     1       5.555   2.722  11.699  0.00  0.00    +0.000 N 
ATOM      2  C   UNL     1       6.088   3.522  12.653  0.00  0.00    +0.000 A 
ATOM      3  N   UNL     1       5.645   3.433  13.878  0.00  0.00    +0.000 NA
ATOM      4  C   UNL     1       6.259   4.303  14.785  0.00  0.00    +0.000 A 
ATOM      5  N   UNL     1       5.989   4.423  16.127  0.00  0.00    +0.000 NA
ATOM      6  C   UNL     1       6.812   5.362  16.539  0.00  0.00    +0.000 A 
ATOM      7  N   UNL     1       7.596   5.846  15.524  0.00  0.00    +0.000 N 
ATOM      8  C   UNL     1       7.244   5.169  14.397  0.00  0.00    +0.000 A 
ATOM      9  C   UNL     1       7.721   5.259  13.069  0.00  0.00    +0.000 A 
ATOM     10  O   UNL     1       8.604   6.021  12.683  0.00  0.00    +0.000 OA
ATOM     11  N   UNL     1       7.077   4.380  12.234  0.00  0.00    +0.000 N 
ATOM     12  H   UNL     1       4.828   2.081  11.989  0.00  0.00    +0.000 HD
ATOM     13  H   UNL     1       5.839   2.719  10.733  0.00  0.00    +0.000 HD
ATOM     14  H   UNL     1       8.298   6.570  15.609  0.00  0.00    +0.000 HD
ATOM     15  H   UNL     1       7.368   4.392  11.270  0.00  0.00    +0.000 HD
ENDROOT
BRANCH   6  16
ATOM     16  S   UNL     1       7.011   6.022  18.118  0.00  0.00    +0.000 S 
BRANCH  16  17
ATOM     17  C   UNL     1       5.713   5.204  19.100  0.00  0.00    +0.000 C 
BRANCH  17  18
ATOM     18  C   UNL     1       4.323   5.636  18.617  0.00  0.00    +0.000 C 
ATOM     19  O   UNL     1       4.049   6.773  18.231  0.00  0.00    +0.000 OA
BRANCH  18  20
ATOM     20  C   UNL     1       3.218   4.626  18.603  0.00  0.00    +0.000 A 
ATOM     21  C   UNL     1       3.196   3.557  17.700  0.00  0.00    +0.000 A 
ATOM     22  C   UNL     1       2.153   2.630  17.744  0.00  0.00    +0.000 A 
ATOM     23  C   UNL     1       1.133   2.770  18.684  0.00  0.00    +0.000 A 
ATOM     24  F   UNL     1       0.143   1.872  18.723  0.00  0.00    +0.000 F 
ATOM     25  C   UNL     1       1.142   3.825  19.589  0.00  0.00    +0.000 A 
ATOM     26  C   UNL     1       2.182   4.751  19.549  0.00  0.00    +0.000 A 
ENDBRANCH  18  20
ENDBRANCH  17  18
ENDBRANCH  16  17
ENDBRANCH   6  16
TORSDOF 4
ENDMDL
MODEL 9
REMARK VINA RESULT:      -7.5      1.749      2.465
REMARK  Name = 
REMARK  4 active torsions:
REMARK  status: ('A' for Active; 'I' for Inactive)
REMARK    1  A    between atoms: C_6  and  S_7
REMARK    2  A    between atoms: S_7  and  C_8
REMARK    3  A    between atoms: C_8  and  C_9
REMARK    4  A    between atoms: C_9  and  C_11
REMARK                            x       y       z     vdW  Elec       q    Type
REMARK                         _______ _______ _______ _____ _____    ______ ____
ROOT
ATOM      1  N   UNL     1       8.644   9.347  18.060  0.00  0.00    +0.000 N 
ATOM      2  C   UNL     1       8.067   8.122  18.047  0.00  0.00    +0.000 A 
ATOM      3  N   UNL     1       7.183   7.845  17.128  0.00  0.00    +0.000 NA
ATOM      4  C   UNL     1       6.646   6.555  17.204  0.00  0.00    +0.000 A 
ATOM      5  N   UNL     1       5.703   6.002  16.372  0.00  0.00    +0.000 NA
ATOM      6  C   UNL     1       5.526   4.788  16.847  0.00  0.00    +0.000 A 
ATOM      7  N   UNL     1       6.312   4.540  17.941  0.00  0.00    +0.000 N 
ATOM      8  C   UNL     1       7.033   5.671  18.174  0.00  0.00    +0.000 A 
ATOM      9  C   UNL     1       7.993   5.976  19.166  0.00  0.00    +0.000 A 
ATOM     10  O   UNL     1       8.367   5.211  20.050  0.00  0.00    +0.000 OA
ATOM     11  N   UNL     1       8.477   7.255  19.033  0.00  0.00    +0.000 N 
ATOM     12  H   UNL     1       8.357   9.998  17.341  0.00  0.00    +0.000 HD
ATOM     13  H   UNL     1       9.337   9.644  18.727  0.00  0.00    +0.000 HD
ATOM     14  H   UNL     1       6.343   3.677  18.468  0.00  0.00    +0.000 HD
ATOM     15  H   UNL     1       9.166   7.540  19.709  0.00  0.00    +0.000 HD
ENDROOT
BRANCH   6  16
ATOM     16  S   UNL     1       4.477   3.541  16.287  0.00  0.00    +0.000 S 
BRANCH  16  17
ATOM     17  C   UNL     1       3.796   2.825  17.816  0.00  0.00    +0.000 C 
BRANCH  17  18
ATOM     18  C   UNL     1       2.386   3.367  18.081  0.00  0.00    +0.000 C 
ATOM     19  O   UNL     1       1.350   2.785  17.753  0.00  0.00    +0.000 OA
BRANCH  18  20
ATOM     20  C   UNL     1       2.238   4.679  18.785  0.00  0.00    +0.000 A 
ATOM     21  C   UNL     1       1.895   4.765  20.139  0.00  0.00    +0.000 A 
ATOM     22  C   UNL     1       1.792   6.015  20.753  0.00  0.00    +0.000 A 
ATOM     23  C   UNL     1       2.026   7.177  20.018  0.00  0.00    +0.000 A 
ATOM     24  F   UNL     1       1.932   8.368  20.618  0.00  0.00    +0.000 F 
ATOM     25  C   UNL     1       2.368   7.107  18.673  0.00  0.00    +0.000 A 
ATOM     26  C   UNL     1       2.474   5.862  18.057  0.00  0.00    +0.000 A 
ENDBRANCH  18  20
ENDBRANCH  17  18
ENDBRANCH  16  17
ENDBRANCH   6  16
TORSDOF 4
ENDMDL
