MODEL 1
REMARK VINA RESULT:      -8.9      0.000      0.000
REMARK  Name = 
REMARK  6 active torsions:
REMARK  status: ('A' for Active; 'I' for Inactive)
REMARK    1  A    between atoms: C_3  and  N_4
REMARK    2  A    between atoms: N_4  and  C_5
REMARK    3  A    between atoms: C_5  and  C_6
REMARK    4  A    between atoms: C_12  and  N_13
REMARK    5  A    between atoms: N_13  and  C_14
REMARK    6  A    between atoms: C_17  and  N_18
REMARK                            x       y       z     vdW  Elec       q    Type
REMARK                         _______ _______ _______ _____ _____    ______ ____
ROOT
ATOM      1  O   UNL     1       7.882   4.748  17.538  0.00  0.00    +0.000 OA
ATOM      2  C   UNL     1       6.705   5.024  17.535  0.00  0.00    +0.000 C 
ATOM      3  C   UNL     1       5.428   4.416  17.966  0.00  0.00    +0.000 C 
ATOM      4  C   UNL     1       4.707   5.504  17.549  0.00  0.00    +0.000 C 
ATOM      5  C   UNL     1       5.939   6.227  17.128  0.00  0.00    +0.000 C 
ATOM      6  O   UNL     1       6.303   7.276  16.657  0.00  0.00    +0.000 OA
ENDROOT
BRANCH   3   7
ATOM      7  N   UNL     1       5.174   3.227  18.484  0.00  0.00    +0.000 N 
ATOM      8  H   UNL     1       5.342   3.119  19.487  0.00  0.00    +0.000 HD
BRANCH   7   9
ATOM      9  C   UNL     1       3.891   2.581  18.191  0.00  0.00    +0.000 C 
BRANCH   9  10
ATOM     10  C   UNL     1       2.990   2.702  19.383  0.00  0.00    +0.000 A 
ATOM     11  C   UNL     1       1.622   2.956  19.249  0.00  0.00    +0.000 A 
ATOM     12  C   UNL     1       0.833   3.088  20.388  0.00  0.00    +0.000 A 
ATOM     13  C   UNL     1       1.441   2.966  21.626  0.00  0.00    +0.000 A 
ATOM     14  N   UNL     1       2.760   2.729  21.796  0.00  0.00    +0.000 NA
ATOM     15  C   UNL     1       3.502   2.608  20.673  0.00  0.00    +0.000 A 
ENDBRANCH   9  10
ENDBRANCH   7   9
ENDBRANCH   3   7
BRANCH   4  16
ATOM     16  N   UNL     1       3.428   5.816  17.519  0.00  0.00    +0.000 N 
ATOM     17  H   UNL     1       2.868   5.505  16.724  0.00  0.00    +0.000 HD
BRANCH  16  18
ATOM     18  C   UNL     1       2.709   6.736  18.310  0.00  0.00    +0.000 A 
ATOM     19  C   UNL     1       2.300   7.981  17.834  0.00  0.00    +0.000 A 
ATOM     20  C   UNL     1       1.652   8.898  18.660  0.00  0.00    +0.000 A 
ATOM     21  C   UNL     1       1.366   8.590  19.989  0.00  0.00    +0.000 A 
ATOM     22  C   UNL     1       1.794   7.350  20.478  0.00  0.00    +0.000 A 
ATOM     23  C   UNL     1       2.454   6.432  19.651  0.00  0.00    +0.000 A 
BRANCH  21  24
ATOM     24  N   UNL     1       0.620   9.432  20.811  0.00  0.00    +0.000 N 
ATOM     25  C   UNL     1       0.460  10.831  20.378  0.00  0.00    +0.000 C 
ATOM     26  C   UNL     1      -0.850  11.400  20.926  0.00  0.00    +0.000 C 
ATOM     27  S   UNL     1      -0.900  11.399  22.755  0.00  0.00    +0.000 S 
ATOM     28  C   UNL     1      -0.400   9.657  23.031  0.00  0.00    +0.000 C 
ATOM     29  C   UNL     1       0.866   9.279  22.255  0.00  0.00    +0.000 C 
ENDBRANCH  21  24
ENDBRANCH  16  18
ENDBRANCH   4  16
TORSDOF 6
ENDMDL
MODEL 2
REMARK VINA RESULT:      -8.8      0.813      1.467
REMARK  Name = 
REMARK  6 active torsions:
REMARK  status: ('A' for Active; 'I' for Inactive)
REMARK    1  A    between atoms: C_3  and  N_4
REMARK    2  A    between atoms: N_4  and  C_5
REMARK    3  A    between atoms: C_5  and  C_6
REMARK    4  A    between atoms: C_12  and  N_13
REMARK    5  A    between atoms: N_13  and  C_14
REMARK    6  A    between atoms: C_17  and  N_18
REMARK                            x       y       z     vdW  Elec       q    Type
REMARK                         _______ _______ _______ _____ _____    ______ ____
ROOT
ATOM      1  O   UNL     1       7.973   4.407  17.474  0.00  0.00    +0.000 OA
ATOM      2  C   UNL     1       6.807   4.722  17.484  0.00  0.00    +0.000 C 
ATOM      3  C   UNL     1       5.577   4.378  18.230  0.00  0.00    +0.000 C 
ATOM      4  C   UNL     1       4.828   5.275  17.514  0.00  0.00    +0.000 C 
ATOM      5  C   UNL     1       6.015   5.732  16.740  0.00  0.00    +0.000 C 
ATOM      6  O   UNL     1       6.338   6.517  15.884  0.00  0.00    +0.000 OA
ENDROOT
BRANCH   3   7
ATOM      7  N   UNL     1       5.367   3.474  19.170  0.00  0.00    +0.000 N 
ATOM      8  H   UNL     1       5.126   3.827  20.100  0.00  0.00    +0.000 HD
BRANCH   7   9
ATOM      9  C   UNL     1       4.467   2.350  18.891  0.00  0.00    +0.000 C 
BRANCH   9  10
ATOM     10  C   UNL     1       3.143   2.600  19.546  0.00  0.00    +0.000 A 
ATOM     11  C   UNL     1       3.027   2.782  20.927  0.00  0.00    +0.000 A 
ATOM     12  C   UNL     1       1.771   2.983  21.491  0.00  0.00    +0.000 A 
ATOM     13  C   UNL     1       0.668   2.993  20.653  0.00  0.00    +0.000 A 
ATOM     14  N   UNL     1       0.739   2.813  19.316  0.00  0.00    +0.000 NA
ATOM     15  C   UNL     1       1.971   2.617  18.796  0.00  0.00    +0.000 A 
ENDBRANCH   9  10
ENDBRANCH   7   9
ENDBRANCH   3   7
BRANCH   4  16
ATOM     16  N   UNL     1       3.557   5.619  17.495  0.00  0.00    +0.000 N 
ATOM     17  H   UNL     1       2.985   5.333  16.699  0.00  0.00    +0.000 HD
BRANCH  16  18
ATOM     18  C   UNL     1       2.864   6.545  18.303  0.00  0.00    +0.000 A 
ATOM     19  C   UNL     1       2.548   7.832  17.871  0.00  0.00    +0.000 A 
ATOM     20  C   UNL     1       1.925   8.749  18.716  0.00  0.00    +0.000 A 
ATOM     21  C   UNL     1       1.572   8.401  20.019  0.00  0.00    +0.000 A 
ATOM     22  C   UNL     1       1.907   7.116  20.464  0.00  0.00    +0.000 A 
ATOM     23  C   UNL     1       2.542   6.198  19.619  0.00  0.00    +0.000 A 
BRANCH  21  24
ATOM     24  N   UNL     1       0.847   9.249  20.853  0.00  0.00    +0.000 N 
ATOM     25  C   UNL     1       0.070   8.626  21.939  0.00  0.00    +0.000 C 
ATOM     26  C   UNL     1      -0.073   9.606  23.105  0.00  0.00    +0.000 C 
ATOM     27  S   UNL     1      -0.953  11.137  22.629  0.00  0.00    +0.000 S 
ATOM     28  C   UNL     1       0.017  11.541  21.127  0.00  0.00    +0.000 C 
ATOM     29  C   UNL     1       0.145  10.350  20.172  0.00  0.00    +0.000 C 
ENDBRANCH  21  24
ENDBRANCH  16  18
ENDBRANCH   4  16
TORSDOF 6
ENDMDL
MODEL 3
REMARK VINA RESULT:      -8.7      0.673      1.458
REMARK  Name = 
REMARK  6 active torsions:
REMARK  status: ('A' for Active; 'I' for Inactive)
REMARK    1  A    between atoms: C_3  and  N_4
REMARK    2  A    between atoms: N_4  and  C_5
REMARK    3  A    between atoms: C_5  and  C_6
REMARK    4  A    between atoms: C_12  and  N_13
REMARK    5  A    between atoms: N_13  and  C_14
REMARK    6  A    between atoms: C_17  and  N_18
REMARK                            x       y       z     vdW  Elec       q    Type
REMARK                         _______ _______ _______ _____ _____    ______ ____
ROOT
ATOM      1  O   UNL     1       7.785   4.559  17.067  0.00  0.00    +0.000 OA
ATOM      2  C   UNL     1       6.620   4.850  17.204  0.00  0.00    +0.000 C 
ATOM      3  C   UNL     1       5.441   4.363  17.952  0.00  0.00    +0.000 C 
ATOM      4  C   UNL     1       4.644   5.358  17.451  0.00  0.00    +0.000 C 
ATOM      5  C   UNL     1       5.778   5.962  16.698  0.00  0.00    +0.000 C 
ATOM      6  O   UNL     1       6.043   6.889  15.974  0.00  0.00    +0.000 OA
ENDROOT
BRANCH   3   7
ATOM      7  N   UNL     1       5.295   3.305  18.731  0.00  0.00    +0.000 N 
ATOM      8  H   UNL     1       5.337   3.469  19.739  0.00  0.00    +0.000 HD
BRANCH   7   9
ATOM      9  C   UNL     1       4.174   2.391  18.490  0.00  0.00    +0.000 C 
BRANCH   9  10
ATOM     10  C   UNL     1       3.143   2.579  19.561  0.00  0.00    +0.000 A 
ATOM     11  C   UNL     1       1.825   2.935  19.261  0.00  0.00    +0.000 A 
ATOM     12  C   UNL     1       0.911   3.125  20.293  0.00  0.00    +0.000 A 
ATOM     13  C   UNL     1       1.348   2.957  21.596  0.00  0.00    +0.000 A 
ATOM     14  N   UNL     1       2.614   2.622  21.927  0.00  0.00    +0.000 NA
ATOM     15  C   UNL     1       3.481   2.446  20.904  0.00  0.00    +0.000 A 
ENDBRANCH   9  10
ENDBRANCH   7   9
ENDBRANCH   3   7
BRANCH   4  16
ATOM     16  N   UNL     1       3.373   5.681  17.571  0.00  0.00    +0.000 N 
ATOM     17  H   UNL     1       2.701   5.268  16.923  0.00  0.00    +0.000 HD
BRANCH  16  18
ATOM     18  C   UNL     1       2.775   6.713  18.323  0.00  0.00    +0.000 A 
ATOM     19  C   UNL     1       2.421   6.561  19.663  0.00  0.00    +0.000 A 
ATOM     20  C   UNL     1       1.766   7.574  20.361  0.00  0.00    +0.000 A 
ATOM     21  C   UNL     1       1.464   8.790  19.748  0.00  0.00    +0.000 A 
ATOM     22  C   UNL     1       1.798   8.939  18.396  0.00  0.00    +0.000 A 
ATOM     23  C   UNL     1       2.447   7.917  17.692  0.00  0.00    +0.000 A 
BRANCH  21  24
ATOM     24  N   UNL     1       0.916   9.866  20.443  0.00  0.00    +0.000 N 
ATOM     25  C   UNL     1      -0.307   9.612  21.224  0.00  0.00    +0.000 C 
ATOM     26  C   UNL     1      -0.382  10.585  22.403  0.00  0.00    +0.000 C 
ATOM     27  S   UNL     1      -0.446  12.332  21.864  0.00  0.00    +0.000 S 
ATOM     28  C   UNL     1       0.979  12.303  20.712  0.00  0.00    +0.000 C 
ATOM     29  C   UNL     1       0.903  11.144  19.712  0.00  0.00    +0.000 C 
ENDBRANCH  21  24
ENDBRANCH  16  18
ENDBRANCH   4  16
TORSDOF 6
ENDMDL
MODEL 4
REMARK VINA RESULT:      -8.7      0.556      1.077
REMARK  Name = 
REMARK  6 active torsions:
REMARK  status: ('A' for Active; 'I' for Inactive)
REMARK    1  A    between atoms: C_3  and  N_4
REMARK    2  A    between atoms: N_4  and  C_5
REMARK    3  A    between atoms: C_5  and  C_6
REMARK    4  A    between atoms: C_12  and  N_13
REMARK    5  A    between atoms: N_13  and  C_14
REMARK    6  A    between atoms: C_17  and  N_18
REMARK                            x       y       z     vdW  Elec       q    Type
REMARK                         _______ _______ _______ _____ _____    ______ ____
ROOT
ATOM      1  O   UNL     1       8.349   4.489  18.117  0.00  0.00    +0.000 OA
ATOM      2  C   UNL     1       7.204   4.848  17.980  0.00  0.00    +0.000 C 
ATOM      3  C   UNL     1       5.864   4.482  18.488  0.00  0.00    +0.000 C 
ATOM      4  C   UNL     1       5.258   5.474  17.763  0.00  0.00    +0.000 C 
ATOM      5  C   UNL     1       6.563   5.959  17.234  0.00  0.00    +0.000 C 
ATOM      6  O   UNL     1       7.035   6.813  16.525  0.00  0.00    +0.000 OA
ENDROOT
BRANCH   3   7
ATOM      7  N   UNL     1       5.487   3.497  19.284  0.00  0.00    +0.000 N 
ATOM      8  H   UNL     1       5.220   3.754  20.237  0.00  0.00    +0.000 HD
BRANCH   7   9
ATOM      9  C   UNL     1       4.491   2.533  18.805  0.00  0.00    +0.000 C 
BRANCH   9  10
ATOM     10  C   UNL     1       3.214   2.719  19.566  0.00  0.00    +0.000 A 
ATOM     11  C   UNL     1       2.021   3.070  18.928  0.00  0.00    +0.000 A 
ATOM     12  C   UNL     1       0.867   3.259  19.683  0.00  0.00    +0.000 A 
ATOM     13  C   UNL     1       0.946   3.095  21.056  0.00  0.00    +0.000 A 
ATOM     14  N   UNL     1       2.081   2.764  21.709  0.00  0.00    +0.000 NA
ATOM     15  C   UNL     1       3.186   2.589  20.951  0.00  0.00    +0.000 A 
ENDBRANCH   9  10
ENDBRANCH   7   9
ENDBRANCH   3   7
BRANCH   4  16
ATOM     16  N   UNL     1       4.015   5.870  17.586  0.00  0.00    +0.000 N 
ATOM     17  H   UNL     1       3.582   5.725  16.672  0.00  0.00    +0.000 HD
BRANCH  16  18
ATOM     18  C   UNL     1       3.209   6.697  18.397  0.00  0.00    +0.000 A 
ATOM     19  C   UNL     1       2.859   6.359  19.703  0.00  0.00    +0.000 A 
ATOM     20  C   UNL     1       2.004   7.162  20.456  0.00  0.00    +0.000 A 
ATOM     21  C   UNL     1       1.488   8.349  19.936  0.00  0.00    +0.000 A 
ATOM     22  C   UNL     1       1.820   8.681  18.616  0.00  0.00    +0.000 A 
ATOM     23  C   UNL     1       2.671   7.869  17.856  0.00  0.00    +0.000 A 
BRANCH  21  24
ATOM     24  N   UNL     1       0.726   9.233  20.695  0.00  0.00    +0.000 N 
ATOM     25  C   UNL     1       0.611  10.618  20.206  0.00  0.00    +0.000 C 
ATOM     26  C   UNL     1      -0.709  11.230  20.679  0.00  0.00    +0.000 C 
ATOM     27  S   UNL     1      -0.834  11.296  22.504  0.00  0.00    +0.000 S 
ATOM     28  C   UNL     1      -0.379   9.557  22.861  0.00  0.00    +0.000 C 
ATOM     29  C   UNL     1       0.910   9.128  22.153  0.00  0.00    +0.000 C 
ENDBRANCH  21  24
ENDBRANCH  16  18
ENDBRANCH   4  16
TORSDOF 6
ENDMDL
MODEL 5
REMARK VINA RESULT:      -8.5      0.909      1.117
REMARK  Name = 
REMARK  6 active torsions:
REMARK  status: ('A' for Active; 'I' for Inactive)
REMARK    1  A    between atoms: C_3  and  N_4
REMARK    2  A    between atoms: N_4  and  C_5
REMARK    3  A    between atoms: C_5  and  C_6
REMARK    4  A    between atoms: C_12  and  N_13
REMARK    5  A    between atoms: N_13  and  C_14
REMARK    6  A    between atoms: C_17  and  N_18
REMARK                            x       y       z     vdW  Elec       q    Type
REMARK                         _______ _______ _______ _____ _____    ______ ____
ROOT
ATOM      1  O   UNL     1       7.926   4.919  17.519  0.00  0.00    +0.000 OA
ATOM      2  C   UNL     1       6.754   5.211  17.486  0.00  0.00    +0.000 C 
ATOM      3  C   UNL     1       5.448   4.569  17.751  0.00  0.00    +0.000 C 
ATOM      4  C   UNL     1       4.762   5.716  17.449  0.00  0.00    +0.000 C 
ATOM      5  C   UNL     1       6.022   6.472  17.208  0.00  0.00    +0.000 C 
ATOM      6  O   UNL     1       6.422   7.571  16.912  0.00  0.00    +0.000 OA
ENDROOT
BRANCH   3   7
ATOM      7  N   UNL     1       5.154   3.324  18.080  0.00  0.00    +0.000 N 
ATOM      8  H   UNL     1       5.840   2.609  17.826  0.00  0.00    +0.000 HD
BRANCH   7   9
ATOM      9  C   UNL     1       4.715   3.032  19.448  0.00  0.00    +0.000 C 
BRANCH   9  10
ATOM     10  C   UNL     1       3.218   2.995  19.491  0.00  0.00    +0.000 A 
ATOM     11  C   UNL     1       2.512   3.118  20.691  0.00  0.00    +0.000 A 
ATOM     12  C   UNL     1       1.122   3.049  20.682  0.00  0.00    +0.000 A 
ATOM     13  C   UNL     1       0.482   2.854  19.469  0.00  0.00    +0.000 A 
ATOM     14  N   UNL     1       1.129   2.723  18.290  0.00  0.00    +0.000 NA
ATOM     15  C   UNL     1       2.478   2.791  18.330  0.00  0.00    +0.000 A 
ENDBRANCH   9  10
ENDBRANCH   7   9
ENDBRANCH   3   7
BRANCH   4  16
ATOM     16  N   UNL     1       3.490   6.050  17.387  0.00  0.00    +0.000 N 
ATOM     17  H   UNL     1       2.958   5.797  16.553  0.00  0.00    +0.000 HD
BRANCH  16  18
ATOM     18  C   UNL     1       2.750   6.930  18.205  0.00  0.00    +0.000 A 
ATOM     19  C   UNL     1       2.304   8.174  17.762  0.00  0.00    +0.000 A 
ATOM     20  C   UNL     1       1.638   9.052  18.615  0.00  0.00    +0.000 A 
ATOM     21  C   UNL     1       1.369   8.704  19.938  0.00  0.00    +0.000 A 
ATOM     22  C   UNL     1       1.834   7.464  20.393  0.00  0.00    +0.000 A 
ATOM     23  C   UNL     1       2.513   6.586  19.540  0.00  0.00    +0.000 A 
BRANCH  21  24
ATOM     24  N   UNL     1       0.605   9.505  20.785  0.00  0.00    +0.000 N 
ATOM     25  C   UNL     1       0.427  10.916  20.401  0.00  0.00    +0.000 C 
ATOM     26  C   UNL     1      -0.894  11.445  20.961  0.00  0.00    +0.000 C 
ATOM     27  S   UNL     1      -0.956  11.378  22.788  0.00  0.00    +0.000 S 
ATOM     28  C   UNL     1      -0.431   9.635  23.004  0.00  0.00    +0.000 C 
ATOM     29  C   UNL     1       0.845   9.304  22.224  0.00  0.00    +0.000 C 
ENDBRANCH  21  24
ENDBRANCH  16  18
ENDBRANCH   4  16
TORSDOF 6
ENDMDL
MODEL 6
REMARK VINA RESULT:      -8.2      0.619      1.130
REMARK  Name = 
REMARK  6 active torsions:
REMARK  status: ('A' for Active; 'I' for Inactive)
REMARK    1  A    between atoms: C_3  and  N_4
REMARK    2  A    between atoms: N_4  and  C_5
REMARK    3  A    between atoms: C_5  and  C_6
REMARK    4  A    between atoms: C_12  and  N_13
REMARK    5  A    between atoms: N_13  and  C_14
REMARK    6  A    between atoms: C_17  and  N_18
REMARK                            x       y       z     vdW  Elec       q    Type
REMARK                         _______ _______ _______ _____ _____    ______ ____
ROOT
ATOM      1  O   UNL     1       7.579   4.710  17.108  0.00  0.00    +0.000 OA
ATOM      2  C   UNL     1       6.410   4.996  17.220  0.00  0.00    +0.000 C 
ATOM      3  C   UNL     1       5.142   4.332  17.592  0.00  0.00    +0.000 C 
ATOM      4  C   UNL     1       4.426   5.489  17.431  0.00  0.00    +0.000 C 
ATOM      5  C   UNL     1       5.652   6.265  17.094  0.00  0.00    +0.000 C 
ATOM      6  O   UNL     1       6.016   7.380  16.816  0.00  0.00    +0.000 OA
ENDROOT
BRANCH   3   7
ATOM      7  N   UNL     1       4.887   3.068  17.883  0.00  0.00    +0.000 N 
ATOM      8  H   UNL     1       5.250   2.721  18.774  0.00  0.00    +0.000 HD
BRANCH   7   9
ATOM      9  C   UNL     1       3.514   2.569  17.754  0.00  0.00    +0.000 C 
BRANCH   9  10
ATOM     10  C   UNL     1       2.820   2.681  19.078  0.00  0.00    +0.000 A 
ATOM     11  C   UNL     1       1.469   3.029  19.174  0.00  0.00    +0.000 A 
ATOM     12  C   UNL     1       0.877   3.147  20.427  0.00  0.00    +0.000 A 
ATOM     13  C   UNL     1       1.659   2.918  21.547  0.00  0.00    +0.000 A 
ATOM     14  N   UNL     1       2.968   2.589  21.496  0.00  0.00    +0.000 NA
ATOM     15  C   UNL     1       3.517   2.483  20.265  0.00  0.00    +0.000 A 
ENDBRANCH   9  10
ENDBRANCH   7   9
ENDBRANCH   3   7
BRANCH   4  16
ATOM     16  N   UNL     1       3.155   5.817  17.528  0.00  0.00    +0.000 N 
ATOM     17  H   UNL     1       2.490   5.393  16.880  0.00  0.00    +0.000 HD
BRANCH  16  18
ATOM     18  C   UNL     1       2.549   6.865  18.253  0.00  0.00    +0.000 A 
ATOM     19  C   UNL     1       2.291   8.116  17.693  0.00  0.00    +0.000 A 
ATOM     20  C   UNL     1       1.757   9.155  18.454  0.00  0.00    +0.000 A 
ATOM     21  C   UNL     1       1.437   8.971  19.798  0.00  0.00    +0.000 A 
ATOM     22  C   UNL     1       1.715   7.723  20.370  0.00  0.00    +0.000 A 
ATOM     23  C   UNL     1       2.261   6.682  19.609  0.00  0.00    +0.000 A 
BRANCH  21  24
ATOM     24  N   UNL     1       0.796   9.947  20.558  0.00  0.00    +0.000 N 
ATOM     25  C   UNL     1      -0.279   9.502  21.461  0.00  0.00    +0.000 C 
ATOM     26  C   UNL     1      -0.389  10.457  22.651  0.00  0.00    +0.000 C 
ATOM     27  S   UNL     1      -0.795  12.167  22.140  0.00  0.00    +0.000 S 
ATOM     28  C   UNL     1       0.486  12.364  20.844  0.00  0.00    +0.000 C 
ATOM     29  C   UNL     1       0.497  11.201  19.845  0.00  0.00    +0.000 C 
ENDBRANCH  21  24
ENDBRANCH  16  18
ENDBRANCH   4  16
TORSDOF 6
ENDMDL
MODEL 7
REMARK VINA RESULT:      -8.1      1.294      1.945
REMARK  Name = 
REMARK  6 active torsions:
REMARK  status: ('A' for Active; 'I' for Inactive)
REMARK    1  A    between atoms: C_3  and  N_4
REMARK    2  A    between atoms: N_4  and  C_5
REMARK    3  A    between atoms: C_5  and  C_6
REMARK    4  A    between atoms: C_12  and  N_13
REMARK    5  A    between atoms: N_13  and  C_14
REMARK    6  A    between atoms: C_17  and  N_18
REMARK                            x       y       z     vdW  Elec       q    Type
REMARK                         _______ _______ _______ _____ _____    ______ ____
ROOT
ATOM      1  O   UNL     1       7.413   5.148  16.897  0.00  0.00    +0.000 OA
ATOM      2  C   UNL     1       6.255   5.407  17.128  0.00  0.00    +0.000 C 
ATOM      3  C   UNL     1       5.251   5.135  18.178  0.00  0.00    +0.000 C 
ATOM      4  C   UNL     1       4.293   5.867  17.527  0.00  0.00    +0.000 C 
ATOM      5  C   UNL     1       5.240   6.245  16.442  0.00  0.00    +0.000 C 
ATOM      6  O   UNL     1       5.303   6.893  15.427  0.00  0.00    +0.000 OA
ENDROOT
BRANCH   3   7
ATOM      7  N   UNL     1       5.326   4.388  19.266  0.00  0.00    +0.000 N 
ATOM      8  H   UNL     1       4.977   4.804  20.132  0.00  0.00    +0.000 HD
BRANCH   7   9
ATOM      9  C   UNL     1       4.829   3.009  19.220  0.00  0.00    +0.000 C 
BRANCH   9  10
ATOM     10  C   UNL     1       3.333   3.018  19.314  0.00  0.00    +0.000 A 
ATOM     11  C   UNL     1       2.670   3.457  20.464  0.00  0.00    +0.000 A 
ATOM     12  C   UNL     1       1.280   3.419  20.513  0.00  0.00    +0.000 A 
ATOM     13  C   UNL     1       0.597   2.938  19.408  0.00  0.00    +0.000 A 
ATOM     14  N   UNL     1       1.201   2.498  18.283  0.00  0.00    +0.000 NA
ATOM     15  C   UNL     1       2.552   2.544  18.265  0.00  0.00    +0.000 A 
ENDBRANCH   9  10
ENDBRANCH   7   9
ENDBRANCH   3   7
BRANCH   4  16
ATOM     16  N   UNL     1       3.025   6.146  17.749  0.00  0.00    +0.000 N 
ATOM     17  H   UNL     1       2.315   5.675  17.186  0.00  0.00    +0.000 HD
BRANCH  16  18
ATOM     18  C   UNL     1       2.453   7.191  18.505  0.00  0.00    +0.000 A 
ATOM     19  C   UNL     1       2.205   7.083  19.873  0.00  0.00    +0.000 A 
ATOM     20  C   UNL     1       1.574   8.105  20.579  0.00  0.00    +0.000 A 
ATOM     21  C   UNL     1       1.190   9.286  19.945  0.00  0.00    +0.000 A 
ATOM     22  C   UNL     1       1.417   9.390  18.567  0.00  0.00    +0.000 A 
ATOM     23  C   UNL     1       2.041   8.359  17.855  0.00  0.00    +0.000 A 
BRANCH  21  24
ATOM     24  N   UNL     1       0.663  10.373  20.638  0.00  0.00    +0.000 N 
ATOM     25  C   UNL     1      -0.570  10.147  21.414  0.00  0.00    +0.000 C 
ATOM     26  C   UNL     1      -0.629  11.120  22.592  0.00  0.00    +0.000 C 
ATOM     27  S   UNL     1      -0.651  12.869  22.055  0.00  0.00    +0.000 S 
ATOM     28  C   UNL     1       0.778  12.808  20.909  0.00  0.00    +0.000 C 
ATOM     29  C   UNL     1       0.682  11.652  19.908  0.00  0.00    +0.000 C 
ENDBRANCH  21  24
ENDBRANCH  16  18
ENDBRANCH   4  16
TORSDOF 6
ENDMDL
MODEL 8
REMARK VINA RESULT:      -8.0      1.089      1.177
REMARK  Name = 
REMARK  6 active torsions:
REMARK  status: ('A' for Active; 'I' for Inactive)
REMARK    1  A    between atoms: C_3  and  N_4
REMARK    2  A    between atoms: N_4  and  C_5
REMARK    3  A    between atoms: C_5  and  C_6
REMARK    4  A    between atoms: C_12  and  N_13
REMARK    5  A    between atoms: N_13  and  C_14
REMARK    6  A    between atoms: C_17  and  N_18
REMARK                            x       y       z     vdW  Elec       q    Type
REMARK                         _______ _______ _______ _____ _____    ______ ____
ROOT
ATOM      1  O   UNL     1       8.090   5.138  18.289  0.00  0.00    +0.000 OA
ATOM      2  C   UNL     1       6.906   5.343  18.159  0.00  0.00    +0.000 C 
ATOM      3  C   UNL     1       5.627   4.683  18.498  0.00  0.00    +0.000 C 
ATOM      4  C   UNL     1       4.893   5.704  17.955  0.00  0.00    +0.000 C 
ATOM      5  C   UNL     1       6.119   6.478  17.616  0.00  0.00    +0.000 C 
ATOM      6  O   UNL     1       6.470   7.523  17.127  0.00  0.00    +0.000 OA
ENDROOT
BRANCH   3   7
ATOM      7  N   UNL     1       5.388   3.507  19.052  0.00  0.00    +0.000 N 
ATOM      8  H   UNL     1       5.393   3.473  20.074  0.00  0.00    +0.000 HD
BRANCH   7   9
ATOM      9  C   UNL     1       4.231   2.728  18.602  0.00  0.00    +0.000 C 
BRANCH   9  10
ATOM     10  C   UNL     1       3.154   2.792  19.642  0.00  0.00    +0.000 A 
ATOM     11  C   UNL     1       1.842   3.152  19.323  0.00  0.00    +0.000 A 
ATOM     12  C   UNL     1       0.884   3.225  20.329  0.00  0.00    +0.000 A 
ATOM     13  C   UNL     1       1.273   2.938  21.628  0.00  0.00    +0.000 A 
ATOM     14  N   UNL     1       2.531   2.595  21.977  0.00  0.00    +0.000 NA
ATOM     15  C   UNL     1       3.441   2.534  20.979  0.00  0.00    +0.000 A 
ENDBRANCH   9  10
ENDBRANCH   7   9
ENDBRANCH   3   7
BRANCH   4  16
ATOM     16  N   UNL     1       3.608   5.938  17.786  0.00  0.00    +0.000 N 
ATOM     17  H   UNL     1       3.091   5.365  17.118  0.00  0.00    +0.000 HD
BRANCH  16  18
ATOM     18  C   UNL     1       2.830   7.034  18.215  0.00  0.00    +0.000 A 
ATOM     19  C   UNL     1       2.646   8.177  17.438  0.00  0.00    +0.000 A 
ATOM     20  C   UNL     1       1.930   9.272  17.917  0.00  0.00    +0.000 A 
ATOM     21  C   UNL     1       1.349   9.253  19.184  0.00  0.00    +0.000 A 
ATOM     22  C   UNL     1       1.549   8.116  19.976  0.00  0.00    +0.000 A 
ATOM     23  C   UNL     1       2.277   7.019  19.500  0.00  0.00    +0.000 A 
BRANCH  21  24
ATOM     24  N   UNL     1       0.531  10.280  19.651  0.00  0.00    +0.000 N 
ATOM     25  C   UNL     1      -0.451  10.843  18.707  0.00  0.00    +0.000 C 
ATOM     26  C   UNL     1      -1.654  11.393  19.475  0.00  0.00    +0.000 C 
ATOM     27  S   UNL     1      -1.194  12.735  20.630  0.00  0.00    +0.000 S 
ATOM     28  C   UNL     1       0.199  11.890  21.471  0.00  0.00    +0.000 C 
ATOM     29  C   UNL     1       1.205  11.290  20.484  0.00  0.00    +0.000 C 
ENDBRANCH  21  24
ENDBRANCH  16  18
ENDBRANCH   4  16
TORSDOF 6
ENDMDL
MODEL 9
REMARK VINA RESULT:      -8.0      0.952      1.501
REMARK  Name = 
REMARK  6 active torsions:
REMARK  status: ('A' for Active; 'I' for Inactive)
REMARK    1  A    between atoms: C_3  and  N_4
REMARK    2  A    between atoms: N_4  and  C_5
REMARK    3  A    between atoms: C_5  and  C_6
REMARK    4  A    between atoms: C_12  and  N_13
REMARK    5  A    between atoms: N_13  and  C_14
REMARK    6  A    between atoms: C_17  and  N_18
REMARK                            x       y       z     vdW  Elec       q    Type
REMARK                         _______ _______ _______ _____ _____    ______ ____
ROOT
ATOM      1  O   UNL     1       7.894   4.429  17.559  0.00  0.00    +0.000 OA
ATOM      2  C   UNL     1       6.851   5.021  17.415  0.00  0.00    +0.000 C 
ATOM      3  C   UNL     1       5.410   4.709  17.303  0.00  0.00    +0.000 C 
ATOM      4  C   UNL     1       5.076   6.032  17.190  0.00  0.00    +0.000 C 
ATOM      5  C   UNL     1       6.494   6.460  17.347  0.00  0.00    +0.000 C 
ATOM      6  O   UNL     1       7.181   7.450  17.399  0.00  0.00    +0.000 OA
ENDROOT
BRANCH   3   7
ATOM      7  N   UNL     1       4.784   3.545  17.262  0.00  0.00    +0.000 N 
ATOM      8  H   UNL     1       5.075   2.894  16.530  0.00  0.00    +0.000 HD
BRANCH   7   9
ATOM      9  C   UNL     1       4.642   2.768  18.498  0.00  0.00    +0.000 C 
BRANCH   9  10
ATOM     10  C   UNL     1       3.389   3.185  19.205  0.00  0.00    +0.000 A 
ATOM     11  C   UNL     1       3.336   3.317  20.595  0.00  0.00    +0.000 A 
ATOM     12  C   UNL     1       2.141   3.680  21.208  0.00  0.00    +0.000 A 
ATOM     13  C   UNL     1       1.032   3.897  20.407  0.00  0.00    +0.000 A 
ATOM     14  N   UNL     1       1.041   3.772  19.062  0.00  0.00    +0.000 NA
ATOM     15  C   UNL     1       2.215   3.416  18.494  0.00  0.00    +0.000 A 
ENDBRANCH   9  10
ENDBRANCH   7   9
ENDBRANCH   3   7
BRANCH   4  16
ATOM     16  N   UNL     1       3.952   6.696  17.013  0.00  0.00    +0.000 N 
ATOM     17  H   UNL     1       3.674   6.941  16.062  0.00  0.00    +0.000 HD
BRANCH  16  18
ATOM     18  C   UNL     1       3.139   7.356  17.959  0.00  0.00    +0.000 A 
ATOM     19  C   UNL     1       2.881   6.833  19.225  0.00  0.00    +0.000 A 
ATOM     20  C   UNL     1       2.017   7.473  20.112  0.00  0.00    +0.000 A 
ATOM     21  C   UNL     1       1.399   8.676  19.772  0.00  0.00    +0.000 A 
ATOM     22  C   UNL     1       1.639   9.194  18.493  0.00  0.00    +0.000 A 
ATOM     23  C   UNL     1       2.499   8.546  17.598  0.00  0.00    +0.000 A 
BRANCH  21  24
ATOM     24  N   UNL     1       0.622   9.402  20.673  0.00  0.00    +0.000 N 
ATOM     25  C   UNL     1       0.422  10.833  20.390  0.00  0.00    +0.000 C 
ATOM     26  C   UNL     1      -0.909  11.300  20.984  0.00  0.00    +0.000 C 
ATOM     27  S   UNL     1      -0.970  11.102  22.802  0.00  0.00    +0.000 S 
ATOM     28  C   UNL     1      -0.418   9.356  22.894  0.00  0.00    +0.000 C 
ATOM     29  C   UNL     1       0.864   9.102  22.094  0.00  0.00    +0.000 C 
ENDBRANCH  21  24
ENDBRANCH  16  18
ENDBRANCH   4  16
TORSDOF 6
ENDMDL
