MODEL 1
REMARK VINA RESULT:      -7.8      0.000      0.000
REMARK  Name = 
REMARK  7 active torsions:
REMARK  status: ('A' for Active; 'I' for Inactive)
REMARK    1  A    between atoms: C_1  and  O_2
REMARK    2  A    between atoms: O_2  and  C_3
REMARK    3  A    between atoms: C_6  and  C_7
REMARK    4  A    between atoms: C_11  and  C_12
REMARK    5  A    between atoms: C_16  and  N_17
REMARK    6  A    between atoms: N_17  and  C_18
REMARK    7  A    between atoms: N_17  and  C_19
REMARK                            x       y       z     vdW  Elec       q    Type
REMARK                         _______ _______ _______ _____ _____    ______ ____
ROOT
ATOM      1  C   UNL     1       3.161   6.785  18.304  0.00  0.00    +0.000 A 
ATOM      2  N   UNL     1       2.655   7.977  18.042  0.00  0.00    +0.000 NA
ATOM      3  C   UNL     1       1.890   8.318  19.119  0.00  0.00    +0.000 A 
ATOM      4  C   UNL     1       1.195   9.513  19.360  0.00  0.00    +0.000 A 
ATOM      5  C   UNL     1       0.518   9.667  20.576  0.00  0.00    +0.000 A 
ATOM      6  C   UNL     1       0.511   8.596  21.494  0.00  0.00    +0.000 A 
ATOM      7  C   UNL     1       1.175   7.383  21.256  0.00  0.00    +0.000 A 
ATOM      8  C   UNL     1       1.876   7.294  20.056  0.00  0.00    +0.000 A 
ATOM      9  N   UNL     1       2.665   6.315  19.501  0.00  0.00    +0.000 N 
ATOM     10  H   UNL     1       2.853   5.409  19.902  0.00  0.00    +0.000 HD
ENDROOT
BRANCH   5  11
ATOM     11  C   UNL     1      -0.163  10.914  20.950  0.00  0.00    +0.000 A 
ATOM     12  N   UNL     1       0.029  11.559  22.087  0.00  0.00    +0.000 NA
ATOM     13  C   UNL     1      -0.783  12.659  22.054  0.00  0.00    +0.000 A 
ATOM     14  C   UNL     1      -0.964  13.661  23.022  0.00  0.00    +0.000 A 
ATOM     15  C   UNL     1      -1.883  14.705  22.825  0.00  0.00    +0.000 A 
ATOM     16  C   UNL     1      -2.595  14.695  21.606  0.00  0.00    +0.000 A 
ATOM     17  C   UNL     1      -2.419  13.720  20.600  0.00  0.00    +0.000 A 
ATOM     18  C   UNL     1      -1.502  12.709  20.871  0.00  0.00    +0.000 A 
ATOM     19  N   UNL     1      -1.078  11.602  20.177  0.00  0.00    +0.000 N 
ATOM     20  H   UNL     1      -1.392  11.333  19.256  0.00  0.00    +0.000 HD
BRANCH  15  21
ATOM     21  N   UNL     1      -2.147  15.659  23.808  0.00  0.00    +0.000 N 
ATOM     22  C   UNL     1      -2.509  15.239  25.161  0.00  0.00    +0.000 C 
ATOM     23  C   UNL     1      -2.606  17.002  23.453  0.00  0.00    +0.000 C 
ENDBRANCH  15  21
ENDBRANCH   5  11
BRANCH   1  27
ATOM     24  C   UNL     1       5.744   4.549  15.736  0.00  0.00    +0.000 A 
ATOM     25  C   UNL     1       5.586   5.921  15.521  0.00  0.00    +0.000 A 
ATOM     26  C   UNL     1       4.772   6.690  16.366  0.00  0.00    +0.000 A 
ATOM     27  C   UNL     1       4.087   6.080  17.422  0.00  0.00    +0.000 A 
ATOM     28  C   UNL     1       4.231   4.697  17.606  0.00  0.00    +0.000 A 
ATOM     29  C   UNL     1       5.049   3.934  16.773  0.00  0.00    +0.000 A 
BRANCH  24  31
ATOM     30  C   UNL     1       6.137   3.918  13.499  0.00  0.00    +0.000 C 
ATOM     31  O   UNL     1       6.566   3.894  14.858  0.00  0.00    +0.000 OA
ENDBRANCH  24  31
ENDBRANCH   1  27
TORSDOF 4
ENDMDL
MODEL 2
REMARK VINA RESULT:      -7.7      0.299      1.115
REMARK  Name = 
REMARK  7 active torsions:
REMARK  status: ('A' for Active; 'I' for Inactive)
REMARK    1  A    between atoms: C_1  and  O_2
REMARK    2  A    between atoms: O_2  and  C_3
REMARK    3  A    between atoms: C_6  and  C_7
REMARK    4  A    between atoms: C_11  and  C_12
REMARK    5  A    between atoms: C_16  and  N_17
REMARK    6  A    between atoms: N_17  and  C_18
REMARK    7  A    between atoms: N_17  and  C_19
REMARK                            x       y       z     vdW  Elec       q    Type
REMARK                         _______ _______ _______ _____ _____    ______ ____
ROOT
ATOM      1  C   UNL     1       3.040   6.772  18.333  0.00  0.00    +0.000 A 
ATOM      2  N   UNL     1       2.549   7.966  18.052  0.00  0.00    +0.000 NA
ATOM      3  C   UNL     1       1.830   8.355  19.144  0.00  0.00    +0.000 A 
ATOM      4  C   UNL     1       1.167   9.570  19.373  0.00  0.00    +0.000 A 
ATOM      5  C   UNL     1       0.537   9.776  20.606  0.00  0.00    +0.000 A 
ATOM      6  C   UNL     1       0.542   8.733  21.556  0.00  0.00    +0.000 A 
ATOM      7  C   UNL     1       1.173   7.500  21.332  0.00  0.00    +0.000 A 
ATOM      8  C   UNL     1       1.828   7.360  20.112  0.00  0.00    +0.000 A 
ATOM      9  N   UNL     1       2.578   6.349  19.560  0.00  0.00    +0.000 N 
ATOM     10  H   UNL     1       2.762   5.451  19.981  0.00  0.00    +0.000 HD
ENDROOT
BRANCH   5  11
ATOM     11  C   UNL     1      -0.105  11.047  20.966  0.00  0.00    +0.000 A 
ATOM     12  N   UNL     1      -0.158  11.538  22.191  0.00  0.00    +0.000 NA
ATOM     13  C   UNL     1      -0.834  12.724  22.108  0.00  0.00    +0.000 A 
ATOM     14  C   UNL     1      -1.171  13.630  23.127  0.00  0.00    +0.000 A 
ATOM     15  C   UNL     1      -1.912  14.791  22.852  0.00  0.00    +0.000 A 
ATOM     16  C   UNL     1      -2.282  14.998  21.505  0.00  0.00    +0.000 A 
ATOM     17  C   UNL     1      -1.937  14.123  20.452  0.00  0.00    +0.000 A 
ATOM     18  C   UNL     1      -1.215  12.987  20.802  0.00  0.00    +0.000 A 
ATOM     19  N   UNL     1      -0.724  11.918  20.091  0.00  0.00    +0.000 N 
ATOM     20  H   UNL     1      -0.811  11.790  19.093  0.00  0.00    +0.000 HD
BRANCH  15  21
ATOM     21  N   UNL     1      -2.337  15.658  23.859  0.00  0.00    +0.000 N 
ATOM     22  C   UNL     1      -1.921  17.060  23.846  0.00  0.00    +0.000 C 
ATOM     23  C   UNL     1      -2.711  15.155  25.181  0.00  0.00    +0.000 C 
ENDBRANCH  15  21
ENDBRANCH   5  11
BRANCH   1  27
ATOM     24  C   UNL     1       5.766   4.724  15.755  0.00  0.00    +0.000 A 
ATOM     25  C   UNL     1       4.877   3.983  16.539  0.00  0.00    +0.000 A 
ATOM     26  C   UNL     1       3.948   4.625  17.371  0.00  0.00    +0.000 A 
ATOM     27  C   UNL     1       3.920   6.022  17.441  0.00  0.00    +0.000 A 
ATOM     28  C   UNL     1       4.839   6.750  16.672  0.00  0.00    +0.000 A 
ATOM     29  C   UNL     1       5.755   6.113  15.836  0.00  0.00    +0.000 A 
BRANCH  24  31
ATOM     30  C   UNL     1       6.287   3.948  13.591  0.00  0.00    +0.000 C 
ATOM     31  O   UNL     1       6.626   3.999  14.974  0.00  0.00    +0.000 OA
ENDBRANCH  24  31
ENDBRANCH   1  27
TORSDOF 4
ENDMDL
MODEL 3
REMARK VINA RESULT:      -7.7      3.816     11.336
REMARK  Name = 
REMARK  7 active torsions:
REMARK  status: ('A' for Active; 'I' for Inactive)
REMARK    1  A    between atoms: C_1  and  O_2
REMARK    2  A    between atoms: O_2  and  C_3
REMARK    3  A    between atoms: C_6  and  C_7
REMARK    4  A    between atoms: C_11  and  C_12
REMARK    5  A    between atoms: C_16  and  N_17
REMARK    6  A    between atoms: N_17  and  C_18
REMARK    7  A    between atoms: N_17  and  C_19
REMARK                            x       y       z     vdW  Elec       q    Type
REMARK                         _______ _______ _______ _____ _____    ______ ____
ROOT
ATOM      1  C   UNL     1      -1.303  12.065  21.753  0.00  0.00    +0.000 A 
ATOM      2  N   UNL     1      -0.596  10.998  22.081  0.00  0.00    +0.000 NA
ATOM      3  C   UNL     1      -0.135  10.466  20.913  0.00  0.00    +0.000 A 
ATOM      4  C   UNL     1       0.717   9.366  20.725  0.00  0.00    +0.000 A 
ATOM      5  C   UNL     1       1.112   9.031  19.424  0.00  0.00    +0.000 A 
ATOM      6  C   UNL     1       0.596   9.776  18.342  0.00  0.00    +0.000 A 
ATOM      7  C   UNL     1      -0.281  10.859  18.511  0.00  0.00    +0.000 A 
ATOM      8  C   UNL     1      -0.606  11.185  19.825  0.00  0.00    +0.000 A 
ATOM      9  N   UNL     1      -1.373  12.180  20.382  0.00  0.00    +0.000 N 
ATOM     10  H   UNL     1      -1.897  12.877  19.875  0.00  0.00    +0.000 HD
ENDROOT
BRANCH   5  11
ATOM     11  C   UNL     1       2.067   7.953  19.139  0.00  0.00    +0.000 A 
ATOM     12  N   UNL     1       2.826   7.892  18.059  0.00  0.00    +0.000 NA
ATOM     13  C   UNL     1       3.566   6.747  18.166  0.00  0.00    +0.000 A 
ATOM     14  C   UNL     1       4.514   6.214  17.278  0.00  0.00    +0.000 A 
ATOM     15  C   UNL     1       5.153   4.991  17.542  0.00  0.00    +0.000 A 
ATOM     16  C   UNL     1       4.799   4.344  18.747  0.00  0.00    +0.000 A 
ATOM     17  C   UNL     1       3.871   4.864  19.676  0.00  0.00    +0.000 A 
ATOM     18  C   UNL     1       3.269   6.073  19.339  0.00  0.00    +0.000 A 
ATOM     19  N   UNL     1       2.329   6.866  19.951  0.00  0.00    +0.000 N 
ATOM     20  H   UNL     1       1.896   6.679  20.843  0.00  0.00    +0.000 HD
BRANCH  15  21
ATOM     21  N   UNL     1       6.028   4.396  16.634  0.00  0.00    +0.000 N 
ATOM     22  C   UNL     1       7.473   4.518  16.818  0.00  0.00    +0.000 C 
ATOM     23  C   UNL     1       5.618   4.129  15.255  0.00  0.00    +0.000 C 
ENDBRANCH  15  21
ENDBRANCH   5  11
BRANCH   1  27
ATOM     24  C   UNL     1      -3.105  14.843  24.456  0.00  0.00    +0.000 A 
ATOM     25  C   UNL     1      -3.598  13.537  24.388  0.00  0.00    +0.000 A 
ATOM     26  C   UNL     1      -3.008  12.591  23.536  0.00  0.00    +0.000 A 
ATOM     27  C   UNL     1      -1.930  12.959  22.723  0.00  0.00    +0.000 A 
ATOM     28  C   UNL     1      -1.468  14.282  22.780  0.00  0.00    +0.000 A 
ATOM     29  C   UNL     1      -2.046  15.218  23.635  0.00  0.00    +0.000 A 
BRANCH  24  31
ATOM     30  C   UNL     1      -4.528  16.706  24.708  0.00  0.00    +0.000 C 
ATOM     31  O   UNL     1      -3.749  15.683  25.324  0.00  0.00    +0.000 OA
ENDBRANCH  24  31
ENDBRANCH   1  27
TORSDOF 4
ENDMDL
MODEL 4
REMARK VINA RESULT:      -7.7      1.202      1.337
REMARK  Name = 
REMARK  7 active torsions:
REMARK  status: ('A' for Active; 'I' for Inactive)
REMARK    1  A    between atoms: C_1  and  O_2
REMARK    2  A    between atoms: O_2  and  C_3
REMARK    3  A    between atoms: C_6  and  C_7
REMARK    4  A    between atoms: C_11  and  C_12
REMARK    5  A    between atoms: C_16  and  N_17
REMARK    6  A    between atoms: N_17  and  C_18
REMARK    7  A    between atoms: N_17  and  C_19
REMARK                            x       y       z     vdW  Elec       q    Type
REMARK                         _______ _______ _______ _____ _____    ______ ____
ROOT
ATOM      1  C   UNL     1       2.953   6.976  18.414  0.00  0.00    +0.000 A 
ATOM      2  N   UNL     1       2.398   8.088  17.967  0.00  0.00    +0.000 NA
ATOM      3  C   UNL     1       1.724   8.634  19.019  0.00  0.00    +0.000 A 
ATOM      4  C   UNL     1       1.025   9.849  19.078  0.00  0.00    +0.000 A 
ATOM      5  C   UNL     1       0.453  10.242  20.295  0.00  0.00    +0.000 A 
ATOM      6  C   UNL     1       0.553   9.377  21.405  0.00  0.00    +0.000 A 
ATOM      7  C   UNL     1       1.221   8.145  21.355  0.00  0.00    +0.000 A 
ATOM      8  C   UNL     1       1.815   7.819  20.138  0.00  0.00    +0.000 A 
ATOM      9  N   UNL     1       2.576   6.754  19.721  0.00  0.00    +0.000 N 
ATOM     10  H   UNL     1       2.819   5.947  20.276  0.00  0.00    +0.000 HD
ENDROOT
BRANCH   5  11
ATOM     11  C   UNL     1      -0.221  11.535  20.473  0.00  0.00    +0.000 A 
ATOM     12  N   UNL     1      -1.240  11.741  21.288  0.00  0.00    +0.000 NA
ATOM     13  C   UNL     1      -1.578  13.061  21.164  0.00  0.00    +0.000 A 
ATOM     14  C   UNL     1      -2.600  13.781  21.803  0.00  0.00    +0.000 A 
ATOM     15  C   UNL     1      -2.823  15.138  21.516  0.00  0.00    +0.000 A 
ATOM     16  C   UNL     1      -1.958  15.731  20.570  0.00  0.00    +0.000 A 
ATOM     17  C   UNL     1      -0.903  15.045  19.930  0.00  0.00    +0.000 A 
ATOM     18  C   UNL     1      -0.753  13.700  20.253  0.00  0.00    +0.000 A 
ATOM     19  N   UNL     1       0.114  12.717  19.841  0.00  0.00    +0.000 N 
ATOM     20  H   UNL     1       0.865  12.840  19.179  0.00  0.00    +0.000 HD
BRANCH  15  21
ATOM     21  N   UNL     1      -3.888  15.850  22.067  0.00  0.00    +0.000 N 
ATOM     22  C   UNL     1      -4.723  15.240  23.101  0.00  0.00    +0.000 C 
ATOM     23  C   UNL     1      -4.543  16.926  21.323  0.00  0.00    +0.000 C 
ENDBRANCH  15  21
ENDBRANCH   5  11
BRANCH   1  27
ATOM     24  C   UNL     1       5.312   4.308  16.049  0.00  0.00    +0.000 A 
ATOM     25  C   UNL     1       5.478   5.687  15.897  0.00  0.00    +0.000 A 
ATOM     26  C   UNL     1       4.744   6.590  16.681  0.00  0.00    +0.000 A 
ATOM     27  C   UNL     1       3.814   6.112  17.610  0.00  0.00    +0.000 A 
ATOM     28  C   UNL     1       3.636   4.726  17.730  0.00  0.00    +0.000 A 
ATOM     29  C   UNL     1       4.374   3.829  16.959  0.00  0.00    +0.000 A 
BRANCH  24  31
ATOM     30  C   UNL     1       6.285   4.021  13.922  0.00  0.00    +0.000 C 
ATOM     31  O   UNL     1       6.082   3.517  15.240  0.00  0.00    +0.000 OA
ENDBRANCH  24  31
ENDBRANCH   1  27
TORSDOF 4
ENDMDL
MODEL 5
REMARK VINA RESULT:      -7.7      1.452      1.942
REMARK  Name = 
REMARK  7 active torsions:
REMARK  status: ('A' for Active; 'I' for Inactive)
REMARK    1  A    between atoms: C_1  and  O_2
REMARK    2  A    between atoms: O_2  and  C_3
REMARK    3  A    between atoms: C_6  and  C_7
REMARK    4  A    between atoms: C_11  and  C_12
REMARK    5  A    between atoms: C_16  and  N_17
REMARK    6  A    between atoms: N_17  and  C_18
REMARK    7  A    between atoms: N_17  and  C_19
REMARK                            x       y       z     vdW  Elec       q    Type
REMARK                         _______ _______ _______ _____ _____    ______ ____
ROOT
ATOM      1  C   UNL     1       3.005   6.979  18.371  0.00  0.00    +0.000 A 
ATOM      2  N   UNL     1       2.447   8.092  17.927  0.00  0.00    +0.000 NA
ATOM      3  C   UNL     1       1.770   8.632  18.980  0.00  0.00    +0.000 A 
ATOM      4  C   UNL     1       1.067   9.845  19.044  0.00  0.00    +0.000 A 
ATOM      5  C   UNL     1       0.494  10.232  20.262  0.00  0.00    +0.000 A 
ATOM      6  C   UNL     1       0.595   9.364  21.369  0.00  0.00    +0.000 A 
ATOM      7  C   UNL     1       1.267   8.133  21.314  0.00  0.00    +0.000 A 
ATOM      8  C   UNL     1       1.863   7.814  20.097  0.00  0.00    +0.000 A 
ATOM      9  N   UNL     1       2.627   6.752  19.676  0.00  0.00    +0.000 N 
ATOM     10  H   UNL     1       2.873   5.944  20.229  0.00  0.00    +0.000 HD
ENDROOT
BRANCH   5  11
ATOM     11  C   UNL     1      -0.184  11.522  20.443  0.00  0.00    +0.000 A 
ATOM     12  N   UNL     1       0.052  12.600  19.716  0.00  0.00    +0.000 NA
ATOM     13  C   UNL     1      -0.771  13.582  20.195  0.00  0.00    +0.000 A 
ATOM     14  C   UNL     1      -0.900  14.916  19.777  0.00  0.00    +0.000 A 
ATOM     15  C   UNL     1      -1.783  15.798  20.423  0.00  0.00    +0.000 A 
ATOM     16  C   UNL     1      -2.532  15.266  21.495  0.00  0.00    +0.000 A 
ATOM     17  C   UNL     1      -2.448  13.923  21.923  0.00  0.00    +0.000 A 
ATOM     18  C   UNL     1      -1.543  13.113  21.245  0.00  0.00    +0.000 A 
ATOM     19  N   UNL     1      -1.167  11.797  21.374  0.00  0.00    +0.000 N 
ATOM     20  H   UNL     1      -1.545  11.144  22.044  0.00  0.00    +0.000 HD
BRANCH  15  21
ATOM     21  N   UNL     1      -1.862  17.150  20.087  0.00  0.00    +0.000 N 
ATOM     22  C   UNL     1      -1.228  17.642  18.864  0.00  0.00    +0.000 C 
ATOM     23  C   UNL     1      -2.060  18.173  21.114  0.00  0.00    +0.000 C 
ENDBRANCH  15  21
ENDBRANCH   5  11
BRANCH   1  27
ATOM     24  C   UNL     1       5.372   4.328  15.997  0.00  0.00    +0.000 A 
ATOM     25  C   UNL     1       5.543   5.708  15.858  0.00  0.00    +0.000 A 
ATOM     26  C   UNL     1       4.806   6.605  16.646  0.00  0.00    +0.000 A 
ATOM     27  C   UNL     1       3.869   6.121  17.565  0.00  0.00    +0.000 A 
ATOM     28  C   UNL     1       3.686   4.735  17.670  0.00  0.00    +0.000 A 
ATOM     29  C   UNL     1       4.427   3.843  16.895  0.00  0.00    +0.000 A 
BRANCH  24  31
ATOM     30  C   UNL     1       6.247   3.988  13.835  0.00  0.00    +0.000 C 
ATOM     31  O   UNL     1       6.145   3.543  15.185  0.00  0.00    +0.000 OA
ENDBRANCH  24  31
ENDBRANCH   1  27
TORSDOF 4
ENDMDL
MODEL 6
REMARK VINA RESULT:      -7.6      2.223      2.848
REMARK  Name = 
REMARK  7 active torsions:
REMARK  status: ('A' for Active; 'I' for Inactive)
REMARK    1  A    between atoms: C_1  and  O_2
REMARK    2  A    between atoms: O_2  and  C_3
REMARK    3  A    between atoms: C_6  and  C_7
REMARK    4  A    between atoms: C_11  and  C_12
REMARK    5  A    between atoms: C_16  and  N_17
REMARK    6  A    between atoms: N_17  and  C_18
REMARK    7  A    between atoms: N_17  and  C_19
REMARK                            x       y       z     vdW  Elec       q    Type
REMARK                         _______ _______ _______ _____ _____    ______ ____
ROOT
ATOM      1  C   UNL     1       2.122   7.196  19.236  0.00  0.00    +0.000 A 
ATOM      2  N   UNL     1       1.626   7.530  20.415  0.00  0.00    +0.000 NA
ATOM      3  C   UNL     1       1.221   8.828  20.310  0.00  0.00    +0.000 A 
ATOM      4  C   UNL     1       0.569   9.624  21.263  0.00  0.00    +0.000 A 
ATOM      5  C   UNL     1       0.189  10.926  20.912  0.00  0.00    +0.000 A 
ATOM      6  C   UNL     1       0.525  11.411  19.631  0.00  0.00    +0.000 A 
ATOM      7  C   UNL     1       1.204  10.639  18.676  0.00  0.00    +0.000 A 
ATOM      8  C   UNL     1       1.517   9.336  19.052  0.00  0.00    +0.000 A 
ATOM      9  N   UNL     1       2.119   8.289  18.397  0.00  0.00    +0.000 N 
ATOM     10  H   UNL     1       2.493   8.314  17.461  0.00  0.00    +0.000 HD
ENDROOT
BRANCH   5  11
ATOM     11  C   UNL     1      -0.573  11.800  21.814  0.00  0.00    +0.000 A 
ATOM     12  N   UNL     1      -0.110  12.922  22.336  0.00  0.00    +0.000 NA
ATOM     13  C   UNL     1      -1.113  13.433  23.113  0.00  0.00    +0.000 A 
ATOM     14  C   UNL     1      -1.127  14.602  23.892  0.00  0.00    +0.000 A 
ATOM     15  C   UNL     1      -2.248  14.948  24.664  0.00  0.00    +0.000 A 
ATOM     16  C   UNL     1      -3.352  14.070  24.600  0.00  0.00    +0.000 A 
ATOM     17  C   UNL     1      -3.383  12.902  23.806  0.00  0.00    +0.000 A 
ATOM     18  C   UNL     1      -2.231  12.616  23.080  0.00  0.00    +0.000 A 
ATOM     19  N   UNL     1      -1.873  11.595  22.234  0.00  0.00    +0.000 N 
ATOM     20  H   UNL     1      -2.463  10.819  21.971  0.00  0.00    +0.000 HD
BRANCH  15  21
ATOM     21  N   UNL     1      -2.252  16.052  25.516  0.00  0.00    +0.000 N 
ATOM     22  C   UNL     1      -3.160  17.171  25.265  0.00  0.00    +0.000 C 
ATOM     23  C   UNL     1      -1.071  16.403  26.305  0.00  0.00    +0.000 C 
ENDBRANCH  15  21
ENDBRANCH   5  11
BRANCH   1  27
ATOM     24  C   UNL     1       3.500   3.319  18.079  0.00  0.00    +0.000 A 
ATOM     25  C   UNL     1       4.253   4.070  18.985  0.00  0.00    +0.000 A 
ATOM     26  C   UNL     1       3.812   5.332  19.411  0.00  0.00    +0.000 A 
ATOM     27  C   UNL     1       2.619   5.862  18.908  0.00  0.00    +0.000 A 
ATOM     28  C   UNL     1       1.891   5.110  17.976  0.00  0.00    +0.000 A 
ATOM     29  C   UNL     1       2.323   3.851  17.561  0.00  0.00    +0.000 A 
BRANCH  24  31
ATOM     30  C   UNL     1       3.858   1.078  18.717  0.00  0.00    +0.000 C 
ATOM     31  O   UNL     1       4.017   2.099  17.735  0.00  0.00    +0.000 OA
ENDBRANCH  24  31
ENDBRANCH   1  27
TORSDOF 4
ENDMDL
MODEL 7
REMARK VINA RESULT:      -7.6      1.273      1.556
REMARK  Name = 
REMARK  7 active torsions:
REMARK  status: ('A' for Active; 'I' for Inactive)
REMARK    1  A    between atoms: C_1  and  O_2
REMARK    2  A    between atoms: O_2  and  C_3
REMARK    3  A    between atoms: C_6  and  C_7
REMARK    4  A    between atoms: C_11  and  C_12
REMARK    5  A    between atoms: C_16  and  N_17
REMARK    6  A    between atoms: N_17  and  C_18
REMARK    7  A    between atoms: N_17  and  C_19
REMARK                            x       y       z     vdW  Elec       q    Type
REMARK                         _______ _______ _______ _____ _____    ______ ____
ROOT
ATOM      1  C   UNL     1       3.598   6.201  17.807  0.00  0.00    +0.000 A 
ATOM      2  N   UNL     1       3.138   7.438  17.740  0.00  0.00    +0.000 NA
ATOM      3  C   UNL     1       2.409   7.642  18.875  0.00  0.00    +0.000 A 
ATOM      4  C   UNL     1       1.770   8.813  19.310  0.00  0.00    +0.000 A 
ATOM      5  C   UNL     1       1.123   8.809  20.552  0.00  0.00    +0.000 A 
ATOM      6  C   UNL     1       1.088   7.613  21.298  0.00  0.00    +0.000 A 
ATOM      7  C   UNL     1       1.695   6.424  20.864  0.00  0.00    +0.000 A 
ATOM      8  C   UNL     1       2.368   6.490  19.647  0.00  0.00    +0.000 A 
ATOM      9  N   UNL     1       3.105   5.576  18.932  0.00  0.00    +0.000 N 
ATOM     10  H   UNL     1       3.262   4.613  19.187  0.00  0.00    +0.000 HD
ENDROOT
BRANCH   5  11
ATOM     11  C   UNL     1       0.503  10.011  21.126  0.00  0.00    +0.000 A 
ATOM     12  N   UNL     1       0.879  11.248  20.855  0.00  0.00    +0.000 NA
ATOM     13  C   UNL     1       0.064  12.072  21.582  0.00  0.00    +0.000 A 
ATOM     14  C   UNL     1       0.059  13.474  21.660  0.00  0.00    +0.000 A 
ATOM     15  C   UNL     1      -0.838  14.151  22.502  0.00  0.00    +0.000 A 
ATOM     16  C   UNL     1      -1.732  13.349  23.246  0.00  0.00    +0.000 A 
ATOM     17  C   UNL     1      -1.772  11.940  23.171  0.00  0.00    +0.000 A 
ATOM     18  C   UNL     1      -0.845  11.338  22.326  0.00  0.00    +0.000 A 
ATOM     19  N   UNL     1      -0.561  10.032  22.006  0.00  0.00    +0.000 N 
ATOM     20  H   UNL     1      -1.047   9.224  22.364  0.00  0.00    +0.000 HD
BRANCH  15  21
ATOM     21  N   UNL     1      -0.803  15.536  22.667  0.00  0.00    +0.000 N 
ATOM     22  C   UNL     1      -2.000  16.256  23.100  0.00  0.00    +0.000 C 
ATOM     23  C   UNL     1       0.162  16.359  21.938  0.00  0.00    +0.000 C 
ENDBRANCH  15  21
ENDBRANCH   5  11
BRANCH   1  27
ATOM     24  C   UNL     1       6.033   4.280  14.866  0.00  0.00    +0.000 A 
ATOM     25  C   UNL     1       5.941   5.675  14.874  0.00  0.00    +0.000 A 
ATOM     26  C   UNL     1       5.177   6.338  15.846  0.00  0.00    +0.000 A 
ATOM     27  C   UNL     1       4.476   5.601  16.806  0.00  0.00    +0.000 A 
ATOM     28  C   UNL     1       4.553   4.202  16.766  0.00  0.00    +0.000 A 
ATOM     29  C   UNL     1       5.321   3.543  15.807  0.00  0.00    +0.000 A 
BRANCH  24  31
ATOM     30  C   UNL     1       6.129   3.470  12.655  0.00  0.00    +0.000 C 
ATOM     31  O   UNL     1       6.809   3.735  13.879  0.00  0.00    +0.000 OA
ENDBRANCH  24  31
ENDBRANCH   1  27
TORSDOF 4
ENDMDL
MODEL 8
REMARK VINA RESULT:      -7.5      1.630      2.195
REMARK  Name = 
REMARK  7 active torsions:
REMARK  status: ('A' for Active; 'I' for Inactive)
REMARK    1  A    between atoms: C_1  and  O_2
REMARK    2  A    between atoms: O_2  and  C_3
REMARK    3  A    between atoms: C_6  and  C_7
REMARK    4  A    between atoms: C_11  and  C_12
REMARK    5  A    between atoms: C_16  and  N_17
REMARK    6  A    between atoms: N_17  and  C_18
REMARK    7  A    between atoms: N_17  and  C_19
REMARK                            x       y       z     vdW  Elec       q    Type
REMARK                         _______ _______ _______ _____ _____    ______ ____
ROOT
ATOM      1  C   UNL     1       2.735   7.134  18.490  0.00  0.00    +0.000 A 
ATOM      2  N   UNL     1       2.126   8.198  17.995  0.00  0.00    +0.000 NA
ATOM      3  C   UNL     1       1.503   8.809  19.044  0.00  0.00    +0.000 A 
ATOM      4  C   UNL     1       0.778  10.011  19.055  0.00  0.00    +0.000 A 
ATOM      5  C   UNL     1       0.272  10.484  20.273  0.00  0.00    +0.000 A 
ATOM      6  C   UNL     1       0.461   9.709  21.436  0.00  0.00    +0.000 A 
ATOM      7  C   UNL     1       1.156   8.490  21.437  0.00  0.00    +0.000 A 
ATOM      8  C   UNL     1       1.683   8.084  20.213  0.00  0.00    +0.000 A 
ATOM      9  N   UNL     1       2.443   7.005  19.830  0.00  0.00    +0.000 N 
ATOM     10  H   UNL     1       2.740   6.249  20.428  0.00  0.00    +0.000 HD
ENDROOT
BRANCH   5  11
ATOM     11  C   UNL     1      -0.422  11.772  20.394  0.00  0.00    +0.000 A 
ATOM     12  N   UNL     1       0.028  12.913  19.903  0.00  0.00    +0.000 NA
ATOM     13  C   UNL     1      -0.896  13.869  20.226  0.00  0.00    +0.000 A 
ATOM     14  C   UNL     1      -0.886  15.246  19.950  0.00  0.00    +0.000 A 
ATOM     15  C   UNL     1      -1.917  16.086  20.401  0.00  0.00    +0.000 A 
ATOM     16  C   UNL     1      -2.958  15.469  21.130  0.00  0.00    +0.000 A 
ATOM     17  C   UNL     1      -3.014  14.084  21.402  0.00  0.00    +0.000 A 
ATOM     18  C   UNL     1      -1.951  13.318  20.935  0.00  0.00    +0.000 A 
ATOM     19  N   UNL     1      -1.639  11.982  21.013  0.00  0.00    +0.000 N 
ATOM     20  H   UNL     1      -2.204  11.275  21.458  0.00  0.00    +0.000 HD
BRANCH  15  21
ATOM     21  N   UNL     1      -1.884  17.468  20.220  0.00  0.00    +0.000 N 
ATOM     22  C   UNL     1      -3.069  18.174  19.733  0.00  0.00    +0.000 C 
ATOM     23  C   UNL     1      -0.623  18.168  19.969  0.00  0.00    +0.000 C 
ENDBRANCH  15  21
ENDBRANCH   5  11
BRANCH   1  27
ATOM     24  C   UNL     1       5.340   4.602  16.238  0.00  0.00    +0.000 A 
ATOM     25  C   UNL     1       4.224   4.047  16.871  0.00  0.00    +0.000 A 
ATOM     26  C   UNL     1       3.331   4.855  17.590  0.00  0.00    +0.000 A 
ATOM     27  C   UNL     1       3.566   6.230  17.701  0.00  0.00    +0.000 A 
ATOM     28  C   UNL     1       4.707   6.767  17.087  0.00  0.00    +0.000 A 
ATOM     29  C   UNL     1       5.589   5.966  16.363  0.00  0.00    +0.000 A 
BRANCH  24  31
ATOM     30  C   UNL     1       6.187   3.921  14.147  0.00  0.00    +0.000 C 
ATOM     31  O   UNL     1       6.143   3.726  15.558  0.00  0.00    +0.000 OA
ENDBRANCH  24  31
ENDBRANCH   1  27
TORSDOF 4
ENDMDL
MODEL 9
REMARK VINA RESULT:      -7.5      0.868      1.018
REMARK  Name = 
REMARK  7 active torsions:
REMARK  status: ('A' for Active; 'I' for Inactive)
REMARK    1  A    between atoms: C_1  and  O_2
REMARK    2  A    between atoms: O_2  and  C_3
REMARK    3  A    between atoms: C_6  and  C_7
REMARK    4  A    between atoms: C_11  and  C_12
REMARK    5  A    between atoms: C_16  and  N_17
REMARK    6  A    between atoms: N_17  and  C_18
REMARK    7  A    between atoms: N_17  and  C_19
REMARK                            x       y       z     vdW  Elec       q    Type
REMARK                         _______ _______ _______ _____ _____    ______ ____
ROOT
ATOM      1  C   UNL     1       3.003   6.921  18.305  0.00  0.00    +0.000 A 
ATOM      2  N   UNL     1       2.535   8.116  17.987  0.00  0.00    +0.000 NA
ATOM      3  C   UNL     1       1.833   8.557  19.070  0.00  0.00    +0.000 A 
ATOM      4  C   UNL     1       1.199   9.794  19.261  0.00  0.00    +0.000 A 
ATOM      5  C   UNL     1       0.583  10.055  20.492  0.00  0.00    +0.000 A 
ATOM      6  C   UNL     1       0.573   9.046  21.477  0.00  0.00    +0.000 A 
ATOM      7  C   UNL     1       1.175   7.792  21.291  0.00  0.00    +0.000 A 
ATOM      8  C   UNL     1       1.818   7.596  20.072  0.00  0.00    +0.000 A 
ATOM      9  N   UNL     1       2.541   6.551  19.550  0.00  0.00    +0.000 N 
ATOM     10  H   UNL     1       2.709   5.664  20.001  0.00  0.00    +0.000 HD
ENDROOT
BRANCH   5  11
ATOM     11  C   UNL     1      -0.029  11.352  20.812  0.00  0.00    +0.000 A 
ATOM     12  N   UNL     1       0.505  12.252  21.618  0.00  0.00    +0.000 NA
ATOM     13  C   UNL     1      -0.364  13.308  21.655  0.00  0.00    +0.000 A 
ATOM     14  C   UNL     1      -0.271  14.511  22.372  0.00  0.00    +0.000 A 
ATOM     15  C   UNL     1      -1.294  15.473  22.314  0.00  0.00    +0.000 A 
ATOM     16  C   UNL     1      -2.400  15.167  21.491  0.00  0.00    +0.000 A 
ATOM     17  C   UNL     1      -2.512  13.980  20.735  0.00  0.00    +0.000 A 
ATOM     18  C   UNL     1      -1.468  13.069  20.853  0.00  0.00    +0.000 A 
ATOM     19  N   UNL     1      -1.225  11.829  20.312  0.00  0.00    +0.000 N 
ATOM     20  H   UNL     1      -1.828  11.346  19.663  0.00  0.00    +0.000 HD
BRANCH  15  21
ATOM     21  N   UNL     1      -1.269  16.633  23.088  0.00  0.00    +0.000 N 
ATOM     22  C   UNL     1      -2.000  17.822  22.653  0.00  0.00    +0.000 C 
ATOM     23  C   UNL     1      -0.157  16.912  23.997  0.00  0.00    +0.000 C 
ENDBRANCH  15  21
ENDBRANCH   5  11
BRANCH   1  27
ATOM     24  C   UNL     1       5.351   4.436  15.740  0.00  0.00    +0.000 A 
ATOM     25  C   UNL     1       5.472   5.825  15.645  0.00  0.00    +0.000 A 
ATOM     26  C   UNL     1       4.740   6.669  16.495  0.00  0.00    +0.000 A 
ATOM     27  C   UNL     1       3.859   6.122  17.433  0.00  0.00    +0.000 A 
ATOM     28  C   UNL     1       3.725   4.727  17.495  0.00  0.00    +0.000 A 
ATOM     29  C   UNL     1       4.460   3.888  16.659  0.00  0.00    +0.000 A 
BRANCH  24  31
ATOM     30  C   UNL     1       6.801   4.471  13.882  0.00  0.00    +0.000 C 
ATOM     31  O   UNL     1       6.114   3.706  14.869  0.00  0.00    +0.000 OA
ENDBRANCH  24  31
ENDBRANCH   1  27
TORSDOF 4
ENDMDL
