MODEL 1
REMARK VINA RESULT:      -6.4      0.000      0.000
REMARK  Name = 
REMARK  9 active torsions:
REMARK  status: ('A' for Active; 'I' for Inactive)
REMARK    1  A    between atoms: C_1  and  C_2
REMARK    2  A    between atoms: C_4  and  C_5
REMARK    3  A    between atoms: C_5  and  C_6
REMARK    4  A    between atoms: C_5  and  C_7
REMARK    5  A    between atoms: C_5  and  C_8
REMARK    6  A    between atoms: C_10  and  C_11
REMARK    7  A    between atoms: N_13  and  C_14
REMARK    8  A    between atoms: C_14  and  C_15
REMARK    9  A    between atoms: C_15  and  N_16
REMARK                            x       y       z     vdW  Elec       q    Type
REMARK                         _______ _______ _______ _____ _____    ______ ____
ROOT
ATOM      1  C   UNL     1       7.188   6.075  18.497  0.00  0.00    +0.000 C 
ATOM      2  O   UNL     1       8.037   5.701  19.303  0.00  0.00    +0.000 OA
ATOM      3  N   UNL     1       7.314   7.294  17.850  0.00  0.00    +0.000 N 
ATOM      4  H   UNL     1       6.555   7.588  17.249  0.00  0.00    +0.000 HD
ENDROOT
BRANCH   1  10
ATOM      5  C   UNL     1       6.664   4.412  15.808  0.00  0.00    +0.000 C 
ATOM      6  C   UNL     1       5.773   4.569  16.990  0.00  0.00    +0.000 A 
ATOM      7  N   UNL     1       4.548   3.919  16.958  0.00  0.00    +0.000 NA
ATOM      8  C   UNL     1       3.868   4.132  18.063  0.00  0.00    +0.000 A 
ATOM      9  S   UNL     1       4.660   5.161  19.193  0.00  0.00    +0.000 S 
ATOM     10  C   UNL     1       6.015   5.295  18.146  0.00  0.00    +0.000 A 
BRANCH   8  11
ATOM     11  C   UNL     1       2.505   3.514  18.355  0.00  0.00    +0.000 C 
ATOM     12  C   UNL     1       1.403   4.351  17.670  0.00  0.00    +0.000 C 
ATOM     13  C   UNL     1       2.437   2.083  17.795  0.00  0.00    +0.000 C 
ATOM     14  C   UNL     1       2.218   3.495  19.868  0.00  0.00    +0.000 C 
ENDBRANCH   8  11
ENDBRANCH   1  10
BRANCH   3  15
ATOM     15  C   UNL     1       8.411   8.207  18.108  0.00  0.00    +0.000 C 
BRANCH  15  16
ATOM     16  C   UNL     1       8.034   9.671  17.885  0.00  0.00    +0.000 C 
BRANCH  16  17
ATOM     17  N   UNL     1       8.966  10.582  18.514  0.00  0.00    +0.000 N 
ATOM     18  C   UNL     1       9.431  10.511  19.796  0.00  0.00    +0.000 A 
ATOM     19  C   UNL     1      10.242  11.612  19.935  0.00  0.00    +0.000 A 
ATOM     20  N   UNL     1      10.282  12.340  18.773  0.00  0.00    +0.000 NA
ATOM     21  C   UNL     1       9.494  11.700  17.937  0.00  0.00    +0.000 A 
ENDBRANCH  16  17
ENDBRANCH  15  16
ENDBRANCH   3  15
TORSDOF 5
ENDMDL
MODEL 2
REMARK VINA RESULT:      -6.4      0.455      1.285
REMARK  Name = 
REMARK  9 active torsions:
REMARK  status: ('A' for Active; 'I' for Inactive)
REMARK    1  A    between atoms: C_1  and  C_2
REMARK    2  A    between atoms: C_4  and  C_5
REMARK    3  A    between atoms: C_5  and  C_6
REMARK    4  A    between atoms: C_5  and  C_7
REMARK    5  A    between atoms: C_5  and  C_8
REMARK    6  A    between atoms: C_10  and  C_11
REMARK    7  A    between atoms: N_13  and  C_14
REMARK    8  A    between atoms: C_14  and  C_15
REMARK    9  A    between atoms: C_15  and  N_16
REMARK                            x       y       z     vdW  Elec       q    Type
REMARK                         _______ _______ _______ _____ _____    ______ ____
ROOT
ATOM      1  C   UNL     1       7.249   6.107  18.488  0.00  0.00    +0.000 C 
ATOM      2  O   UNL     1       8.106   5.761  19.297  0.00  0.00    +0.000 OA
ATOM      3  N   UNL     1       7.355   7.314  17.817  0.00  0.00    +0.000 N 
ATOM      4  H   UNL     1       6.590   7.586  17.213  0.00  0.00    +0.000 HD
ENDROOT
BRANCH   1  10
ATOM      5  C   UNL     1       6.804   4.261  15.906  0.00  0.00    +0.000 C 
ATOM      6  C   UNL     1       5.878   4.498  17.046  0.00  0.00    +0.000 A 
ATOM      7  N   UNL     1       4.654   3.847  17.022  0.00  0.00    +0.000 NA
ATOM      8  C   UNL     1       3.941   4.136  18.089  0.00  0.00    +0.000 A 
ATOM      9  S   UNL     1       4.699   5.241  19.168  0.00  0.00    +0.000 S 
ATOM     10  C   UNL     1       6.085   5.304  18.156  0.00  0.00    +0.000 A 
BRANCH   8  11
ATOM     11  C   UNL     1       2.569   3.538  18.381  0.00  0.00    +0.000 C 
ATOM     12  C   UNL     1       2.528   2.076  17.885  0.00  0.00    +0.000 C 
ATOM     13  C   UNL     1       2.298   3.537  19.896  0.00  0.00    +0.000 C 
ATOM     14  C   UNL     1       1.459   4.319  17.655  0.00  0.00    +0.000 C 
ENDBRANCH   8  11
ENDBRANCH   1  10
BRANCH   3  15
ATOM     15  C   UNL     1       8.440   8.248  18.052  0.00  0.00    +0.000 C 
BRANCH  15  16
ATOM     16  C   UNL     1       8.002   9.709  17.955  0.00  0.00    +0.000 C 
BRANCH  16  17
ATOM     17  N   UNL     1       8.934  10.608  18.598  0.00  0.00    +0.000 N 
ATOM     18  C   UNL     1       9.573  11.666  18.018  0.00  0.00    +0.000 A 
ATOM     19  C   UNL     1      10.380  12.174  19.009  0.00  0.00    +0.000 A 
ATOM     20  N   UNL     1      10.241  11.454  20.169  0.00  0.00    +0.000 NA
ATOM     21  C   UNL     1       9.371  10.510  19.888  0.00  0.00    +0.000 A 
ENDBRANCH  16  17
ENDBRANCH  15  16
ENDBRANCH   3  15
TORSDOF 5
ENDMDL
MODEL 3
REMARK VINA RESULT:      -6.3      0.355      1.029
REMARK  Name = 
REMARK  9 active torsions:
REMARK  status: ('A' for Active; 'I' for Inactive)
REMARK    1  A    between atoms: C_1  and  C_2
REMARK    2  A    between atoms: C_4  and  C_5
REMARK    3  A    between atoms: C_5  and  C_6
REMARK    4  A    between atoms: C_5  and  C_7
REMARK    5  A    between atoms: C_5  and  C_8
REMARK    6  A    between atoms: C_10  and  C_11
REMARK    7  A    between atoms: N_13  and  C_14
REMARK    8  A    between atoms: C_14  and  C_15
REMARK    9  A    between atoms: C_15  and  N_16
REMARK                            x       y       z     vdW  Elec       q    Type
REMARK                         _______ _______ _______ _____ _____    ______ ____
ROOT
ATOM      1  C   UNL     1       7.251   6.310  18.158  0.00  0.00    +0.000 C 
ATOM      2  O   UNL     1       8.104   6.034  18.998  0.00  0.00    +0.000 OA
ATOM      3  N   UNL     1       7.357   7.459  17.391  0.00  0.00    +0.000 N 
ATOM      4  H   UNL     1       6.595   7.678  16.763  0.00  0.00    +0.000 HD
ENDROOT
BRANCH   1  10
ATOM      5  C   UNL     1       6.698   4.486  15.582  0.00  0.00    +0.000 C 
ATOM      6  C   UNL     1       5.838   4.682  16.780  0.00  0.00    +0.000 A 
ATOM      7  N   UNL     1       4.634   3.997  16.822  0.00  0.00    +0.000 NA
ATOM      8  C   UNL     1       3.980   4.251  17.935  0.00  0.00    +0.000 A 
ATOM      9  S   UNL     1       4.773   5.364  18.981  0.00  0.00    +0.000 S 
ATOM     10  C   UNL     1       6.092   5.478  17.887  0.00  0.00    +0.000 A 
BRANCH   8  11
ATOM     11  C   UNL     1       2.646   3.611  18.302  0.00  0.00    +0.000 C 
ATOM     12  C   UNL     1       2.473   3.626  19.836  0.00  0.00    +0.000 C 
ATOM     13  C   UNL     1       1.483   4.406  17.683  0.00  0.00    +0.000 C 
ATOM     14  C   UNL     1       2.586   2.147  17.830  0.00  0.00    +0.000 C 
ENDBRANCH   8  11
ENDBRANCH   1  10
BRANCH   3  15
ATOM     15  C   UNL     1       8.438   8.413  17.556  0.00  0.00    +0.000 C 
BRANCH  15  16
ATOM     16  C   UNL     1       7.968   9.760  18.102  0.00  0.00    +0.000 C 
BRANCH  16  17
ATOM     17  N   UNL     1       9.053  10.541  18.652  0.00  0.00    +0.000 N 
ATOM     18  C   UNL     1       9.348  10.703  19.976  0.00  0.00    +0.000 A 
ATOM     19  C   UNL     1      10.422  11.560  19.993  0.00  0.00    +0.000 A 
ATOM     20  N   UNL     1      10.786  11.913  18.719  0.00  0.00    +0.000 NA
ATOM     21  C   UNL     1       9.936  11.292  17.932  0.00  0.00    +0.000 A 
ENDBRANCH  16  17
ENDBRANCH  15  16
ENDBRANCH   3  15
TORSDOF 5
ENDMDL
MODEL 4
REMARK VINA RESULT:      -6.3      5.121      6.974
REMARK  Name = 
REMARK  9 active torsions:
REMARK  status: ('A' for Active; 'I' for Inactive)
REMARK    1  A    between atoms: C_1  and  C_2
REMARK    2  A    between atoms: C_4  and  C_5
REMARK    3  A    between atoms: C_5  and  C_6
REMARK    4  A    between atoms: C_5  and  C_7
REMARK    5  A    between atoms: C_5  and  C_8
REMARK    6  A    between atoms: C_10  and  C_11
REMARK    7  A    between atoms: N_13  and  C_14
REMARK    8  A    between atoms: C_14  and  C_15
REMARK    9  A    between atoms: C_15  and  N_16
REMARK                            x       y       z     vdW  Elec       q    Type
REMARK                         _______ _______ _______ _____ _____    ______ ____
ROOT
ATOM      1  C   UNL     1       2.271   5.890  20.009  0.00  0.00    +0.000 C 
ATOM      2  O   UNL     1       1.761   5.226  20.908  0.00  0.00    +0.000 OA
ATOM      3  N   UNL     1       2.157   7.272  19.998  0.00  0.00    +0.000 N 
ATOM      4  H   UNL     1       2.534   7.769  19.201  0.00  0.00    +0.000 HD
ENDROOT
BRANCH   1  10
ATOM      5  C   UNL     1       1.437   3.445  18.114  0.00  0.00    +0.000 C 
ATOM      6  C   UNL     1       2.682   4.259  18.082  0.00  0.00    +0.000 A 
ATOM      7  N   UNL     1       3.625   3.947  17.115  0.00  0.00    +0.000 NA
ATOM      8  C   UNL     1       4.667   4.746  17.193  0.00  0.00    +0.000 A 
ATOM      9  S   UNL     1       4.579   5.901  18.466  0.00  0.00    +0.000 S 
ATOM     10  C   UNL     1       3.029   5.314  18.913  0.00  0.00    +0.000 A 
BRANCH   8  11
ATOM     11  C   UNL     1       5.853   4.692  16.235  0.00  0.00    +0.000 C 
ATOM     12  C   UNL     1       5.845   5.946  15.335  0.00  0.00    +0.000 C 
ATOM     13  C   UNL     1       7.175   4.677  17.022  0.00  0.00    +0.000 C 
ATOM     14  C   UNL     1       5.774   3.452  15.327  0.00  0.00    +0.000 C 
ENDBRANCH   8  11
ENDBRANCH   1  10
BRANCH   3  15
ATOM     15  C   UNL     1       1.410   8.004  21.003  0.00  0.00    +0.000 C 
BRANCH  15  16
ATOM     16  C   UNL     1       0.775   9.283  20.460  0.00  0.00    +0.000 C 
BRANCH  16  17
ATOM     17  N   UNL     1       0.071  10.026  21.482  0.00  0.00    +0.000 N 
ATOM     18  C   UNL     1      -0.346  11.324  21.401  0.00  0.00    +0.000 A 
ATOM     19  C   UNL     1      -0.914  11.586  22.625  0.00  0.00    +0.000 A 
ATOM     20  N   UNL     1      -0.855  10.483  23.438  0.00  0.00    +0.000 NA
ATOM     21  C   UNL     1      -0.246   9.561  22.725  0.00  0.00    +0.000 A 
ENDBRANCH  16  17
ENDBRANCH  15  16
ENDBRANCH   3  15
TORSDOF 5
ENDMDL
MODEL 5
REMARK VINA RESULT:      -6.3      1.138      1.686
REMARK  Name = 
REMARK  9 active torsions:
REMARK  status: ('A' for Active; 'I' for Inactive)
REMARK    1  A    between atoms: C_1  and  C_2
REMARK    2  A    between atoms: C_4  and  C_5
REMARK    3  A    between atoms: C_5  and  C_6
REMARK    4  A    between atoms: C_5  and  C_7
REMARK    5  A    between atoms: C_5  and  C_8
REMARK    6  A    between atoms: C_10  and  C_11
REMARK    7  A    between atoms: N_13  and  C_14
REMARK    8  A    between atoms: C_14  and  C_15
REMARK    9  A    between atoms: C_15  and  N_16
REMARK                            x       y       z     vdW  Elec       q    Type
REMARK                         _______ _______ _______ _____ _____    ______ ____
ROOT
ATOM      1  C   UNL     1       6.948   6.194  17.144  0.00  0.00    +0.000 C 
ATOM      2  O   UNL     1       7.529   6.377  16.076  0.00  0.00    +0.000 OA
ATOM      3  N   UNL     1       7.310   6.905  18.277  0.00  0.00    +0.000 N 
ATOM      4  H   UNL     1       6.850   6.670  19.147  0.00  0.00    +0.000 HD
ENDROOT
BRANCH   1  10
ATOM      5  C   UNL     1       6.028   3.863  15.146  0.00  0.00    +0.000 C 
ATOM      6  C   UNL     1       5.443   4.242  16.462  0.00  0.00    +0.000 A 
ATOM      7  N   UNL     1       4.358   3.506  16.914  0.00  0.00    +0.000 NA
ATOM      8  C   UNL     1       3.949   3.937  18.087  0.00  0.00    +0.000 A 
ATOM      9  S   UNL     1       4.833   5.282  18.695  0.00  0.00    +0.000 S 
ATOM     10  C   UNL     1       5.853   5.256  17.313  0.00  0.00    +0.000 A 
BRANCH   8  11
ATOM     11  C   UNL     1       2.807   3.302  18.874  0.00  0.00    +0.000 C 
ATOM     12  C   UNL     1       3.364   2.660  20.163  0.00  0.00    +0.000 C 
ATOM     13  C   UNL     1       1.778   4.373  19.280  0.00  0.00    +0.000 C 
ATOM     14  C   UNL     1       2.114   2.200  18.053  0.00  0.00    +0.000 C 
ENDBRANCH   8  11
ENDBRANCH   1  10
BRANCH   3  15
ATOM     15  C   UNL     1       8.403   7.860  18.287  0.00  0.00    +0.000 C 
BRANCH  15  16
ATOM     16  C   UNL     1       7.990   9.244  17.789  0.00  0.00    +0.000 C 
BRANCH  16  17
ATOM     17  N   UNL     1       8.742  10.304  18.423  0.00  0.00    +0.000 N 
ATOM     18  C   UNL     1       8.947  11.561  17.929  0.00  0.00    +0.000 A 
ATOM     19  C   UNL     1       9.751  12.175  18.860  0.00  0.00    +0.000 A 
ATOM     20  N   UNL     1      10.032  11.326  19.900  0.00  0.00    +0.000 NA
ATOM     21  C   UNL     1       9.418  10.202  19.603  0.00  0.00    +0.000 A 
ENDBRANCH  16  17
ENDBRANCH  15  16
ENDBRANCH   3  15
TORSDOF 5
ENDMDL
MODEL 6
REMARK VINA RESULT:      -6.2      1.163      1.450
REMARK  Name = 
REMARK  9 active torsions:
REMARK  status: ('A' for Active; 'I' for Inactive)
REMARK    1  A    between atoms: C_1  and  C_2
REMARK    2  A    between atoms: C_4  and  C_5
REMARK    3  A    between atoms: C_5  and  C_6
REMARK    4  A    between atoms: C_5  and  C_7
REMARK    5  A    between atoms: C_5  and  C_8
REMARK    6  A    between atoms: C_10  and  C_11
REMARK    7  A    between atoms: N_13  and  C_14
REMARK    8  A    between atoms: C_14  and  C_15
REMARK    9  A    between atoms: C_15  and  N_16
REMARK                            x       y       z     vdW  Elec       q    Type
REMARK                         _______ _______ _______ _____ _____    ______ ____
ROOT
ATOM      1  C   UNL     1       6.886   6.386  16.789  0.00  0.00    +0.000 C 
ATOM      2  O   UNL     1       7.718   6.250  15.896  0.00  0.00    +0.000 OA
ATOM      3  N   UNL     1       6.914   7.494  17.622  0.00  0.00    +0.000 N 
ATOM      4  H   UNL     1       6.251   7.527  18.385  0.00  0.00    +0.000 HD
ENDROOT
BRANCH   1  10
ATOM      5  C   UNL     1       6.117   3.787  15.080  0.00  0.00    +0.000 C 
ATOM      6  C   UNL     1       5.471   4.308  16.316  0.00  0.00    +0.000 A 
ATOM      7  N   UNL     1       4.395   3.596  16.824  0.00  0.00    +0.000 NA
ATOM      8  C   UNL     1       3.929   4.158  17.918  0.00  0.00    +0.000 A 
ATOM      9  S   UNL     1       4.746   5.602  18.376  0.00  0.00    +0.000 S 
ATOM     10  C   UNL     1       5.816   5.438  17.042  0.00  0.00    +0.000 A 
BRANCH   8  11
ATOM     11  C   UNL     1       2.780   3.587  18.742  0.00  0.00    +0.000 C 
ATOM     12  C   UNL     1       2.848   4.150  20.179  0.00  0.00    +0.000 C 
ATOM     13  C   UNL     1       1.428   3.999  18.132  0.00  0.00    +0.000 C 
ATOM     14  C   UNL     1       2.868   2.053  18.826  0.00  0.00    +0.000 C 
ENDBRANCH   8  11
ENDBRANCH   1  10
BRANCH   3  15
ATOM     15  C   UNL     1       7.934   8.522  17.522  0.00  0.00    +0.000 C 
BRANCH  15  16
ATOM     16  C   UNL     1       8.684   8.747  18.834  0.00  0.00    +0.000 C 
BRANCH  16  17
ATOM     17  N   UNL     1       9.052  10.132  19.028  0.00  0.00    +0.000 N 
ATOM     18  C   UNL     1       9.385  10.726  20.212  0.00  0.00    +0.000 A 
ATOM     19  C   UNL     1       9.604  12.044  19.892  0.00  0.00    +0.000 A 
ATOM     20  N   UNL     1       9.418  12.259  18.550  0.00  0.00    +0.000 NA
ATOM     21  C   UNL     1       9.076  11.090  18.057  0.00  0.00    +0.000 A 
ENDBRANCH  16  17
ENDBRANCH  15  16
ENDBRANCH   3  15
TORSDOF 5
ENDMDL
MODEL 7
REMARK VINA RESULT:      -6.2      4.526      7.041
REMARK  Name = 
REMARK  9 active torsions:
REMARK  status: ('A' for Active; 'I' for Inactive)
REMARK    1  A    between atoms: C_1  and  C_2
REMARK    2  A    between atoms: C_4  and  C_5
REMARK    3  A    between atoms: C_5  and  C_6
REMARK    4  A    between atoms: C_5  and  C_7
REMARK    5  A    between atoms: C_5  and  C_8
REMARK    6  A    between atoms: C_10  and  C_11
REMARK    7  A    between atoms: N_13  and  C_14
REMARK    8  A    between atoms: C_14  and  C_15
REMARK    9  A    between atoms: C_15  and  N_16
REMARK                            x       y       z     vdW  Elec       q    Type
REMARK                         _______ _______ _______ _____ _____    ______ ____
ROOT
ATOM      1  C   UNL     1       5.160   5.080  16.174  0.00  0.00    +0.000 C 
ATOM      2  O   UNL     1       5.154   6.231  15.742  0.00  0.00    +0.000 OA
ATOM      3  N   UNL     1       5.785   4.063  15.470  0.00  0.00    +0.000 N 
ATOM      4  H   UNL     1       5.703   3.122  15.831  0.00  0.00    +0.000 HD
ENDROOT
BRANCH   1  10
ATOM      5  C   UNL     1       6.371   5.353  19.128  0.00  0.00    +0.000 C 
ATOM      6  C   UNL     1       5.052   4.802  18.714  0.00  0.00    +0.000 A 
ATOM      7  N   UNL     1       4.210   4.342  19.715  0.00  0.00    +0.000 NA
ATOM      8  C   UNL     1       3.079   3.894  19.214  0.00  0.00    +0.000 A 
ATOM      9  S   UNL     1       2.984   3.973  17.498  0.00  0.00    +0.000 S 
ATOM     10  C   UNL     1       4.544   4.689  17.429  0.00  0.00    +0.000 A 
BRANCH   8  11
ATOM     11  C   UNL     1       1.925   3.367  20.061  0.00  0.00    +0.000 C 
ATOM     12  C   UNL     1       2.484   2.711  21.342  0.00  0.00    +0.000 C 
ATOM     13  C   UNL     1       0.999   4.522  20.480  0.00  0.00    +0.000 C 
ATOM     14  C   UNL     1       1.118   2.303  19.294  0.00  0.00    +0.000 C 
ENDBRANCH   8  11
ENDBRANCH   1  10
BRANCH   3  15
ATOM     15  C   UNL     1       6.423   4.278  14.184  0.00  0.00    +0.000 C 
BRANCH  15  16
ATOM     16  C   UNL     1       5.504   3.968  13.003  0.00  0.00    +0.000 C 
BRANCH  16  17
ATOM     17  N   UNL     1       6.063   2.971  12.118  0.00  0.00    +0.000 N 
ATOM     18  C   UNL     1       5.403   1.905  11.575  0.00  0.00    +0.000 A 
ATOM     19  C   UNL     1       6.359   1.232  10.853  0.00  0.00    +0.000 A 
ATOM     20  N   UNL     1       7.573   1.863  10.942  0.00  0.00    +0.000 NA
ATOM     21  C   UNL     1       7.366   2.903  11.719  0.00  0.00    +0.000 A 
ENDBRANCH  16  17
ENDBRANCH  15  16
ENDBRANCH   3  15
TORSDOF 5
ENDMDL
MODEL 8
REMARK VINA RESULT:      -6.2      5.527      6.756
REMARK  Name = 
REMARK  9 active torsions:
REMARK  status: ('A' for Active; 'I' for Inactive)
REMARK    1  A    between atoms: C_1  and  C_2
REMARK    2  A    between atoms: C_4  and  C_5
REMARK    3  A    between atoms: C_5  and  C_6
REMARK    4  A    between atoms: C_5  and  C_7
REMARK    5  A    between atoms: C_5  and  C_8
REMARK    6  A    between atoms: C_10  and  C_11
REMARK    7  A    between atoms: N_13  and  C_14
REMARK    8  A    between atoms: C_14  and  C_15
REMARK    9  A    between atoms: C_15  and  N_16
REMARK                            x       y       z     vdW  Elec       q    Type
REMARK                         _______ _______ _______ _____ _____    ______ ____
ROOT
ATOM      1  C   UNL     1       2.264   8.006  18.393  0.00  0.00    +0.000 C 
ATOM      2  O   UNL     1       2.418   8.621  17.340  0.00  0.00    +0.000 OA
ATOM      3  N   UNL     1       1.619   8.596  19.469  0.00  0.00    +0.000 N 
ATOM      4  H   UNL     1       1.578   8.075  20.336  0.00  0.00    +0.000 HD
ENDROOT
BRANCH   1  10
ATOM      5  C   UNL     1       4.814   6.559  17.099  0.00  0.00    +0.000 C 
ATOM      6  C   UNL     1       3.816   6.002  18.052  0.00  0.00    +0.000 A 
ATOM      7  N   UNL     1       3.985   4.687  18.458  0.00  0.00    +0.000 NA
ATOM      8  C   UNL     1       3.044   4.326  19.303  0.00  0.00    +0.000 A 
ATOM      9  S   UNL     1       1.879   5.550  19.630  0.00  0.00    +0.000 S 
ATOM     10  C   UNL     1       2.715   6.642  18.601  0.00  0.00    +0.000 A 
BRANCH   8  11
ATOM     11  C   UNL     1       2.980   2.956  19.970  0.00  0.00    +0.000 C 
ATOM     12  C   UNL     1       2.047   2.031  19.158  0.00  0.00    +0.000 C 
ATOM     13  C   UNL     1       4.378   2.313  20.004  0.00  0.00    +0.000 C 
ATOM     14  C   UNL     1       2.420   3.062  21.400  0.00  0.00    +0.000 C 
ENDBRANCH   8  11
ENDBRANCH   1  10
BRANCH   3  15
ATOM     15  C   UNL     1       1.133   9.962  19.438  0.00  0.00    +0.000 C 
BRANCH  15  16
ATOM     16  C   UNL     1      -0.352  10.075  19.781  0.00  0.00    +0.000 C 
BRANCH  16  17
ATOM     17  N   UNL     1      -0.571  10.540  21.132  0.00  0.00    +0.000 N 
ATOM     18  C   UNL     1      -1.196  11.697  21.502  0.00  0.00    +0.000 A 
ATOM     19  C   UNL     1      -1.114  11.716  22.874  0.00  0.00    +0.000 A 
ATOM     20  N   UNL     1      -0.464  10.603  23.340  0.00  0.00    +0.000 NA
ATOM     21  C   UNL     1      -0.139   9.917  22.267  0.00  0.00    +0.000 A 
ENDBRANCH  16  17
ENDBRANCH  15  16
ENDBRANCH   3  15
TORSDOF 5
ENDMDL
MODEL 9
REMARK VINA RESULT:      -6.1      1.584      2.157
REMARK  Name = 
REMARK  9 active torsions:
REMARK  status: ('A' for Active; 'I' for Inactive)
REMARK    1  A    between atoms: C_1  and  C_2
REMARK    2  A    between atoms: C_4  and  C_5
REMARK    3  A    between atoms: C_5  and  C_6
REMARK    4  A    between atoms: C_5  and  C_7
REMARK    5  A    between atoms: C_5  and  C_8
REMARK    6  A    between atoms: C_10  and  C_11
REMARK    7  A    between atoms: N_13  and  C_14
REMARK    8  A    between atoms: C_14  and  C_15
REMARK    9  A    between atoms: C_15  and  N_16
REMARK                            x       y       z     vdW  Elec       q    Type
REMARK                         _______ _______ _______ _____ _____    ______ ____
ROOT
ATOM      1  C   UNL     1       7.217   6.967  17.285  0.00  0.00    +0.000 C 
ATOM      2  O   UNL     1       7.827   6.747  16.242  0.00  0.00    +0.000 OA
ATOM      3  N   UNL     1       7.363   8.173  17.951  0.00  0.00    +0.000 N 
ATOM      4  H   UNL     1       6.894   8.280  18.841  0.00  0.00    +0.000 HD
ENDROOT
BRANCH   1  10
ATOM      5  C   UNL     1       7.630   5.292  19.986  0.00  0.00    +0.000 C 
ATOM      6  C   UNL     1       6.462   5.290  19.063  0.00  0.00    +0.000 A 
ATOM      7  N   UNL     1       5.393   4.469  19.388  0.00  0.00    +0.000 NA
ATOM      8  C   UNL     1       4.429   4.570  18.498  0.00  0.00    +0.000 A 
ATOM      9  S   UNL     1       4.778   5.641  17.197  0.00  0.00    +0.000 S 
ATOM     10  C   UNL     1       6.301   6.020  17.895  0.00  0.00    +0.000 A 
BRANCH   8  11
ATOM     11  C   UNL     1       3.099   3.832  18.599  0.00  0.00    +0.000 C 
ATOM     12  C   UNL     1       3.222   2.452  17.917  0.00  0.00    +0.000 C 
ATOM     13  C   UNL     1       2.725   3.604  20.074  0.00  0.00    +0.000 C 
ATOM     14  C   UNL     1       1.977   4.614  17.892  0.00  0.00    +0.000 C 
ENDBRANCH   8  11
ENDBRANCH   1  10
BRANCH   3  15
ATOM     15  C   UNL     1       8.261   9.217  17.492  0.00  0.00    +0.000 C 
BRANCH  15  16
ATOM     16  C   UNL     1       8.830  10.059  18.632  0.00  0.00    +0.000 C 
BRANCH  16  17
ATOM     17  N   UNL     1       9.419  11.294  18.164  0.00  0.00    +0.000 N 
ATOM     18  C   UNL     1      10.712  11.477  17.764  0.00  0.00    +0.000 A 
ATOM     19  C   UNL     1      10.798  12.815  17.461  0.00  0.00    +0.000 A 
ATOM     20  N   UNL     1       9.594  13.441  17.662  0.00  0.00    +0.000 NA
ATOM     21  C   UNL     1       8.785  12.500  18.096  0.00  0.00    +0.000 A 
ENDBRANCH  16  17
ENDBRANCH  15  16
ENDBRANCH   3  15
TORSDOF 5
ENDMDL
