MODEL 1
REMARK VINA RESULT:      -8.6      0.000      0.000
REMARK  Name = 
REMARK  5 active torsions:
REMARK  status: ('A' for Active; 'I' for Inactive)
REMARK    1  A    between atoms: C_1  and  C_2
REMARK    2  A    between atoms: C_7  and  C_8
REMARK    3  A    between atoms: C_9  and  C_10
REMARK    4  A    between atoms: N_12  and  S_13
REMARK    5  A    between atoms: S_13  and  C_16
REMARK                            x       y       z     vdW  Elec       q    Type
REMARK                         _______ _______ _______ _____ _____    ______ ____
ROOT
ATOM      1  C   UNL     1       3.291   6.644  19.248  0.00  0.00    +0.000 A 
ATOM      2  C   UNL     1       4.482   6.803  18.579  0.00  0.00    +0.000 A 
ATOM      3  N   UNL     1       5.159   5.611  18.638  0.00  0.00    +0.000 N 
ATOM      4  C   UNL     1       4.378   4.625  19.221  0.00  0.00    +0.000 A 
ATOM      5  C   UNL     1       4.579   3.250  19.456  0.00  0.00    +0.000 A 
ATOM      6  C   UNL     1       3.544   2.512  20.043  0.00  0.00    +0.000 A 
ATOM      7  C   UNL     1       2.355   3.127  20.388  0.00  0.00    +0.000 A 
ATOM      8  F   UNL     1       1.362   2.392  20.911  0.00  0.00    +0.000 F 
ATOM      9  C   UNL     1       2.159   4.491  20.199  0.00  0.00    +0.000 A 
ATOM     10  C   UNL     1       3.188   5.265  19.619  0.00  0.00    +0.000 A 
ENDROOT
BRANCH   1  19
ATOM     11  C   UNL     1      -0.925  10.318  23.400  0.00  0.00    +0.000 C 
ATOM     12  C   UNL     1       0.165   9.684  22.573  0.00  0.00    +0.000 C 
ATOM     13  O   UNL     1       1.267   9.426  23.045  0.00  0.00    +0.000 OA
ATOM     14  N   UNL     1      -0.232   9.419  21.279  0.00  0.00    +0.000 N 
ATOM     15  C   UNL     1       0.670   8.935  20.371  0.00  0.00    +0.000 A 
ATOM     16  N   UNL     1       0.750   9.344  19.129  0.00  0.00    +0.000 NA
ATOM     17  C   UNL     1       1.834   8.682  18.590  0.00  0.00    +0.000 A 
ATOM     18  C   UNL     1       2.272   9.010  17.217  0.00  0.00    +0.000 C 
ATOM     19  C   UNL     1       2.285   7.710  19.466  0.00  0.00    +0.000 A 
ATOM     20  N   UNL     1       1.581   7.941  20.626  0.00  0.00    +0.000 N 
ATOM     21  H   UNL     1      -0.964   9.986  20.871  0.00  0.00    +0.000 HD
ATOM     22  H   UNL     1       1.714   7.491  21.518  0.00  0.00    +0.000 HD
ENDBRANCH   1  19
BRANCH   3  23
ATOM     23  S   UNL     1       6.692   5.402  17.912  0.00  0.00    +0.000 S 
ATOM     24  O   UNL     1       7.267   6.737  17.875  0.00  0.00    +0.000 OA
ATOM     25  O   UNL     1       7.350   4.311  18.593  0.00  0.00    +0.000 OA
BRANCH  23  26
ATOM     26  C   UNL     1       6.357   4.893  16.243  0.00  0.00    +0.000 A 
ATOM     27  C   UNL     1       7.320   5.108  15.251  0.00  0.00    +0.000 A 
ATOM     28  C   UNL     1       7.071   4.684  13.943  0.00  0.00    +0.000 A 
ATOM     29  C   UNL     1       5.875   4.039  13.635  0.00  0.00    +0.000 A 
ATOM     30  C   UNL     1       4.930   3.799  14.634  0.00  0.00    +0.000 A 
ATOM     31  C   UNL     1       5.170   4.220  15.945  0.00  0.00    +0.000 A 
ENDBRANCH  23  26
ENDBRANCH   3  23
TORSDOF 3
ENDMDL
MODEL 2
REMARK VINA RESULT:      -8.3      1.962      2.546
REMARK  Name = 
REMARK  5 active torsions:
REMARK  status: ('A' for Active; 'I' for Inactive)
REMARK    1  A    between atoms: C_1  and  C_2
REMARK    2  A    between atoms: C_7  and  C_8
REMARK    3  A    between atoms: C_9  and  C_10
REMARK    4  A    between atoms: N_12  and  S_13
REMARK    5  A    between atoms: S_13  and  C_16
REMARK                            x       y       z     vdW  Elec       q    Type
REMARK                         _______ _______ _______ _____ _____    ______ ____
ROOT
ATOM      1  C   UNL     1       2.679   6.652  19.452  0.00  0.00    +0.000 A 
ATOM      2  C   UNL     1       3.797   6.611  18.651  0.00  0.00    +0.000 A 
ATOM      3  N   UNL     1       4.354   5.362  18.774  0.00  0.00    +0.000 N 
ATOM      4  C   UNL     1       3.550   4.533  19.540  0.00  0.00    +0.000 A 
ATOM      5  C   UNL     1       3.639   3.175  19.905  0.00  0.00    +0.000 A 
ATOM      6  C   UNL     1       2.609   2.619  20.674  0.00  0.00    +0.000 A 
ATOM      7  C   UNL     1       1.534   3.393  21.068  0.00  0.00    +0.000 A 
ATOM      8  F   UNL     1       0.539   2.829  21.769  0.00  0.00    +0.000 F 
ATOM      9  C   UNL     1       1.455   4.745  20.749  0.00  0.00    +0.000 A 
ATOM     10  C   UNL     1       2.483   5.338  19.984  0.00  0.00    +0.000 A 
ENDROOT
BRANCH   1  19
ATOM     11  C   UNL     1      -1.248  10.750  23.490  0.00  0.00    +0.000 C 
ATOM     12  C   UNL     1      -0.205   9.997  22.704  0.00  0.00    +0.000 C 
ATOM     13  O   UNL     1       0.821   9.576  23.228  0.00  0.00    +0.000 OA
ATOM     14  N   UNL     1      -0.553   9.826  21.380  0.00  0.00    +0.000 N 
ATOM     15  C   UNL     1       0.330   9.249  20.508  0.00  0.00    +0.000 A 
ATOM     16  N   UNL     1       0.540   9.679  19.288  0.00  0.00    +0.000 NA
ATOM     17  C   UNL     1       1.556   8.890  18.788  0.00  0.00    +0.000 A 
ATOM     18  C   UNL     1       2.118   9.194  17.456  0.00  0.00    +0.000 C 
ATOM     19  C   UNL     1       1.816   7.840  19.652  0.00  0.00    +0.000 A 
ATOM     20  N   UNL     1       1.080   8.132  20.777  0.00  0.00    +0.000 N 
ATOM     21  H   UNL     1      -1.175  10.500  20.952  0.00  0.00    +0.000 HD
ATOM     22  H   UNL     1       1.095   7.643  21.658  0.00  0.00    +0.000 HD
ENDBRANCH   1  19
BRANCH   3  23
ATOM     23  S   UNL     1       5.766   4.913  17.921  0.00  0.00    +0.000 S 
ATOM     24  O   UNL     1       6.346   3.839  18.712  0.00  0.00    +0.000 OA
ATOM     25  O   UNL     1       5.395   4.721  16.538  0.00  0.00    +0.000 OA
BRANCH  23  26
ATOM     26  C   UNL     1       6.843   6.321  18.018  0.00  0.00    +0.000 A 
ATOM     27  C   UNL     1       6.636   7.406  17.159  0.00  0.00    +0.000 A 
ATOM     28  C   UNL     1       7.465   8.528  17.251  0.00  0.00    +0.000 A 
ATOM     29  C   UNL     1       8.482   8.567  18.204  0.00  0.00    +0.000 A 
ATOM     30  C   UNL     1       8.665   7.495  19.079  0.00  0.00    +0.000 A 
ATOM     31  C   UNL     1       7.842   6.369  18.993  0.00  0.00    +0.000 A 
ENDBRANCH  23  26
ENDBRANCH   3  23
TORSDOF 3
ENDMDL
MODEL 3
REMARK VINA RESULT:      -8.2      2.812      3.619
REMARK  Name = 
REMARK  5 active torsions:
REMARK  status: ('A' for Active; 'I' for Inactive)
REMARK    1  A    between atoms: C_1  and  C_2
REMARK    2  A    between atoms: C_7  and  C_8
REMARK    3  A    between atoms: C_9  and  C_10
REMARK    4  A    between atoms: N_12  and  S_13
REMARK    5  A    between atoms: S_13  and  C_16
REMARK                            x       y       z     vdW  Elec       q    Type
REMARK                         _______ _______ _______ _____ _____    ______ ____
ROOT
ATOM      1  C   UNL     1       2.648   6.763  18.273  0.00  0.00    +0.000 A 
ATOM      2  C   UNL     1       3.844   6.993  17.634  0.00  0.00    +0.000 A 
ATOM      3  N   UNL     1       4.379   5.775  17.295  0.00  0.00    +0.000 N 
ATOM      4  C   UNL     1       3.494   4.747  17.582  0.00  0.00    +0.000 A 
ATOM      5  C   UNL     1       3.537   3.354  17.375  0.00  0.00    +0.000 A 
ATOM      6  C   UNL     1       2.428   2.586  17.753  0.00  0.00    +0.000 A 
ATOM      7  C   UNL     1       1.321   3.188  18.321  0.00  0.00    +0.000 A 
ATOM      8  F   UNL     1       0.255   2.439  18.637  0.00  0.00    +0.000 F 
ATOM      9  C   UNL     1       1.283   4.556  18.568  0.00  0.00    +0.000 A 
ATOM     10  C   UNL     1       2.390   5.357  18.208  0.00  0.00    +0.000 A 
ENDROOT
BRANCH   1  19
ATOM     11  C   UNL     1      -2.069  11.846  17.611  0.00  0.00    +0.000 C 
ATOM     12  C   UNL     1      -1.245  10.591  17.754  0.00  0.00    +0.000 C 
ATOM     13  O   UNL     1      -1.427   9.614  17.035  0.00  0.00    +0.000 OA
ATOM     14  N   UNL     1      -0.284  10.692  18.737  0.00  0.00    +0.000 N 
ATOM     15  C   UNL     1       0.483   9.605  19.059  0.00  0.00    +0.000 A 
ATOM     16  N   UNL     1       0.790   9.264  20.287  0.00  0.00    +0.000 NA
ATOM     17  C   UNL     1       1.485   8.077  20.179  0.00  0.00    +0.000 A 
ATOM     18  C   UNL     1       1.881   7.357  21.407  0.00  0.00    +0.000 C 
ATOM     19  C   UNL     1       1.773   7.811  18.851  0.00  0.00    +0.000 A 
ATOM     20  N   UNL     1       1.059   8.755  18.150  0.00  0.00    +0.000 N 
ATOM     21  H   UNL     1      -0.444  11.328  19.508  0.00  0.00    +0.000 HD
ATOM     22  H   UNL     1       0.944   8.812  17.150  0.00  0.00    +0.000 HD
ENDBRANCH   1  19
BRANCH   3  23
ATOM     23  S   UNL     1       5.871   5.638  16.473  0.00  0.00    +0.000 S 
ATOM     24  O   UNL     1       6.270   4.253  16.665  0.00  0.00    +0.000 OA
ATOM     25  O   UNL     1       5.693   6.201  15.154  0.00  0.00    +0.000 OA
BRANCH  23  26
ATOM     26  C   UNL     1       7.001   6.673  17.371  0.00  0.00    +0.000 A 
ATOM     27  C   UNL     1       7.173   8.006  16.981  0.00  0.00    +0.000 A 
ATOM     28  C   UNL     1       8.040   8.831  17.702  0.00  0.00    +0.000 A 
ATOM     29  C   UNL     1       8.718   8.329  18.812  0.00  0.00    +0.000 A 
ATOM     30  C   UNL     1       8.520   7.007  19.217  0.00  0.00    +0.000 A 
ATOM     31  C   UNL     1       7.655   6.175  18.501  0.00  0.00    +0.000 A 
ENDBRANCH  23  26
ENDBRANCH   3  23
TORSDOF 3
ENDMDL
MODEL 4
REMARK VINA RESULT:      -8.0      0.854      1.236
REMARK  Name = 
REMARK  5 active torsions:
REMARK  status: ('A' for Active; 'I' for Inactive)
REMARK    1  A    between atoms: C_1  and  C_2
REMARK    2  A    between atoms: C_7  and  C_8
REMARK    3  A    between atoms: C_9  and  C_10
REMARK    4  A    between atoms: N_12  and  S_13
REMARK    5  A    between atoms: S_13  and  C_16
REMARK                            x       y       z     vdW  Elec       q    Type
REMARK                         _______ _______ _______ _____ _____    ______ ____
ROOT
ATOM      1  C   UNL     1       3.139   6.585  18.789  0.00  0.00    +0.000 A 
ATOM      2  C   UNL     1       4.448   6.723  18.391  0.00  0.00    +0.000 A 
ATOM      3  N   UNL     1       4.963   5.466  18.201  0.00  0.00    +0.000 N 
ATOM      4  C   UNL     1       3.978   4.500  18.339  0.00  0.00    +0.000 A 
ATOM      5  C   UNL     1       3.976   3.099  18.186  0.00  0.00    +0.000 A 
ATOM      6  C   UNL     1       2.770   2.409  18.360  0.00  0.00    +0.000 A 
ATOM      7  C   UNL     1       1.612   3.092  18.682  0.00  0.00    +0.000 A 
ATOM      8  F   UNL     1       0.461   2.416  18.804  0.00  0.00    +0.000 F 
ATOM      9  C   UNL     1       1.610   4.470  18.875  0.00  0.00    +0.000 A 
ATOM     10  C   UNL     1       2.813   5.194  18.717  0.00  0.00    +0.000 A 
ENDROOT
BRANCH   1  19
ATOM     11  C   UNL     1      -0.599  10.158  23.457  0.00  0.00    +0.000 C 
ATOM     12  C   UNL     1       0.403   9.524  22.525  0.00  0.00    +0.000 C 
ATOM     13  O   UNL     1       1.496   9.133  22.921  0.00  0.00    +0.000 OA
ATOM     14  N   UNL     1      -0.061   9.421  21.231  0.00  0.00    +0.000 N 
ATOM     15  C   UNL     1       0.763   8.957  20.242  0.00  0.00    +0.000 A 
ATOM     16  N   UNL     1       0.831   9.479  19.041  0.00  0.00    +0.000 NA
ATOM     17  C   UNL     1       1.835   8.789  18.394  0.00  0.00    +0.000 A 
ATOM     18  C   UNL     1       2.249   9.214  17.041  0.00  0.00    +0.000 C 
ATOM     19  C   UNL     1       2.235   7.702  19.153  0.00  0.00    +0.000 A 
ATOM     20  N   UNL     1       1.596   7.873  20.360  0.00  0.00    +0.000 N 
ATOM     21  H   UNL     1      -0.758  10.081  20.912  0.00  0.00    +0.000 HD
ATOM     22  H   UNL     1       1.723   7.329  21.198  0.00  0.00    +0.000 HD
ENDBRANCH   1  19
BRANCH   3  23
ATOM     23  S   UNL     1       6.576   5.214  17.693  0.00  0.00    +0.000 S 
ATOM     24  O   UNL     1       7.210   6.516  17.823  0.00  0.00    +0.000 OA
ATOM     25  O   UNL     1       7.075   4.053  18.393  0.00  0.00    +0.000 OA
BRANCH  23  26
ATOM     26  C   UNL     1       6.469   4.816  15.965  0.00  0.00    +0.000 A 
ATOM     27  C   UNL     1       5.268   4.322  15.445  0.00  0.00    +0.000 A 
ATOM     28  C   UNL     1       5.171   4.034  14.081  0.00  0.00    +0.000 A 
ATOM     29  C   UNL     1       6.264   4.253  13.243  0.00  0.00    +0.000 A 
ATOM     30  C   UNL     1       7.450   4.776  13.761  0.00  0.00    +0.000 A 
ATOM     31  C   UNL     1       7.556   5.066  15.124  0.00  0.00    +0.000 A 
ENDBRANCH  23  26
ENDBRANCH   3  23
TORSDOF 3
ENDMDL
MODEL 5
REMARK VINA RESULT:      -8.0      2.831      3.728
REMARK  Name = 
REMARK  5 active torsions:
REMARK  status: ('A' for Active; 'I' for Inactive)
REMARK    1  A    between atoms: C_1  and  C_2
REMARK    2  A    between atoms: C_7  and  C_8
REMARK    3  A    between atoms: C_9  and  C_10
REMARK    4  A    between atoms: N_12  and  S_13
REMARK    5  A    between atoms: S_13  and  C_16
REMARK                            x       y       z     vdW  Elec       q    Type
REMARK                         _______ _______ _______ _____ _____    ______ ____
ROOT
ATOM      1  C   UNL     1       2.318   7.413  18.653  0.00  0.00    +0.000 A 
ATOM      2  C   UNL     1       3.333   7.496  17.729  0.00  0.00    +0.000 A 
ATOM      3  N   UNL     1       4.054   6.331  17.793  0.00  0.00    +0.000 N 
ATOM      4  C   UNL     1       3.454   5.422  18.652  0.00  0.00    +0.000 A 
ATOM      5  C   UNL     1       3.757   4.093  19.010  0.00  0.00    +0.000 A 
ATOM      6  C   UNL     1       2.900   3.428  19.896  0.00  0.00    +0.000 A 
ATOM      7  C   UNL     1       1.787   4.069  20.409  0.00  0.00    +0.000 A 
ATOM      8  F   UNL     1       0.959   3.399  21.223  0.00  0.00    +0.000 F 
ATOM      9  C   UNL     1       1.501   5.393  20.093  0.00  0.00    +0.000 A 
ATOM     10  C   UNL     1       2.351   6.095  19.211  0.00  0.00    +0.000 A 
ENDROOT
BRANCH   1  19
ATOM     11  C   UNL     1      -2.886  11.632  16.745  0.00  0.00    +0.000 C 
ATOM     12  C   UNL     1      -1.940  10.551  17.204  0.00  0.00    +0.000 C 
ATOM     13  O   UNL     1      -2.018   9.402  16.781  0.00  0.00    +0.000 OA
ATOM     14  N   UNL     1      -0.999  11.010  18.101  0.00  0.00    +0.000 N 
ATOM     15  C   UNL     1      -0.128  10.133  18.689  0.00  0.00    +0.000 A 
ATOM     16  N   UNL     1       0.205  10.171  19.956  0.00  0.00    +0.000 NA
ATOM     17  C   UNL     1       1.018   9.074  20.158  0.00  0.00    +0.000 A 
ATOM     18  C   UNL     1       1.477   8.757  21.526  0.00  0.00    +0.000 C 
ATOM     19  C   UNL     1       1.338   8.487  18.946  0.00  0.00    +0.000 A 
ATOM     20  N   UNL     1       0.536   9.128  18.031  0.00  0.00    +0.000 N 
ATOM     21  H   UNL     1      -1.227  11.812  18.674  0.00  0.00    +0.000 HD
ATOM     22  H   UNL     1       0.421   8.900  17.056  0.00  0.00    +0.000 HD
ENDBRANCH   1  19
BRANCH   3  23
ATOM     23  S   UNL     1       5.405   6.045  16.785  0.00  0.00    +0.000 S 
ATOM     24  O   UNL     1       5.666   4.620  16.916  0.00  0.00    +0.000 OA
ATOM     25  O   UNL     1       5.126   6.651  15.503  0.00  0.00    +0.000 OA
BRANCH  23  26
ATOM     26  C   UNL     1       6.749   6.929  17.537  0.00  0.00    +0.000 A 
ATOM     27  C   UNL     1       6.995   8.255  17.165  0.00  0.00    +0.000 A 
ATOM     28  C   UNL     1       8.035   8.962  17.775  0.00  0.00    +0.000 A 
ATOM     29  C   UNL     1       8.811   8.351  18.759  0.00  0.00    +0.000 A 
ATOM     30  C   UNL     1       8.542   7.038  19.149  0.00  0.00    +0.000 A 
ATOM     31  C   UNL     1       7.506   6.323  18.544  0.00  0.00    +0.000 A 
ENDBRANCH  23  26
ENDBRANCH   3  23
TORSDOF 3
ENDMDL
MODEL 6
REMARK VINA RESULT:      -7.8      2.783      7.770
REMARK  Name = 
REMARK  5 active torsions:
REMARK  status: ('A' for Active; 'I' for Inactive)
REMARK    1  A    between atoms: C_1  and  C_2
REMARK    2  A    between atoms: C_7  and  C_8
REMARK    3  A    between atoms: C_9  and  C_10
REMARK    4  A    between atoms: N_12  and  S_13
REMARK    5  A    between atoms: S_13  and  C_16
REMARK                            x       y       z     vdW  Elec       q    Type
REMARK                         _______ _______ _______ _____ _____    ______ ____
ROOT
ATOM      1  C   UNL     1       4.059   6.455  17.529  0.00  0.00    +0.000 A 
ATOM      2  C   UNL     1       3.497   7.707  17.427  0.00  0.00    +0.000 A 
ATOM      3  N   UNL     1       2.463   7.775  18.327  0.00  0.00    +0.000 N 
ATOM      4  C   UNL     1       2.415   6.636  19.116  0.00  0.00    +0.000 A 
ATOM      5  C   UNL     1       1.602   6.250  20.200  0.00  0.00    +0.000 A 
ATOM      6  C   UNL     1       1.850   5.018  20.818  0.00  0.00    +0.000 A 
ATOM      7  C   UNL     1       2.869   4.200  20.365  0.00  0.00    +0.000 A 
ATOM      8  F   UNL     1       3.115   3.044  20.998  0.00  0.00    +0.000 F 
ATOM      9  C   UNL     1       3.652   4.553  19.271  0.00  0.00    +0.000 A 
ATOM     10  C   UNL     1       3.420   5.784  18.619  0.00  0.00    +0.000 A 
ENDROOT
BRANCH   1  19
ATOM     11  C   UNL     1       6.471   2.707  12.176  0.00  0.00    +0.000 C 
ATOM     12  C   UNL     1       5.912   3.699  13.164  0.00  0.00    +0.000 C 
ATOM     13  O   UNL     1       4.877   4.318  12.943  0.00  0.00    +0.000 OA
ATOM     14  N   UNL     1       6.670   3.795  14.312  0.00  0.00    +0.000 N 
ATOM     15  C   UNL     1       6.353   4.722  15.268  0.00  0.00    +0.000 A 
ATOM     16  N   UNL     1       7.238   5.452  15.901  0.00  0.00    +0.000 NA
ATOM     17  C   UNL     1       6.509   6.310  16.697  0.00  0.00    +0.000 A 
ATOM     18  C   UNL     1       7.212   7.358  17.465  0.00  0.00    +0.000 C 
ATOM     19  C   UNL     1       5.172   5.949  16.691  0.00  0.00    +0.000 A 
ATOM     20  N   UNL     1       5.082   4.985  15.713  0.00  0.00    +0.000 N 
ATOM     21  H   UNL     1       7.657   3.575  14.261  0.00  0.00    +0.000 HD
ATOM     22  H   UNL     1       4.243   4.557  15.356  0.00  0.00    +0.000 HD
ENDBRANCH   1  19
BRANCH   3  23
ATOM     23  S   UNL     1       1.513   9.185  18.510  0.00  0.00    +0.000 S 
ATOM     24  O   UNL     1       2.439  10.284  18.288  0.00  0.00    +0.000 OA
ATOM     25  O   UNL     1       0.327   9.016  17.702  0.00  0.00    +0.000 OA
BRANCH  23  26
ATOM     26  C   UNL     1       1.023   9.205  20.217  0.00  0.00    +0.000 A 
ATOM     27  C   UNL     1       2.003   9.259  21.214  0.00  0.00    +0.000 A 
ATOM     28  C   UNL     1       1.620   9.303  22.558  0.00  0.00    +0.000 A 
ATOM     29  C   UNL     1       0.268   9.307  22.898  0.00  0.00    +0.000 A 
ATOM     30  C   UNL     1      -0.707   9.284  21.898  0.00  0.00    +0.000 A 
ATOM     31  C   UNL     1      -0.333   9.239  20.553  0.00  0.00    +0.000 A 
ENDBRANCH  23  26
ENDBRANCH   3  23
TORSDOF 3
ENDMDL
MODEL 7
REMARK VINA RESULT:      -7.7      2.253      2.856
REMARK  Name = 
REMARK  5 active torsions:
REMARK  status: ('A' for Active; 'I' for Inactive)
REMARK    1  A    between atoms: C_1  and  C_2
REMARK    2  A    between atoms: C_7  and  C_8
REMARK    3  A    between atoms: C_9  and  C_10
REMARK    4  A    between atoms: N_12  and  S_13
REMARK    5  A    between atoms: S_13  and  C_16
REMARK                            x       y       z     vdW  Elec       q    Type
REMARK                         _______ _______ _______ _____ _____    ______ ____
ROOT
ATOM      1  C   UNL     1       2.856   7.023  18.295  0.00  0.00    +0.000 A 
ATOM      2  C   UNL     1       4.127   7.296  17.846  0.00  0.00    +0.000 A 
ATOM      3  N   UNL     1       4.758   6.098  17.621  0.00  0.00    +0.000 N 
ATOM      4  C   UNL     1       3.882   5.036  17.788  0.00  0.00    +0.000 A 
ATOM      5  C   UNL     1       4.015   3.644  17.620  0.00  0.00    +0.000 A 
ATOM      6  C   UNL     1       2.893   2.833  17.836  0.00  0.00    +0.000 A 
ATOM      7  C   UNL     1       1.686   3.393  18.211  0.00  0.00    +0.000 A 
ATOM      8  F   UNL     1       0.616   2.603  18.372  0.00  0.00    +0.000 F 
ATOM      9  C   UNL     1       1.553   4.762  18.419  0.00  0.00    +0.000 A 
ATOM     10  C   UNL     1       2.669   5.606  18.221  0.00  0.00    +0.000 A 
ENDROOT
BRANCH   1  19
ATOM     11  C   UNL     1      -2.318  11.456  16.847  0.00  0.00    +0.000 C 
ATOM     12  C   UNL     1      -1.379  10.323  17.175  0.00  0.00    +0.000 C 
ATOM     13  O   UNL     1      -1.434   9.248  16.588  0.00  0.00    +0.000 OA
ATOM     14  N   UNL     1      -0.471  10.650  18.160  0.00  0.00    +0.000 N 
ATOM     15  C   UNL     1       0.388   9.700  18.643  0.00  0.00    +0.000 A 
ATOM     16  N   UNL     1       0.680   9.555  19.913  0.00  0.00    +0.000 NA
ATOM     17  C   UNL     1       1.494   8.444  19.980  0.00  0.00    +0.000 A 
ATOM     18  C   UNL     1       1.912   7.933  21.302  0.00  0.00    +0.000 C 
ATOM     19  C   UNL     1       1.859   8.040  18.707  0.00  0.00    +0.000 A 
ATOM     20  N   UNL     1       1.080   8.804  17.869  0.00  0.00    +0.000 N 
ATOM     21  H   UNL     1      -0.724  11.360  18.836  0.00  0.00    +0.000 HD
ATOM     22  H   UNL     1       0.999   8.719  16.868  0.00  0.00    +0.000 HD
ENDBRANCH   1  19
BRANCH   3  23
ATOM     23  S   UNL     1       6.365   6.015  17.046  0.00  0.00    +0.000 S 
ATOM     24  O   UNL     1       6.739   7.398  16.797  0.00  0.00    +0.000 OA
ATOM     25  O   UNL     1       7.111   5.180  17.959  0.00  0.00    +0.000 OA
BRANCH  23  26
ATOM     26  C   UNL     1       6.263   5.176  15.484  0.00  0.00    +0.000 A 
ATOM     27  C   UNL     1       5.036   4.656  15.060  0.00  0.00    +0.000 A 
ATOM     28  C   UNL     1       4.946   4.019  13.819  0.00  0.00    +0.000 A 
ATOM     29  C   UNL     1       6.073   3.918  13.004  0.00  0.00    +0.000 A 
ATOM     30  C   UNL     1       7.289   4.466  13.417  0.00  0.00    +0.000 A 
ATOM     31  C   UNL     1       7.388   5.103  14.657  0.00  0.00    +0.000 A 
ENDBRANCH  23  26
ENDBRANCH   3  23
TORSDOF 3
ENDMDL
MODEL 8
REMARK VINA RESULT:      -7.6      2.067      2.496
REMARK  Name = 
REMARK  5 active torsions:
REMARK  status: ('A' for Active; 'I' for Inactive)
REMARK    1  A    between atoms: C_1  and  C_2
REMARK    2  A    between atoms: C_7  and  C_8
REMARK    3  A    between atoms: C_9  and  C_10
REMARK    4  A    between atoms: N_12  and  S_13
REMARK    5  A    between atoms: S_13  and  C_16
REMARK                            x       y       z     vdW  Elec       q    Type
REMARK                         _______ _______ _______ _____ _____    ______ ____
ROOT
ATOM      1  C   UNL     1       3.545   6.083  18.438  0.00  0.00    +0.000 A 
ATOM      2  C   UNL     1       4.712   6.489  17.836  0.00  0.00    +0.000 A 
ATOM      3  N   UNL     1       5.343   5.372  17.349  0.00  0.00    +0.000 N 
ATOM      4  C   UNL     1       4.549   4.246  17.504  0.00  0.00    +0.000 A 
ATOM      5  C   UNL     1       4.706   2.898  17.125  0.00  0.00    +0.000 A 
ATOM      6  C   UNL     1       3.668   1.999  17.401  0.00  0.00    +0.000 A 
ATOM      7  C   UNL     1       2.519   2.431  18.038  0.00  0.00    +0.000 A 
ATOM      8  F   UNL     1       1.522   1.562  18.255  0.00  0.00    +0.000 F 
ATOM      9  C   UNL     1       2.370   3.750  18.453  0.00  0.00    +0.000 A 
ATOM     10  C   UNL     1       3.403   4.679  18.198  0.00  0.00    +0.000 A 
ENDROOT
BRANCH   1  19
ATOM     11  C   UNL     1      -0.552  11.713  18.643  0.00  0.00    +0.000 C 
ATOM     12  C   UNL     1       0.139  10.381  18.490  0.00  0.00    +0.000 C 
ATOM     13  O   UNL     1       0.124   9.763  17.431  0.00  0.00    +0.000 OA
ATOM     14  N   UNL     1       0.786   9.980  19.640  0.00  0.00    +0.000 N 
ATOM     15  C   UNL     1       1.379   8.748  19.698  0.00  0.00    +0.000 A 
ATOM     16  N   UNL     1       1.309   7.950  20.736  0.00  0.00    +0.000 NA
ATOM     17  C   UNL     1       1.951   6.790  20.355  0.00  0.00    +0.000 A 
ATOM     18  C   UNL     1       1.948   5.629  21.268  0.00  0.00    +0.000 C 
ATOM     19  C   UNL     1       2.591   6.974  19.141  0.00  0.00    +0.000 A 
ATOM     20  N   UNL     1       2.149   8.201  18.703  0.00  0.00    +0.000 N 
ATOM     21  H   UNL     1       0.443  10.315  20.531  0.00  0.00    +0.000 HD
ATOM     22  H   UNL     1       2.325   8.627  17.807  0.00  0.00    +0.000 HD
ENDBRANCH   1  19
BRANCH   3  23
ATOM     23  S   UNL     1       6.835   5.463  16.519  0.00  0.00    +0.000 S 
ATOM     24  O   UNL     1       7.122   6.886  16.434  0.00  0.00    +0.000 OA
ATOM     25  O   UNL     1       7.745   4.542  17.161  0.00  0.00    +0.000 OA
BRANCH  23  26
ATOM     26  C   UNL     1       6.501   4.862  14.882  0.00  0.00    +0.000 A 
ATOM     27  C   UNL     1       7.504   4.922  13.908  0.00  0.00    +0.000 A 
ATOM     28  C   UNL     1       7.253   4.425  12.626  0.00  0.00    +0.000 A 
ATOM     29  C   UNL     1       6.014   3.860  12.327  0.00  0.00    +0.000 A 
ATOM     30  C   UNL     1       5.027   3.775  13.311  0.00  0.00    +0.000 A 
ATOM     31  C   UNL     1       5.268   4.270  14.595  0.00  0.00    +0.000 A 
ENDBRANCH  23  26
ENDBRANCH   3  23
TORSDOF 3
ENDMDL
MODEL 9
REMARK VINA RESULT:      -7.6      4.756      8.825
REMARK  Name = 
REMARK  5 active torsions:
REMARK  status: ('A' for Active; 'I' for Inactive)
REMARK    1  A    between atoms: C_1  and  C_2
REMARK    2  A    between atoms: C_7  and  C_8
REMARK    3  A    between atoms: C_9  and  C_10
REMARK    4  A    between atoms: N_12  and  S_13
REMARK    5  A    between atoms: S_13  and  C_16
REMARK                            x       y       z     vdW  Elec       q    Type
REMARK                         _______ _______ _______ _____ _____    ______ ____
ROOT
ATOM      1  C   UNL     1       0.981   9.940  19.161  0.00  0.00    +0.000 A 
ATOM      2  C   UNL     1       1.326  11.029  19.926  0.00  0.00    +0.000 A 
ATOM      3  N   UNL     1       0.519  12.075  19.553  0.00  0.00    +0.000 N 
ATOM      4  C   UNL     1      -0.443  11.660  18.645  0.00  0.00    +0.000 A 
ATOM      5  C   UNL     1      -1.521  12.316  18.018  0.00  0.00    +0.000 A 
ATOM      6  C   UNL     1      -2.350  11.577  17.165  0.00  0.00    +0.000 A 
ATOM      7  C   UNL     1      -2.107  10.234  16.943  0.00  0.00    +0.000 A 
ATOM      8  F   UNL     1      -2.938   9.537  16.155  0.00  0.00    +0.000 F 
ATOM      9  C   UNL     1      -1.023   9.586  17.525  0.00  0.00    +0.000 A 
ATOM     10  C   UNL     1      -0.161  10.306  18.382  0.00  0.00    +0.000 A 
ENDROOT
BRANCH   1  19
ATOM     11  C   UNL     1       5.133   5.077  16.395  0.00  0.00    +0.000 C 
ATOM     12  C   UNL     1       4.447   6.233  17.080  0.00  0.00    +0.000 C 
ATOM     13  O   UNL     1       4.829   7.389  16.936  0.00  0.00    +0.000 OA
ATOM     14  N   UNL     1       3.361   5.838  17.834  0.00  0.00    +0.000 N 
ATOM     15  C   UNL     1       2.688   6.754  18.597  0.00  0.00    +0.000 A 
ATOM     16  N   UNL     1       2.268   6.522  19.817  0.00  0.00    +0.000 NA
ATOM     17  C   UNL     1       1.732   7.715  20.256  0.00  0.00    +0.000 A 
ATOM     18  C   UNL     1       1.267   7.827  21.654  0.00  0.00    +0.000 C 
ATOM     19  C   UNL     1       1.649   8.617  19.209  0.00  0.00    +0.000 A 
ATOM     20  N   UNL     1       2.336   8.013  18.181  0.00  0.00    +0.000 N 
ATOM     21  H   UNL     1       3.348   4.898  18.209  0.00  0.00    +0.000 HD
ATOM     22  H   UNL     1       2.571   8.414  17.288  0.00  0.00    +0.000 HD
ENDBRANCH   1  19
BRANCH   3  23
ATOM     23  S   UNL     1       0.636  13.616  20.284  0.00  0.00    +0.000 S 
ATOM     24  O   UNL     1      -0.720  14.139  20.258  0.00  0.00    +0.000 OA
ATOM     25  O   UNL     1       1.364  13.454  21.522  0.00  0.00    +0.000 OA
BRANCH  23  26
ATOM     26  C   UNL     1       1.630  14.588  19.179  0.00  0.00    +0.000 A 
ATOM     27  C   UNL     1       1.288  15.923  18.939  0.00  0.00    +0.000 A 
ATOM     28  C   UNL     1       2.083  16.699  18.091  0.00  0.00    +0.000 A 
ATOM     29  C   UNL     1       3.219  16.146  17.502  0.00  0.00    +0.000 A 
ATOM     30  C   UNL     1       3.574  14.822  17.769  0.00  0.00    +0.000 A 
ATOM     31  C   UNL     1       2.784  14.039  18.614  0.00  0.00    +0.000 A 
ENDBRANCH  23  26
ENDBRANCH   3  23
TORSDOF 3
ENDMDL
