MODEL 1
REMARK VINA RESULT:      -9.6      0.000      0.000
REMARK  Name = 
REMARK  6 active torsions:
REMARK  status: ('A' for Active; 'I' for Inactive)
REMARK    1  A    between atoms: C_1  and  C_2
REMARK    2  A    between atoms: C_6  and  N_7
REMARK    3  A    between atoms: C_8  and  C_10
REMARK    4  A    between atoms: C_10  and  C_11
REMARK    5  A    between atoms: C_11  and  C_12
REMARK    6  A    between atoms: C_12  and  N_13
REMARK                            x       y       z     vdW  Elec       q    Type
REMARK                         _______ _______ _______ _____ _____    ______ ____
ROOT
ATOM      1  N   UNL     1       4.639   5.939  17.261  0.00  0.00    +0.000 N 
ATOM      2  C   UNL     1       4.297   4.653  16.834  0.00  0.00    +0.000 C 
ATOM      3  O   UNL     1       4.965   3.995  16.046  0.00  0.00    +0.000 OA
ATOM      4  C   UNL     1       3.104   4.050  17.511  0.00  0.00    +0.000 A 
ATOM      5  C   UNL     1       2.742   2.721  17.288  0.00  0.00    +0.000 A 
ATOM      6  C   UNL     1       1.809   2.119  18.135  0.00  0.00    +0.000 A 
ATOM      7  C   UNL     1       1.306   2.818  19.240  0.00  0.00    +0.000 A 
ATOM      8  C   UNL     1       1.671   4.155  19.474  0.00  0.00    +0.000 A 
ATOM      9  C   UNL     1       1.282   4.880  20.620  0.00  0.00    +0.000 A 
ATOM     10  C   UNL     1       1.657   6.220  20.795  0.00  0.00    +0.000 A 
ATOM     11  C   UNL     1       2.355   6.884  19.793  0.00  0.00    +0.000 A 
ATOM     12  C   UNL     1       2.763   6.156  18.685  0.00  0.00    +0.000 A 
ATOM     13  C   UNL     1       2.504   4.790  18.542  0.00  0.00    +0.000 A 
ATOM     14  C   UNL     1       3.598   6.765  17.639  0.00  0.00    +0.000 C 
ATOM     15  O   UNL     1       3.368   7.877  17.191  0.00  0.00    +0.000 OA
ENDROOT
BRANCH   1  16
ATOM     16  C   UNL     1       5.749   5.998  18.205  0.00  0.00    +0.000 C 
BRANCH  16  17
ATOM     17  C   UNL     1       7.098   6.266  17.560  0.00  0.00    +0.000 C 
BRANCH  17  18
ATOM     18  C   UNL     1       7.227   7.739  17.205  0.00  0.00    +0.000 C 
BRANCH  18  20
ATOM     19  N   UNL     1       8.289   9.760  17.995  0.00  0.00    +0.000 N 
ATOM     20  C   UNL     1       8.176   8.392  18.180  0.00  0.00    +0.000 C 
ATOM     21  O   UNL     1       8.780   7.710  19.001  0.00  0.00    +0.000 OA
ATOM     22  H   UNL     1       7.559  10.224  17.473  0.00  0.00    +0.000 HD
BRANCH  19  28
ATOM     23  C   UNL     1      12.053  12.899  17.472  0.00  0.00    +0.000 C 
ATOM     24  C   UNL     1      11.123  12.124  18.359  0.00  0.00    +0.000 A 
ATOM     25  C   UNL     1      11.187  12.263  19.749  0.00  0.00    +0.000 A 
ATOM     26  C   UNL     1      10.306  11.558  20.566  0.00  0.00    +0.000 A 
ATOM     27  C   UNL     1       9.341  10.727  19.998  0.00  0.00    +0.000 A 
ATOM     28  C   UNL     1       9.248  10.588  18.611  0.00  0.00    +0.000 A 
ATOM     29  C   UNL     1      10.163  11.266  17.797  0.00  0.00    +0.000 A 
ENDBRANCH  19  28
ENDBRANCH  18  20
ENDBRANCH  17  18
ENDBRANCH  16  17
ENDBRANCH   1  16
TORSDOF 5
ENDMDL
MODEL 2
REMARK VINA RESULT:      -9.4      0.933      1.552
REMARK  Name = 
REMARK  6 active torsions:
REMARK  status: ('A' for Active; 'I' for Inactive)
REMARK    1  A    between atoms: C_1  and  C_2
REMARK    2  A    between atoms: C_6  and  N_7
REMARK    3  A    between atoms: C_8  and  C_10
REMARK    4  A    between atoms: C_10  and  C_11
REMARK    5  A    between atoms: C_11  and  C_12
REMARK    6  A    between atoms: C_12  and  N_13
REMARK                            x       y       z     vdW  Elec       q    Type
REMARK                         _______ _______ _______ _____ _____    ______ ____
ROOT
ATOM      1  N   UNL     1       4.773   5.590  17.253  0.00  0.00    +0.000 N 
ATOM      2  C   UNL     1       4.350   4.297  16.933  0.00  0.00    +0.000 C 
ATOM      3  O   UNL     1       4.979   3.531  16.213  0.00  0.00    +0.000 OA
ATOM      4  C   UNL     1       3.114   3.834  17.643  0.00  0.00    +0.000 A 
ATOM      5  C   UNL     1       2.665   2.518  17.529  0.00  0.00    +0.000 A 
ATOM      6  C   UNL     1       1.688   2.053  18.411  0.00  0.00    +0.000 A 
ATOM      7  C   UNL     1       1.224   2.876  19.446  0.00  0.00    +0.000 A 
ATOM      8  C   UNL     1       1.675   4.201  19.570  0.00  0.00    +0.000 A 
ATOM      9  C   UNL     1       1.326   5.046  20.645  0.00  0.00    +0.000 A 
ATOM     10  C   UNL     1       1.788   6.369  20.710  0.00  0.00    +0.000 A 
ATOM     11  C   UNL     1       2.537   6.896  19.665  0.00  0.00    +0.000 A 
ATOM     12  C   UNL     1       2.905   6.050  18.628  0.00  0.00    +0.000 A 
ATOM     13  C   UNL     1       2.556   4.698  18.599  0.00  0.00    +0.000 A 
ATOM     14  C   UNL     1       3.786   6.512  17.546  0.00  0.00    +0.000 C 
ATOM     15  O   UNL     1       3.634   7.594  17.002  0.00  0.00    +0.000 OA
ENDROOT
BRANCH   1  16
ATOM     16  C   UNL     1       5.877   5.657  18.204  0.00  0.00    +0.000 C 
BRANCH  16  17
ATOM     17  C   UNL     1       7.170   6.196  17.616  0.00  0.00    +0.000 C 
BRANCH  17  18
ATOM     18  C   UNL     1       8.002   6.863  18.701  0.00  0.00    +0.000 C 
BRANCH  18  20
ATOM     19  N   UNL     1       9.134   8.953  19.130  0.00  0.00    +0.000 N 
ATOM     20  C   UNL     1       8.187   8.318  18.345  0.00  0.00    +0.000 C 
ATOM     21  O   UNL     1       7.505   8.827  17.462  0.00  0.00    +0.000 OA
ATOM     22  H   UNL     1       9.795   8.373  19.629  0.00  0.00    +0.000 HD
BRANCH  19  28
ATOM     23  C   UNL     1       9.566  13.047  21.840  0.00  0.00    +0.000 C 
ATOM     24  C   UNL     1       9.556  12.374  20.499  0.00  0.00    +0.000 A 
ATOM     25  C   UNL     1       9.811  13.104  19.334  0.00  0.00    +0.000 A 
ATOM     26  C   UNL     1       9.823  12.469  18.095  0.00  0.00    +0.000 A 
ATOM     27  C   UNL     1       9.602  11.095  18.014  0.00  0.00    +0.000 A 
ATOM     28  C   UNL     1       9.363  10.343  19.166  0.00  0.00    +0.000 A 
ATOM     29  C   UNL     1       9.311  10.994  20.404  0.00  0.00    +0.000 A 
ENDBRANCH  19  28
ENDBRANCH  18  20
ENDBRANCH  17  18
ENDBRANCH  16  17
ENDBRANCH   1  16
TORSDOF 5
ENDMDL
MODEL 3
REMARK VINA RESULT:      -9.0      3.825      5.622
REMARK  Name = 
REMARK  6 active torsions:
REMARK  status: ('A' for Active; 'I' for Inactive)
REMARK    1  A    between atoms: C_1  and  C_2
REMARK    2  A    between atoms: C_6  and  N_7
REMARK    3  A    between atoms: C_8  and  C_10
REMARK    4  A    between atoms: C_10  and  C_11
REMARK    5  A    between atoms: C_11  and  C_12
REMARK    6  A    between atoms: C_12  and  N_13
REMARK                            x       y       z     vdW  Elec       q    Type
REMARK                         _______ _______ _______ _____ _____    ______ ____
ROOT
ATOM      1  N   UNL     1       4.760   5.199  18.048  0.00  0.00    +0.000 N 
ATOM      2  C   UNL     1       4.267   3.956  17.641  0.00  0.00    +0.000 C 
ATOM      3  O   UNL     1       4.934   3.119  17.047  0.00  0.00    +0.000 OA
ATOM      4  C   UNL     1       2.876   3.639  18.099  0.00  0.00    +0.000 A 
ATOM      5  C   UNL     1       2.317   2.378  17.890  0.00  0.00    +0.000 A 
ATOM      6  C   UNL     1       1.145   2.032  18.566  0.00  0.00    +0.000 A 
ATOM      7  C   UNL     1       0.586   2.912  19.501  0.00  0.00    +0.000 A 
ATOM      8  C   UNL     1       1.146   4.183  19.722  0.00  0.00    +0.000 A 
ATOM      9  C   UNL     1       0.694   5.072  20.718  0.00  0.00    +0.000 A 
ATOM     10  C   UNL     1       1.276   6.338  20.882  0.00  0.00    +0.000 A 
ATOM     11  C   UNL     1       2.263   6.769  20.003  0.00  0.00    +0.000 A 
ATOM     12  C   UNL     1       2.726   5.876  19.047  0.00  0.00    +0.000 A 
ATOM     13  C   UNL     1       2.245   4.569  18.940  0.00  0.00    +0.000 A 
ATOM     14  C   UNL     1       3.842   6.226  18.157  0.00  0.00    +0.000 C 
ATOM     15  O   UNL     1       3.915   7.312  17.604  0.00  0.00    +0.000 OA
ENDROOT
BRANCH   1  16
ATOM     16  C   UNL     1       5.664   5.157  19.192  0.00  0.00    +0.000 C 
BRANCH  16  17
ATOM     17  C   UNL     1       7.003   5.832  18.949  0.00  0.00    +0.000 C 
BRANCH  17  18
ATOM     18  C   UNL     1       7.837   5.009  17.979  0.00  0.00    +0.000 C 
BRANCH  18  20
ATOM     19  N   UNL     1       7.256   4.365  15.724  0.00  0.00    +0.000 N 
ATOM     20  C   UNL     1       7.501   5.434  16.570  0.00  0.00    +0.000 C 
ATOM     21  O   UNL     1       7.500   6.623  16.269  0.00  0.00    +0.000 OA
ATOM     22  H   UNL     1       7.035   3.474  16.146  0.00  0.00    +0.000 HD
BRANCH  19  28
ATOM     23  C   UNL     1       4.872   2.928  11.656  0.00  0.00    +0.000 C 
ATOM     24  C   UNL     1       5.966   3.724  12.307  0.00  0.00    +0.000 A 
ATOM     25  C   UNL     1       6.794   4.551  11.542  0.00  0.00    +0.000 A 
ATOM     26  C   UNL     1       7.793   5.304  12.154  0.00  0.00    +0.000 A 
ATOM     27  C   UNL     1       7.955   5.253  13.538  0.00  0.00    +0.000 A 
ATOM     28  C   UNL     1       7.127   4.448  14.323  0.00  0.00    +0.000 A 
ATOM     29  C   UNL     1       6.153   3.661  13.697  0.00  0.00    +0.000 A 
ENDBRANCH  19  28
ENDBRANCH  18  20
ENDBRANCH  17  18
ENDBRANCH  16  17
ENDBRANCH   1  16
TORSDOF 5
ENDMDL
MODEL 4
REMARK VINA RESULT:      -8.9      0.934      1.236
REMARK  Name = 
REMARK  6 active torsions:
REMARK  status: ('A' for Active; 'I' for Inactive)
REMARK    1  A    between atoms: C_1  and  C_2
REMARK    2  A    between atoms: C_6  and  N_7
REMARK    3  A    between atoms: C_8  and  C_10
REMARK    4  A    between atoms: C_10  and  C_11
REMARK    5  A    between atoms: C_11  and  C_12
REMARK    6  A    between atoms: C_12  and  N_13
REMARK                            x       y       z     vdW  Elec       q    Type
REMARK                         _______ _______ _______ _____ _____    ______ ____
ROOT
ATOM      1  N   UNL     1       4.635   5.835  17.482  0.00  0.00    +0.000 N 
ATOM      2  C   UNL     1       4.336   4.553  17.010  0.00  0.00    +0.000 C 
ATOM      3  O   UNL     1       5.062   3.917  16.256  0.00  0.00    +0.000 OA
ATOM      4  C   UNL     1       3.107   3.927  17.595  0.00  0.00    +0.000 A 
ATOM      5  C   UNL     1       2.775   2.599  17.324  0.00  0.00    +0.000 A 
ATOM      6  C   UNL     1       1.795   1.972  18.095  0.00  0.00    +0.000 A 
ATOM      7  C   UNL     1       1.213   2.644  19.178  0.00  0.00    +0.000 A 
ATOM      8  C   UNL     1       1.546   3.981  19.460  0.00  0.00    +0.000 A 
ATOM      9  C   UNL     1       1.074   4.679  20.591  0.00  0.00    +0.000 A 
ATOM     10  C   UNL     1       1.423   6.020  20.815  0.00  0.00    +0.000 A 
ATOM     11  C   UNL     1       2.179   6.709  19.874  0.00  0.00    +0.000 A 
ATOM     12  C   UNL     1       2.667   6.006  18.782  0.00  0.00    +0.000 A 
ATOM     13  C   UNL     1       2.433   4.641  18.598  0.00  0.00    +0.000 A 
ATOM     14  C   UNL     1       3.562   6.643  17.806  0.00  0.00    +0.000 C 
ATOM     15  O   UNL     1       3.350   7.761  17.364  0.00  0.00    +0.000 OA
ENDROOT
BRANCH   1  16
ATOM     16  C   UNL     1       5.679   5.887  18.499  0.00  0.00    +0.000 C 
BRANCH  16  17
ATOM     17  C   UNL     1       7.091   5.864  17.939  0.00  0.00    +0.000 C 
BRANCH  17  18
ATOM     18  C   UNL     1       7.999   6.760  18.768  0.00  0.00    +0.000 C 
BRANCH  18  20
ATOM     19  N   UNL     1       8.912   8.997  18.760  0.00  0.00    +0.000 N 
ATOM     20  C   UNL     1       8.210   8.057  18.024  0.00  0.00    +0.000 C 
ATOM     21  O   UNL     1       7.746   8.203  16.898  0.00  0.00    +0.000 OA
ATOM     22  H   UNL     1       9.451   8.668  19.548  0.00  0.00    +0.000 HD
BRANCH  19  28
ATOM     23  C   UNL     1      11.903  12.900  18.428  0.00  0.00    +0.000 C 
ATOM     24  C   UNL     1      10.541  12.291  18.262  0.00  0.00    +0.000 A 
ATOM     25  C   UNL     1       9.486  13.041  17.733  0.00  0.00    +0.000 A 
ATOM     26  C   UNL     1       8.231  12.463  17.562  0.00  0.00    +0.000 A 
ATOM     27  C   UNL     1       8.028  11.125  17.895  0.00  0.00    +0.000 A 
ATOM     28  C   UNL     1       9.072  10.352  18.408  0.00  0.00    +0.000 A 
ATOM     29  C   UNL     1      10.321  10.950  18.618  0.00  0.00    +0.000 A 
ENDBRANCH  19  28
ENDBRANCH  18  20
ENDBRANCH  17  18
ENDBRANCH  16  17
ENDBRANCH   1  16
TORSDOF 5
ENDMDL
MODEL 5
REMARK VINA RESULT:      -8.8      3.974      7.171
REMARK  Name = 
REMARK  6 active torsions:
REMARK  status: ('A' for Active; 'I' for Inactive)
REMARK    1  A    between atoms: C_1  and  C_2
REMARK    2  A    between atoms: C_6  and  N_7
REMARK    3  A    between atoms: C_8  and  C_10
REMARK    4  A    between atoms: C_10  and  C_11
REMARK    5  A    between atoms: C_11  and  C_12
REMARK    6  A    between atoms: C_12  and  N_13
REMARK                            x       y       z     vdW  Elec       q    Type
REMARK                         _______ _______ _______ _____ _____    ______ ____
ROOT
ATOM      1  N   UNL     1       3.545   3.696  18.654  0.00  0.00    +0.000 N 
ATOM      2  C   UNL     1       3.504   3.479  17.274  0.00  0.00    +0.000 C 
ATOM      3  O   UNL     1       2.522   3.053  16.678  0.00  0.00    +0.000 OA
ATOM      4  C   UNL     1       4.717   3.930  16.519  0.00  0.00    +0.000 A 
ATOM      5  C   UNL     1       4.750   3.908  15.125  0.00  0.00    +0.000 A 
ATOM      6  C   UNL     1       5.771   4.588  14.457  0.00  0.00    +0.000 A 
ATOM      7  C   UNL     1       6.702   5.346  15.179  0.00  0.00    +0.000 A 
ATOM      8  C   UNL     1       6.672   5.378  16.584  0.00  0.00    +0.000 A 
ATOM      9  C   UNL     1       7.513   6.199  17.363  0.00  0.00    +0.000 A 
ATOM     10  C   UNL     1       7.456   6.177  18.765  0.00  0.00    +0.000 A 
ATOM     11  C   UNL     1       6.618   5.277  19.413  0.00  0.00    +0.000 A 
ATOM     12  C   UNL     1       5.770   4.496  18.640  0.00  0.00    +0.000 A 
ATOM     13  C   UNL     1       5.724   4.585  17.247  0.00  0.00    +0.000 A 
ATOM     14  C   UNL     1       4.782   3.602  19.261  0.00  0.00    +0.000 C 
ATOM     15  O   UNL     1       5.062   2.883  20.207  0.00  0.00    +0.000 OA
ENDROOT
BRANCH   1  16
ATOM     16  C   UNL     1       2.802   4.864  19.114  0.00  0.00    +0.000 C 
BRANCH  16  17
ATOM     17  C   UNL     1       2.410   5.826  18.005  0.00  0.00    +0.000 C 
BRANCH  17  18
ATOM     18  C   UNL     1       3.068   7.179  18.227  0.00  0.00    +0.000 C 
BRANCH  18  20
ATOM     19  N   UNL     1       1.447   8.941  17.909  0.00  0.00    +0.000 N 
ATOM     20  C   UNL     1       2.056   8.116  18.839  0.00  0.00    +0.000 C 
ATOM     21  O   UNL     1       1.872   8.117  20.052  0.00  0.00    +0.000 OA
ATOM     22  H   UNL     1       1.492   8.666  16.937  0.00  0.00    +0.000 HD
BRANCH  19  28
ATOM     23  C   UNL     1      -3.073  10.905  17.934  0.00  0.00    +0.000 C 
ATOM     24  C   UNL     1      -1.603  11.029  18.207  0.00  0.00    +0.000 A 
ATOM     25  C   UNL     1      -1.083  12.191  18.785  0.00  0.00    +0.000 A 
ATOM     26  C   UNL     1       0.279  12.292  19.056  0.00  0.00    +0.000 A 
ATOM     27  C   UNL     1       1.127  11.223  18.773  0.00  0.00    +0.000 A 
ATOM     28  C   UNL     1       0.626  10.045  18.213  0.00  0.00    +0.000 A 
ATOM     29  C   UNL     1      -0.737   9.966  17.903  0.00  0.00    +0.000 A 
ENDBRANCH  19  28
ENDBRANCH  18  20
ENDBRANCH  17  18
ENDBRANCH  16  17
ENDBRANCH   1  16
TORSDOF 5
ENDMDL
MODEL 6
REMARK VINA RESULT:      -8.7      3.974      6.745
REMARK  Name = 
REMARK  6 active torsions:
REMARK  status: ('A' for Active; 'I' for Inactive)
REMARK    1  A    between atoms: C_1  and  C_2
REMARK    2  A    between atoms: C_6  and  N_7
REMARK    3  A    between atoms: C_8  and  C_10
REMARK    4  A    between atoms: C_10  and  C_11
REMARK    5  A    between atoms: C_11  and  C_12
REMARK    6  A    between atoms: C_12  and  N_13
REMARK                            x       y       z     vdW  Elec       q    Type
REMARK                         _______ _______ _______ _____ _____    ______ ____
ROOT
ATOM      1  N   UNL     1       3.526   3.671  18.655  0.00  0.00    +0.000 N 
ATOM      2  C   UNL     1       3.479   3.475  17.271  0.00  0.00    +0.000 C 
ATOM      3  O   UNL     1       2.494   3.056  16.675  0.00  0.00    +0.000 OA
ATOM      4  C   UNL     1       4.687   3.942  16.517  0.00  0.00    +0.000 A 
ATOM      5  C   UNL     1       4.712   3.942  15.122  0.00  0.00    +0.000 A 
ATOM      6  C   UNL     1       5.727   4.635  14.460  0.00  0.00    +0.000 A 
ATOM      7  C   UNL     1       6.659   5.385  15.188  0.00  0.00    +0.000 A 
ATOM      8  C   UNL     1       6.637   5.394  16.594  0.00  0.00    +0.000 A 
ATOM      9  C   UNL     1       7.480   6.206  17.382  0.00  0.00    +0.000 A 
ATOM     10  C   UNL     1       7.431   6.161  18.783  0.00  0.00    +0.000 A 
ATOM     11  C   UNL     1       6.600   5.248  19.421  0.00  0.00    +0.000 A 
ATOM     12  C   UNL     1       5.749   4.478  18.641  0.00  0.00    +0.000 A 
ATOM     13  C   UNL     1       5.695   4.588  17.250  0.00  0.00    +0.000 A 
ATOM     14  C   UNL     1       4.768   3.572  19.254  0.00  0.00    +0.000 C 
ATOM     15  O   UNL     1       5.055   2.839  20.186  0.00  0.00    +0.000 OA
ENDROOT
BRANCH   1  16
ATOM     16  C   UNL     1       2.783   4.830  19.137  0.00  0.00    +0.000 C 
BRANCH  16  17
ATOM     17  C   UNL     1       2.367   5.799  18.044  0.00  0.00    +0.000 C 
BRANCH  17  18
ATOM     18  C   UNL     1       3.067   7.135  18.233  0.00  0.00    +0.000 C 
BRANCH  18  20
ATOM     19  N   UNL     1       1.570   9.005  17.912  0.00  0.00    +0.000 N 
ATOM     20  C   UNL     1       2.088   8.114  18.837  0.00  0.00    +0.000 C 
ATOM     21  O   UNL     1       1.854   8.086  20.040  0.00  0.00    +0.000 OA
ATOM     22  H   UNL     1       1.640   8.760  16.934  0.00  0.00    +0.000 HD
BRANCH  19  28
ATOM     23  C   UNL     1       1.504  13.761  19.202  0.00  0.00    +0.000 C 
ATOM     24  C   UNL     1       0.768  12.493  18.881  0.00  0.00    +0.000 A 
ATOM     25  C   UNL     1      -0.630  12.471  18.850  0.00  0.00    +0.000 A 
ATOM     26  C   UNL     1      -1.306  11.297  18.529  0.00  0.00    +0.000 A 
ATOM     27  C   UNL     1      -0.590  10.143  18.215  0.00  0.00    +0.000 A 
ATOM     28  C   UNL     1       0.807  10.148  18.222  0.00  0.00    +0.000 A 
ATOM     29  C   UNL     1       1.481  11.319  18.586  0.00  0.00    +0.000 A 
ENDBRANCH  19  28
ENDBRANCH  18  20
ENDBRANCH  17  18
ENDBRANCH  16  17
ENDBRANCH   1  16
TORSDOF 5
ENDMDL
MODEL 7
REMARK VINA RESULT:      -8.7      1.689      2.610
REMARK  Name = 
REMARK  6 active torsions:
REMARK  status: ('A' for Active; 'I' for Inactive)
REMARK    1  A    between atoms: C_1  and  C_2
REMARK    2  A    between atoms: C_6  and  N_7
REMARK    3  A    between atoms: C_8  and  C_10
REMARK    4  A    between atoms: C_10  and  C_11
REMARK    5  A    between atoms: C_11  and  C_12
REMARK    6  A    between atoms: C_12  and  N_13
REMARK                            x       y       z     vdW  Elec       q    Type
REMARK                         _______ _______ _______ _____ _____    ______ ____
ROOT
ATOM      1  N   UNL     1       5.503   4.351  18.238  0.00  0.00    +0.000 N 
ATOM      2  C   UNL     1       4.734   3.608  19.138  0.00  0.00    +0.000 C 
ATOM      3  O   UNL     1       5.132   2.597  19.704  0.00  0.00    +0.000 OA
ATOM      4  C   UNL     1       3.403   4.204  19.486  0.00  0.00    +0.000 A 
ATOM      5  C   UNL     1       2.600   3.645  20.481  0.00  0.00    +0.000 A 
ATOM      6  C   UNL     1       1.514   4.374  20.967  0.00  0.00    +0.000 A 
ATOM      7  C   UNL     1       1.284   5.681  20.518  0.00  0.00    +0.000 A 
ATOM      8  C   UNL     1       2.092   6.253  19.520  0.00  0.00    +0.000 A 
ATOM      9  C   UNL     1       1.978   7.594  19.098  0.00  0.00    +0.000 A 
ATOM     10  C   UNL     1       2.798   8.109  18.083  0.00  0.00    +0.000 A 
ATOM     11  C   UNL     1       3.686   7.274  17.416  0.00  0.00    +0.000 A 
ATOM     12  C   UNL     1       3.817   5.966  17.859  0.00  0.00    +0.000 A 
ATOM     13  C   UNL     1       3.098   5.462  18.945  0.00  0.00    +0.000 A 
ATOM     14  C   UNL     1       4.815   5.060  17.271  0.00  0.00    +0.000 C 
ATOM     15  O   UNL     1       4.989   4.980  16.066  0.00  0.00    +0.000 OA
ENDROOT
BRANCH   1  16
ATOM     16  C   UNL     1       6.561   5.149  18.846  0.00  0.00    +0.000 C 
BRANCH  16  17
ATOM     17  C   UNL     1       7.073   6.275  17.964  0.00  0.00    +0.000 C 
BRANCH  17  18
ATOM     18  C   UNL     1       8.293   6.925  18.598  0.00  0.00    +0.000 C 
BRANCH  18  20
ATOM     19  N   UNL     1       9.142   9.139  19.059  0.00  0.00    +0.000 N 
ATOM     20  C   UNL     1       8.288   8.396  18.262  0.00  0.00    +0.000 C 
ATOM     21  O   UNL     1       7.548   8.824  17.382  0.00  0.00    +0.000 OA
ATOM     22  H   UNL     1       9.872   8.643  19.553  0.00  0.00    +0.000 HD
BRANCH  19  28
ATOM     23  C   UNL     1       9.571  13.200  21.819  0.00  0.00    +0.000 C 
ATOM     24  C   UNL     1       9.378  12.558  20.476  0.00  0.00    +0.000 A 
ATOM     25  C   UNL     1       9.293  13.339  19.320  0.00  0.00    +0.000 A 
ATOM     26  C   UNL     1       9.137  12.736  18.074  0.00  0.00    +0.000 A 
ATOM     27  C   UNL     1       9.087  11.347  17.974  0.00  0.00    +0.000 A 
ATOM     28  C   UNL     1       9.189  10.546  19.114  0.00  0.00    +0.000 A 
ATOM     29  C   UNL     1       9.303  11.159  20.367  0.00  0.00    +0.000 A 
ENDBRANCH  19  28
ENDBRANCH  18  20
ENDBRANCH  17  18
ENDBRANCH  16  17
ENDBRANCH   1  16
TORSDOF 5
ENDMDL
MODEL 8
REMARK VINA RESULT:      -8.7      1.251      1.642
REMARK  Name = 
REMARK  6 active torsions:
REMARK  status: ('A' for Active; 'I' for Inactive)
REMARK    1  A    between atoms: C_1  and  C_2
REMARK    2  A    between atoms: C_6  and  N_7
REMARK    3  A    between atoms: C_8  and  C_10
REMARK    4  A    between atoms: C_10  and  C_11
REMARK    5  A    between atoms: C_11  and  C_12
REMARK    6  A    between atoms: C_12  and  N_13
REMARK                            x       y       z     vdW  Elec       q    Type
REMARK                         _______ _______ _______ _____ _____    ______ ____
ROOT
ATOM      1  N   UNL     1       4.860   4.599  17.467  0.00  0.00    +0.000 N 
ATOM      2  C   UNL     1       4.134   3.409  17.568  0.00  0.00    +0.000 C 
ATOM      3  O   UNL     1       4.548   2.322  17.185  0.00  0.00    +0.000 OA
ATOM      4  C   UNL     1       2.836   3.513  18.311  0.00  0.00    +0.000 A 
ATOM      5  C   UNL     1       2.084   2.377  18.612  0.00  0.00    +0.000 A 
ATOM      6  C   UNL     1       1.041   2.477  19.534  0.00  0.00    +0.000 A 
ATOM      7  C   UNL     1       0.806   3.684  20.205  0.00  0.00    +0.000 A 
ATOM      8  C   UNL     1       1.564   4.832  19.911  0.00  0.00    +0.000 A 
ATOM      9  C   UNL     1       1.447   6.045  20.619  0.00  0.00    +0.000 A 
ATOM     10  C   UNL     1       2.214   7.167  20.271  0.00  0.00    +0.000 A 
ATOM     11  C   UNL     1       3.047   7.122  19.159  0.00  0.00    +0.000 A 
ATOM     12  C   UNL     1       3.182   5.916  18.488  0.00  0.00    +0.000 A 
ATOM     13  C   UNL     1       2.520   4.752  18.888  0.00  0.00    +0.000 A 
ATOM     14  C   UNL     1       4.128   5.767  17.373  0.00  0.00    +0.000 C 
ATOM     15  O   UNL     1       4.229   6.605  16.492  0.00  0.00    +0.000 OA
ENDROOT
BRANCH   1  16
ATOM     16  C   UNL     1       5.965   4.726  18.410  0.00  0.00    +0.000 C 
BRANCH  16  17
ATOM     17  C   UNL     1       7.189   5.422  17.840  0.00  0.00    +0.000 C 
BRANCH  17  18
ATOM     18  C   UNL     1       7.804   6.341  18.884  0.00  0.00    +0.000 C 
BRANCH  18  20
ATOM     19  N   UNL     1       8.758   8.551  19.093  0.00  0.00    +0.000 N 
ATOM     20  C   UNL     1       8.159   7.653  18.226  0.00  0.00    +0.000 C 
ATOM     21  O   UNL     1       7.881   7.845  17.047  0.00  0.00    +0.000 OA
ATOM     22  H   UNL     1       9.160   8.184  19.944  0.00  0.00    +0.000 HD
BRANCH  19  28
ATOM     23  C   UNL     1      11.466  12.572  19.981  0.00  0.00    +0.000 C 
ATOM     24  C   UNL     1      10.325  11.907  19.268  0.00  0.00    +0.000 A 
ATOM     25  C   UNL     1       9.567  12.612  18.328  0.00  0.00    +0.000 A 
ATOM     26  C   UNL     1       8.524  11.983  17.653  0.00  0.00    +0.000 A 
ATOM     27  C   UNL     1       8.247  10.639  17.895  0.00  0.00    +0.000 A 
ATOM     28  C   UNL     1       9.004   9.910  18.816  0.00  0.00    +0.000 A 
ATOM     29  C   UNL     1      10.023  10.559  19.522  0.00  0.00    +0.000 A 
ENDBRANCH  19  28
ENDBRANCH  18  20
ENDBRANCH  17  18
ENDBRANCH  16  17
ENDBRANCH   1  16
TORSDOF 5
ENDMDL
MODEL 9
REMARK VINA RESULT:      -8.7      3.919      7.103
REMARK  Name = 
REMARK  6 active torsions:
REMARK  status: ('A' for Active; 'I' for Inactive)
REMARK    1  A    between atoms: C_1  and  C_2
REMARK    2  A    between atoms: C_6  and  N_7
REMARK    3  A    between atoms: C_8  and  C_10
REMARK    4  A    between atoms: C_10  and  C_11
REMARK    5  A    between atoms: C_11  and  C_12
REMARK    6  A    between atoms: C_12  and  N_13
REMARK                            x       y       z     vdW  Elec       q    Type
REMARK                         _______ _______ _______ _____ _____    ______ ____
ROOT
ATOM      1  N   UNL     1       3.502   3.902  18.700  0.00  0.00    +0.000 N 
ATOM      2  C   UNL     1       3.447   3.727  17.314  0.00  0.00    +0.000 C 
ATOM      3  O   UNL     1       2.442   3.375  16.710  0.00  0.00    +0.000 OA
ATOM      4  C   UNL     1       4.684   4.130  16.569  0.00  0.00    +0.000 A 
ATOM      5  C   UNL     1       4.713   4.146  15.174  0.00  0.00    +0.000 A 
ATOM      6  C   UNL     1       5.769   4.785  14.524  0.00  0.00    +0.000 A 
ATOM      7  C   UNL     1       6.743   5.469  15.264  0.00  0.00    +0.000 A 
ATOM      8  C   UNL     1       6.717   5.462  16.669  0.00  0.00    +0.000 A 
ATOM      9  C   UNL     1       7.605   6.211  17.469  0.00  0.00    +0.000 A 
ATOM     10  C   UNL     1       7.549   6.152  18.870  0.00  0.00    +0.000 A 
ATOM     11  C   UNL     1       6.662   5.282  19.494  0.00  0.00    +0.000 A 
ATOM     12  C   UNL     1       5.770   4.574  18.702  0.00  0.00    +0.000 A 
ATOM     13  C   UNL     1       5.727   4.705  17.312  0.00  0.00    +0.000 A 
ATOM     14  C   UNL     1       4.734   3.720  19.301  0.00  0.00    +0.000 C 
ATOM     15  O   UNL     1       4.973   2.959  20.224  0.00  0.00    +0.000 OA
ENDROOT
BRANCH   1  16
ATOM     16  C   UNL     1       2.828   5.096  19.196  0.00  0.00    +0.000 C 
BRANCH  16  17
ATOM     17  C   UNL     1       2.382   6.054  18.104  0.00  0.00    +0.000 C 
BRANCH  17  18
ATOM     18  C   UNL     1       3.289   7.275  18.075  0.00  0.00    +0.000 C 
BRANCH  18  20
ATOM     19  N   UNL     1       1.676   8.653  19.231  0.00  0.00    +0.000 N 
ATOM     20  C   UNL     1       2.431   8.517  18.078  0.00  0.00    +0.000 C 
ATOM     21  O   UNL     1       2.426   9.264  17.106  0.00  0.00    +0.000 OA
ATOM     22  H   UNL     1       1.962   8.125  20.044  0.00  0.00    +0.000 HD
BRANCH  19  28
ATOM     23  C   UNL     1      -0.639  11.760  22.277  0.00  0.00    +0.000 C 
ATOM     24  C   UNL     1      -0.521  11.111  20.929  0.00  0.00    +0.000 A 
ATOM     25  C   UNL     1      -1.389  11.464  19.891  0.00  0.00    +0.000 A 
ATOM     26  C   UNL     1      -1.260  10.874  18.636  0.00  0.00    +0.000 A 
ATOM     27  C   UNL     1      -0.249   9.944  18.404  0.00  0.00    +0.000 A 
ATOM     28  C   UNL     1       0.641   9.589  19.421  0.00  0.00    +0.000 A 
ATOM     29  C   UNL     1       0.480  10.154  20.692  0.00  0.00    +0.000 A 
ENDBRANCH  19  28
ENDBRANCH  18  20
ENDBRANCH  17  18
ENDBRANCH  16  17
ENDBRANCH   1  16
TORSDOF 5
ENDMDL
