MODEL 1
REMARK VINA RESULT:      -5.1      0.000      0.000
REMARK  Name = 
REMARK  5 active torsions:
REMARK  status: ('A' for Active; 'I' for Inactive)
REMARK    1  A    between atoms: C_1  and  O_2
REMARK    2  A    between atoms: O_2  and  N_3
REMARK    3  A    between atoms: C_4  and  C_5
REMARK    4  A    between atoms: C_8  and  C_9
REMARK    5  A    between atoms: C_9  and  O_10
REMARK                            x       y       z     vdW  Elec       q    Type
REMARK                         _______ _______ _______ _____ _____    ______ ____
ROOT
ATOM      1  C   UNL     1       4.583   4.165  17.401  0.00  0.00    +0.000 C 
ATOM      2  C   UNL     1       3.346   3.798  17.020  0.00  0.00    +0.000 C 
ATOM      3  C   UNL     1       2.280   3.461  17.947  0.00  0.00    +0.000 C 
ATOM      4  C   UNL     1       2.474   2.956  19.182  0.00  0.00    +0.000 C 
ATOM      5  S   UNL     1       4.090   2.649  19.794  0.00  0.00    +0.000 S 
ATOM      6  S   UNL     1       5.045   4.324  19.059  0.00  0.00    +0.000 S 
ENDROOT
BRANCH   1   8
ATOM      7  N   UNL     1       6.883   4.416  16.605  0.00  0.00    +0.000 NA
ATOM      8  C   UNL     1       5.609   4.474  16.372  0.00  0.00    +0.000 C 
BRANCH   7  10
ATOM      9  C   UNL     1       6.730   4.640  14.338  0.00  0.00    +0.000 C 
ATOM     10  O   UNL     1       7.589   4.808  15.462  0.00  0.00    +0.000 OA
ENDBRANCH   7  10
ENDBRANCH   1   8
BRANCH   4  11
ATOM     11  C   UNL     1       1.316   2.528  20.049  0.00  0.00    +0.000 C 
BRANCH  11  12
ATOM     12  O   UNL     1       0.493   3.641  20.377  0.00  0.00    +0.000 OA
ATOM     13  H   UNL     1       0.891   4.070  21.155  0.00  0.00    +0.000 HD
ENDBRANCH  11  12
ENDBRANCH   4  11
TORSDOF 4
ENDMDL
MODEL 2
REMARK VINA RESULT:      -5.0      1.761      1.882
REMARK  Name = 
REMARK  5 active torsions:
REMARK  status: ('A' for Active; 'I' for Inactive)
REMARK    1  A    between atoms: C_1  and  O_2
REMARK    2  A    between atoms: O_2  and  N_3
REMARK    3  A    between atoms: C_4  and  C_5
REMARK    4  A    between atoms: C_8  and  C_9
REMARK    5  A    between atoms: C_9  and  O_10
REMARK                            x       y       z     vdW  Elec       q    Type
REMARK                         _______ _______ _______ _____ _____    ______ ____
ROOT
ATOM      1  C   UNL     1       4.611   5.102  17.913  0.00  0.00    +0.000 C 
ATOM      2  C   UNL     1       4.065   4.212  17.065  0.00  0.00    +0.000 C 
ATOM      3  C   UNL     1       2.802   3.538  17.303  0.00  0.00    +0.000 C 
ATOM      4  C   UNL     1       2.295   3.274  18.524  0.00  0.00    +0.000 C 
ATOM      5  S   UNL     1       3.154   3.738  19.983  0.00  0.00    +0.000 S 
ATOM      6  S   UNL     1       3.845   5.588  19.384  0.00  0.00    +0.000 S 
ENDROOT
BRANCH   1   8
ATOM      7  N   UNL     1       6.177   6.262  16.433  0.00  0.00    +0.000 NA
ATOM      8  C   UNL     1       5.919   5.727  17.585  0.00  0.00    +0.000 C 
BRANCH   7  10
ATOM      9  C   UNL     1       7.691   7.558  17.548  0.00  0.00    +0.000 C 
ATOM     10  O   UNL     1       7.500   6.720  16.413  0.00  0.00    +0.000 OA
ENDBRANCH   7  10
ENDBRANCH   1   8
BRANCH   4  11
ATOM     11  C   UNL     1       1.030   2.472  18.697  0.00  0.00    +0.000 C 
BRANCH  11  12
ATOM     12  O   UNL     1       0.323   2.890  19.858  0.00  0.00    +0.000 OA
ATOM     13  H   UNL     1       0.209   3.855  19.790  0.00  0.00    +0.000 HD
ENDBRANCH  11  12
ENDBRANCH   4  11
TORSDOF 4
ENDMDL
MODEL 3
REMARK VINA RESULT:      -5.0      1.281      1.281
REMARK  Name = 
REMARK  5 active torsions:
REMARK  status: ('A' for Active; 'I' for Inactive)
REMARK    1  A    between atoms: C_1  and  O_2
REMARK    2  A    between atoms: O_2  and  N_3
REMARK    3  A    between atoms: C_4  and  C_5
REMARK    4  A    between atoms: C_8  and  C_9
REMARK    5  A    between atoms: C_9  and  O_10
REMARK                            x       y       z     vdW  Elec       q    Type
REMARK                         _______ _______ _______ _____ _____    ______ ____
ROOT
ATOM      1  C   UNL     1       4.126   4.330  17.667  0.00  0.00    +0.000 C 
ATOM      2  C   UNL     1       2.783   4.306  17.594  0.00  0.00    +0.000 C 
ATOM      3  C   UNL     1       1.915   4.064  18.733  0.00  0.00    +0.000 C 
ATOM      4  C   UNL     1       2.261   3.339  19.816  0.00  0.00    +0.000 C 
ATOM      5  S   UNL     1       3.845   2.595  19.943  0.00  0.00    +0.000 S 
ATOM      6  S   UNL     1       4.989   4.119  19.150  0.00  0.00    +0.000 S 
ENDROOT
BRANCH   1   8
ATOM      7  N   UNL     1       5.213   5.756  16.002  0.00  0.00    +0.000 NA
ATOM      8  C   UNL     1       4.926   4.570  16.438  0.00  0.00    +0.000 C 
BRANCH   7  10
ATOM      9  C   UNL     1       6.332   4.298  14.646  0.00  0.00    +0.000 C 
ATOM     10  O   UNL     1       5.933   5.656  14.805  0.00  0.00    +0.000 OA
ENDBRANCH   7  10
ENDBRANCH   1   8
BRANCH   4  11
ATOM     11  C   UNL     1       1.270   3.039  20.913  0.00  0.00    +0.000 C 
BRANCH  11  12
ATOM     12  O   UNL     1       1.940   2.793  22.143  0.00  0.00    +0.000 OA
ATOM     13  H   UNL     1       2.655   3.449  22.214  0.00  0.00    +0.000 HD
ENDBRANCH  11  12
ENDBRANCH   4  11
TORSDOF 4
ENDMDL
MODEL 4
REMARK VINA RESULT:      -4.9      1.495      1.550
REMARK  Name = 
REMARK  5 active torsions:
REMARK  status: ('A' for Active; 'I' for Inactive)
REMARK    1  A    between atoms: C_1  and  O_2
REMARK    2  A    between atoms: O_2  and  N_3
REMARK    3  A    between atoms: C_4  and  C_5
REMARK    4  A    between atoms: C_8  and  C_9
REMARK    5  A    between atoms: C_9  and  O_10
REMARK                            x       y       z     vdW  Elec       q    Type
REMARK                         _______ _______ _______ _____ _____    ______ ____
ROOT
ATOM      1  C   UNL     1       4.296   4.038  17.706  0.00  0.00    +0.000 C 
ATOM      2  C   UNL     1       4.074   2.836  18.269  0.00  0.00    +0.000 C 
ATOM      3  C   UNL     1       2.956   2.551  19.150  0.00  0.00    +0.000 C 
ATOM      4  C   UNL     1       2.342   3.465  19.927  0.00  0.00    +0.000 C 
ATOM      5  S   UNL     1       2.865   5.140  19.943  0.00  0.00    +0.000 S 
ATOM      6  S   UNL     1       3.240   5.388  17.929  0.00  0.00    +0.000 S 
ENDROOT
BRANCH   1   8
ATOM      7  N   UNL     1       6.665   4.485  17.292  0.00  0.00    +0.000 NA
ATOM      8  C   UNL     1       5.481   4.234  16.831  0.00  0.00    +0.000 C 
BRANCH   7  10
ATOM      9  C   UNL     1       6.810   4.598  15.015  0.00  0.00    +0.000 C 
ATOM     10  O   UNL     1       7.556   4.666  16.227  0.00  0.00    +0.000 OA
ENDBRANCH   7  10
ENDBRANCH   1   8
BRANCH   4  11
ATOM     11  C   UNL     1       1.256   3.074  20.898  0.00  0.00    +0.000 C 
BRANCH  11  12
ATOM     12  O   UNL     1       1.811   2.733  22.163  0.00  0.00    +0.000 OA
ATOM     13  H   UNL     1       2.715   2.411  22.000  0.00  0.00    +0.000 HD
ENDBRANCH  11  12
ENDBRANCH   4  11
TORSDOF 4
ENDMDL
MODEL 5
REMARK VINA RESULT:      -4.9      2.124      2.221
REMARK  Name = 
REMARK  5 active torsions:
REMARK  status: ('A' for Active; 'I' for Inactive)
REMARK    1  A    between atoms: C_1  and  O_2
REMARK    2  A    between atoms: O_2  and  N_3
REMARK    3  A    between atoms: C_4  and  C_5
REMARK    4  A    between atoms: C_8  and  C_9
REMARK    5  A    between atoms: C_9  and  O_10
REMARK                            x       y       z     vdW  Elec       q    Type
REMARK                         _______ _______ _______ _____ _____    ______ ____
ROOT
ATOM      1  C   UNL     1       4.511   5.525  17.891  0.00  0.00    +0.000 C 
ATOM      2  C   UNL     1       3.204   5.835  17.818  0.00  0.00    +0.000 C 
ATOM      3  C   UNL     1       2.147   5.025  18.397  0.00  0.00    +0.000 C 
ATOM      4  C   UNL     1       2.222   3.692  18.584  0.00  0.00    +0.000 C 
ATOM      5  S   UNL     1       3.655   2.790  18.124  0.00  0.00    +0.000 S 
ATOM      6  S   UNL     1       5.100   4.133  18.730  0.00  0.00    +0.000 S 
ENDROOT
BRANCH   1   8
ATOM      7  N   UNL     1       6.777   6.377  17.542  0.00  0.00    +0.000 NA
ATOM      8  C   UNL     1       5.515   6.413  17.251  0.00  0.00    +0.000 C 
BRANCH   7  10
ATOM      9  C   UNL     1       7.867   8.376  17.723  0.00  0.00    +0.000 C 
ATOM     10  O   UNL     1       7.457   7.360  16.813  0.00  0.00    +0.000 OA
ENDBRANCH   7  10
ENDBRANCH   1   8
BRANCH   4  11
ATOM     11  C   UNL     1       1.043   2.899  19.091  0.00  0.00    +0.000 C 
BRANCH  11  12
ATOM     12  O   UNL     1       0.497   3.500  20.259  0.00  0.00    +0.000 OA
ATOM     13  H   UNL     1      -0.020   2.814  20.717  0.00  0.00    +0.000 HD
ENDBRANCH  11  12
ENDBRANCH   4  11
TORSDOF 4
ENDMDL
MODEL 6
REMARK VINA RESULT:      -4.9      1.174      1.215
REMARK  Name = 
REMARK  5 active torsions:
REMARK  status: ('A' for Active; 'I' for Inactive)
REMARK    1  A    between atoms: C_1  and  O_2
REMARK    2  A    between atoms: O_2  and  N_3
REMARK    3  A    between atoms: C_4  and  C_5
REMARK    4  A    between atoms: C_8  and  C_9
REMARK    5  A    between atoms: C_9  and  O_10
REMARK                            x       y       z     vdW  Elec       q    Type
REMARK                         _______ _______ _______ _____ _____    ______ ____
ROOT
ATOM      1  C   UNL     1       4.262   4.368  17.143  0.00  0.00    +0.000 C 
ATOM      2  C   UNL     1       3.591   3.219  17.335  0.00  0.00    +0.000 C 
ATOM      3  C   UNL     1       2.415   3.101  18.179  0.00  0.00    +0.000 C 
ATOM      4  C   UNL     1       2.157   3.887  19.244  0.00  0.00    +0.000 C 
ATOM      5  S   UNL     1       3.263   5.164  19.719  0.00  0.00    +0.000 S 
ATOM      6  S   UNL     1       3.775   5.870  17.848  0.00  0.00    +0.000 S 
ENDROOT
BRANCH   1   8
ATOM      7  N   UNL     1       6.654   4.654  16.712  0.00  0.00    +0.000 NA
ATOM      8  C   UNL     1       5.466   4.382  16.271  0.00  0.00    +0.000 C 
BRANCH   7  10
ATOM      9  C   UNL     1       6.825   4.701  14.435  0.00  0.00    +0.000 C 
ATOM     10  O   UNL     1       7.565   4.634  15.649  0.00  0.00    +0.000 OA
ENDBRANCH   7  10
ENDBRANCH   1   8
BRANCH   4  11
ATOM     11  C   UNL     1       0.970   3.636  20.140  0.00  0.00    +0.000 C 
BRANCH  11  12
ATOM     12  O   UNL     1       0.066   2.720  19.533  0.00  0.00    +0.000 OA
ATOM     13  H   UNL     1       0.390   2.556  18.631  0.00  0.00    +0.000 HD
ENDBRANCH  11  12
ENDBRANCH   4  11
TORSDOF 4
ENDMDL
MODEL 7
REMARK VINA RESULT:      -4.9      2.518      2.669
REMARK  Name = 
REMARK  5 active torsions:
REMARK  status: ('A' for Active; 'I' for Inactive)
REMARK    1  A    between atoms: C_1  and  O_2
REMARK    2  A    between atoms: O_2  and  N_3
REMARK    3  A    between atoms: C_4  and  C_5
REMARK    4  A    between atoms: C_8  and  C_9
REMARK    5  A    between atoms: C_9  and  O_10
REMARK                            x       y       z     vdW  Elec       q    Type
REMARK                         _______ _______ _______ _____ _____    ______ ____
ROOT
ATOM      1  C   UNL     1       4.946   4.129  18.434  0.00  0.00    +0.000 C 
ATOM      2  C   UNL     1       4.581   3.235  19.370  0.00  0.00    +0.000 C 
ATOM      3  C   UNL     1       3.323   2.512  19.350  0.00  0.00    +0.000 C 
ATOM      4  C   UNL     1       2.187   2.969  18.785  0.00  0.00    +0.000 C 
ATOM      5  S   UNL     1       2.133   4.537  17.998  0.00  0.00    +0.000 S 
ATOM      6  S   UNL     1       3.969   4.497  17.056  0.00  0.00    +0.000 S 
ENDROOT
BRANCH   1   8
ATOM      7  N   UNL     1       6.725   5.253  19.683  0.00  0.00    +0.000 NA
ATOM      8  C   UNL     1       6.251   4.830  18.553  0.00  0.00    +0.000 C 
BRANCH   7  10
ATOM      9  C   UNL     1       7.798   6.725  18.305  0.00  0.00    +0.000 C 
ATOM     10  O   UNL     1       7.941   5.912  19.465  0.00  0.00    +0.000 OA
ENDBRANCH   7  10
ENDBRANCH   1   8
BRANCH   4  11
ATOM     11  C   UNL     1       0.889   2.210  18.897  0.00  0.00    +0.000 C 
BRANCH  11  12
ATOM     12  O   UNL     1      -0.009   2.876  19.778  0.00  0.00    +0.000 OA
ATOM     13  H   UNL     1      -0.904   2.752  19.417  0.00  0.00    +0.000 HD
ENDBRANCH  11  12
ENDBRANCH   4  11
TORSDOF 4
ENDMDL
MODEL 8
REMARK VINA RESULT:      -4.8      1.732      1.813
REMARK  Name = 
REMARK  5 active torsions:
REMARK  status: ('A' for Active; 'I' for Inactive)
REMARK    1  A    between atoms: C_1  and  O_2
REMARK    2  A    between atoms: O_2  and  N_3
REMARK    3  A    between atoms: C_4  and  C_5
REMARK    4  A    between atoms: C_8  and  C_9
REMARK    5  A    between atoms: C_9  and  O_10
REMARK                            x       y       z     vdW  Elec       q    Type
REMARK                         _______ _______ _______ _____ _____    ______ ____
ROOT
ATOM      1  C   UNL     1       4.521   4.957  17.535  0.00  0.00    +0.000 C 
ATOM      2  C   UNL     1       4.210   5.816  18.521  0.00  0.00    +0.000 C 
ATOM      3  C   UNL     1       3.255   5.526  19.575  0.00  0.00    +0.000 C 
ATOM      4  C   UNL     1       2.211   4.682  19.450  0.00  0.00    +0.000 C 
ATOM      5  S   UNL     1       1.906   3.835  17.944  0.00  0.00    +0.000 S 
ATOM      6  S   UNL     1       3.848   3.368  17.428  0.00  0.00    +0.000 S 
ENDROOT
BRANCH   1   8
ATOM      7  N   UNL     1       6.719   4.914  16.460  0.00  0.00    +0.000 NA
ATOM      8  C   UNL     1       5.501   5.356  16.491  0.00  0.00    +0.000 C 
BRANCH   7  10
ATOM      9  C   UNL     1       6.999   4.854  14.194  0.00  0.00    +0.000 C 
ATOM     10  O   UNL     1       7.406   5.506  15.393  0.00  0.00    +0.000 OA
ENDBRANCH   7  10
ENDBRANCH   1   8
BRANCH   4  11
ATOM     11  C   UNL     1       1.197   4.512  20.553  0.00  0.00    +0.000 C 
BRANCH  11  12
ATOM     12  O   UNL     1       0.515   3.271  20.424  0.00  0.00    +0.000 OA
ATOM     13  H   UNL     1       0.126   3.251  19.532  0.00  0.00    +0.000 HD
ENDBRANCH  11  12
ENDBRANCH   4  11
TORSDOF 4
ENDMDL
MODEL 9
REMARK VINA RESULT:      -4.8      2.285      2.475
REMARK  Name = 
REMARK  5 active torsions:
REMARK  status: ('A' for Active; 'I' for Inactive)
REMARK    1  A    between atoms: C_1  and  O_2
REMARK    2  A    between atoms: O_2  and  N_3
REMARK    3  A    between atoms: C_4  and  C_5
REMARK    4  A    between atoms: C_8  and  C_9
REMARK    5  A    between atoms: C_9  and  O_10
REMARK                            x       y       z     vdW  Elec       q    Type
REMARK                         _______ _______ _______ _____ _____    ______ ____
ROOT
ATOM      1  C   UNL     1       4.760   5.264  18.155  0.00  0.00    +0.000 C 
ATOM      2  C   UNL     1       5.152   4.143  18.786  0.00  0.00    +0.000 C 
ATOM      3  C   UNL     1       4.247   3.250  19.487  0.00  0.00    +0.000 C 
ATOM      4  C   UNL     1       3.086   3.633  20.057  0.00  0.00    +0.000 C 
ATOM      5  S   UNL     1       2.554   5.304  20.000  0.00  0.00    +0.000 S 
ATOM      6  S   UNL     1       3.106   5.760  18.064  0.00  0.00    +0.000 S 
ENDROOT
BRANCH   1   8
ATOM      7  N   UNL     1       6.982   5.733  17.247  0.00  0.00    +0.000 NA
ATOM      8  C   UNL     1       5.768   6.121  17.479  0.00  0.00    +0.000 C 
BRANCH   7  10
ATOM      9  C   UNL     1       7.665   7.895  17.520  0.00  0.00    +0.000 C 
ATOM     10  O   UNL     1       7.701   6.773  16.644  0.00  0.00    +0.000 OA
ENDBRANCH   7  10
ENDBRANCH   1   8
BRANCH   4  11
ATOM     11  C   UNL     1       2.249   2.671  20.863  0.00  0.00    +0.000 C 
BRANCH  11  12
ATOM     12  O   UNL     1       2.166   3.091  22.220  0.00  0.00    +0.000 OA
ATOM     13  H   UNL     1       1.552   3.846  22.246  0.00  0.00    +0.000 HD
ENDBRANCH  11  12
ENDBRANCH   4  11
TORSDOF 4
ENDMDL
