MODEL 1
REMARK VINA RESULT:      -6.4      0.000      0.000
REMARK  Name = 
REMARK  11 active torsions:
REMARK  status: ('A' for Active; 'I' for Inactive)
REMARK    1  A    between atoms: C_1  and  C_2
REMARK    2  A    between atoms: C_2  and  N_3
REMARK    3  A    between atoms: N_3  and  C_4
REMARK    4  A    between atoms: N_3  and  C_6
REMARK    5  A    between atoms: C_4  and  C_5
REMARK    6  A    between atoms: C_6  and  C_7
REMARK    7  A    between atoms: C_7  and  S_8
REMARK    8  A    between atoms: S_8  and  C_9
REMARK    9  A    between atoms: C_9  and  C_12
REMARK   10  A    between atoms: N_10  and  O_11
REMARK   11  A    between atoms: C_16  and  C_17
REMARK                            x       y       z     vdW  Elec       q    Type
REMARK                         _______ _______ _______ _____ _____    ______ ____
ROOT
ATOM      1  C   UNL     1       6.456   4.895  18.814  0.00  0.00    +0.000 C 
ATOM      2  N   UNL     1       7.081   5.454  19.806  0.00  0.00    +0.000 NA
ENDROOT
BRANCH   1   3
ATOM      3  C   UNL     1       6.754   5.040  17.385  0.00  0.00    +0.000 A 
ATOM      4  N   UNL     1       7.804   4.397  16.841  0.00  0.00    +0.000 NA
ATOM      5  O   UNL     1       7.801   4.723  15.499  0.00  0.00    +0.000 OA
ATOM      6  N   UNL     1       6.752   5.568  15.194  0.00  0.00    +0.000 NA
ATOM      7  C   UNL     1       6.105   5.761  16.347  0.00  0.00    +0.000 A 
ATOM      8  C   UNL     1       4.880   6.593  16.336  0.00  0.00    +0.000 C 
ENDBRANCH   1   3
BRANCH   2   9
ATOM      9  O   UNL     1       8.231   6.156  19.455  0.00  0.00    +0.000 OA
ATOM     10  H   UNL     1       7.883   7.053  19.280  0.00  0.00    +0.000 HD
ENDBRANCH   2   9
BRANCH   1  11
ATOM     11  S   UNL     1       5.083   3.860  19.222  0.00  0.00    +0.000 S 
BRANCH  11  12
ATOM     12  C   UNL     1       3.805   5.149  19.483  0.00  0.00    +0.000 C 
BRANCH  12  13
ATOM     13  C   UNL     1       2.550   4.841  18.648  0.00  0.00    +0.000 C 
BRANCH  13  14
ATOM     14  N   UNL     1       1.479   4.090  19.351  0.00  0.00    +0.000 NA
BRANCH  14  16
ATOM     15  C   UNL     1       2.211   2.461  17.543  0.00  0.00    +0.000 C 
ATOM     16  C   UNL     1       1.466   2.697  18.855  0.00  0.00    +0.000 C 
ENDBRANCH  14  16
BRANCH  14  17
ATOM     17  C   UNL     1       1.534   4.194  20.817  0.00  0.00    +0.000 C 
ATOM     18  C   UNL     1       1.658   2.878  21.581  0.00  0.00    +0.000 C 
ENDBRANCH  14  17
ENDBRANCH  13  14
ENDBRANCH  12  13
ENDBRANCH  11  12
ENDBRANCH   1  11
TORSDOF 8
ENDMDL
MODEL 2
REMARK VINA RESULT:      -6.3      0.395      1.696
REMARK  Name = 
REMARK  11 active torsions:
REMARK  status: ('A' for Active; 'I' for Inactive)
REMARK    1  A    between atoms: C_1  and  C_2
REMARK    2  A    between atoms: C_2  and  N_3
REMARK    3  A    between atoms: N_3  and  C_4
REMARK    4  A    between atoms: N_3  and  C_6
REMARK    5  A    between atoms: C_4  and  C_5
REMARK    6  A    between atoms: C_6  and  C_7
REMARK    7  A    between atoms: C_7  and  S_8
REMARK    8  A    between atoms: S_8  and  C_9
REMARK    9  A    between atoms: C_9  and  C_12
REMARK   10  A    between atoms: N_10  and  O_11
REMARK   11  A    between atoms: C_16  and  C_17
REMARK                            x       y       z     vdW  Elec       q    Type
REMARK                         _______ _______ _______ _____ _____    ______ ____
ROOT
ATOM      1  C   UNL     1       6.435   5.019  18.803  0.00  0.00    +0.000 C 
ATOM      2  N   UNL     1       7.115   5.524  19.787  0.00  0.00    +0.000 NA
ENDROOT
BRANCH   1   3
ATOM      3  C   UNL     1       6.754   5.099  17.374  0.00  0.00    +0.000 A 
ATOM      4  N   UNL     1       7.791   4.406  16.869  0.00  0.00    +0.000 NA
ATOM      5  O   UNL     1       7.814   4.678  15.515  0.00  0.00    +0.000 OA
ATOM      6  N   UNL     1       6.794   5.541  15.163  0.00  0.00    +0.000 NA
ATOM      7  C   UNL     1       6.138   5.797  16.299  0.00  0.00    +0.000 A 
ATOM      8  C   UNL     1       4.939   6.663  16.240  0.00  0.00    +0.000 C 
ENDBRANCH   1   3
BRANCH   2   9
ATOM      9  O   UNL     1       8.339   6.083  19.431  0.00  0.00    +0.000 OA
ATOM     10  H   UNL     1       8.123   7.033  19.362  0.00  0.00    +0.000 HD
ENDBRANCH   2   9
BRANCH   1  11
ATOM     11  S   UNL     1       4.950   4.157  19.222  0.00  0.00    +0.000 S 
BRANCH  11  12
ATOM     12  C   UNL     1       3.861   5.589  19.571  0.00  0.00    +0.000 C 
BRANCH  12  13
ATOM     13  C   UNL     1       2.393   5.236  19.276  0.00  0.00    +0.000 C 
BRANCH  13  14
ATOM     14  N   UNL     1       2.035   3.802  19.427  0.00  0.00    +0.000 NA
BRANCH  14  16
ATOM     15  C   UNL     1       1.715   2.796  21.738  0.00  0.00    +0.000 C 
ATOM     16  C   UNL     1       1.153   3.650  20.604  0.00  0.00    +0.000 C 
ENDBRANCH  14  16
BRANCH  14  17
ATOM     17  C   UNL     1       1.500   3.184  18.205  0.00  0.00    +0.000 C 
ATOM     18  C   UNL     1       2.414   2.183  17.502  0.00  0.00    +0.000 C 
ENDBRANCH  14  17
ENDBRANCH  13  14
ENDBRANCH  12  13
ENDBRANCH  11  12
ENDBRANCH   1  11
TORSDOF 8
ENDMDL
MODEL 3
REMARK VINA RESULT:      -6.3      1.449      2.193
REMARK  Name = 
REMARK  11 active torsions:
REMARK  status: ('A' for Active; 'I' for Inactive)
REMARK    1  A    between atoms: C_1  and  C_2
REMARK    2  A    between atoms: C_2  and  N_3
REMARK    3  A    between atoms: N_3  and  C_4
REMARK    4  A    between atoms: N_3  and  C_6
REMARK    5  A    between atoms: C_4  and  C_5
REMARK    6  A    between atoms: C_6  and  C_7
REMARK    7  A    between atoms: C_7  and  S_8
REMARK    8  A    between atoms: S_8  and  C_9
REMARK    9  A    between atoms: C_9  and  C_12
REMARK   10  A    between atoms: N_10  and  O_11
REMARK   11  A    between atoms: C_16  and  C_17
REMARK                            x       y       z     vdW  Elec       q    Type
REMARK                         _______ _______ _______ _____ _____    ______ ____
ROOT
ATOM      1  C   UNL     1       6.476   5.263  19.170  0.00  0.00    +0.000 C 
ATOM      2  N   UNL     1       7.204   5.256  20.245  0.00  0.00    +0.000 NA
ENDROOT
BRANCH   1   3
ATOM      3  C   UNL     1       6.937   5.451  17.790  0.00  0.00    +0.000 A 
ATOM      4  N   UNL     1       6.982   4.409  16.941  0.00  0.00    +0.000 NA
ATOM      5  O   UNL     1       7.437   4.912  15.737  0.00  0.00    +0.000 OA
ATOM      6  N   UNL     1       7.677   6.269  15.824  0.00  0.00    +0.000 NA
ATOM      7  C   UNL     1       7.366   6.605  17.080  0.00  0.00    +0.000 A 
ATOM      8  C   UNL     1       7.468   8.029  17.473  0.00  0.00    +0.000 C 
ENDBRANCH   1   3
BRANCH   2   9
ATOM      9  O   UNL     1       8.577   5.303  20.026  0.00  0.00    +0.000 OA
ATOM     10  H   UNL     1       8.684   4.720  19.248  0.00  0.00    +0.000 HD
ENDBRANCH   2   9
BRANCH   1  11
ATOM     11  S   UNL     1       4.735   5.044  19.386  0.00  0.00    +0.000 S 
BRANCH  11  12
ATOM     12  C   UNL     1       4.621   3.240  19.080  0.00  0.00    +0.000 C 
BRANCH  12  13
ATOM     13  C   UNL     1       3.532   2.610  19.966  0.00  0.00    +0.000 C 
BRANCH  13  14
ATOM     14  N   UNL     1       2.241   2.324  19.290  0.00  0.00    +0.000 NA
BRANCH  14  16
ATOM     15  C   UNL     1       1.450   2.867  21.643  0.00  0.00    +0.000 C 
ATOM     16  C   UNL     1       1.135   2.794  20.150  0.00  0.00    +0.000 C 
ENDBRANCH  14  16
BRANCH  14  17
ATOM     17  C   UNL     1       2.164   2.817  17.907  0.00  0.00    +0.000 C 
ATOM     18  C   UNL     1       1.452   4.153  17.708  0.00  0.00    +0.000 C 
ENDBRANCH  14  17
ENDBRANCH  13  14
ENDBRANCH  12  13
ENDBRANCH  11  12
ENDBRANCH   1  11
TORSDOF 8
ENDMDL
MODEL 4
REMARK VINA RESULT:      -6.1      2.663      5.493
REMARK  Name = 
REMARK  11 active torsions:
REMARK  status: ('A' for Active; 'I' for Inactive)
REMARK    1  A    between atoms: C_1  and  C_2
REMARK    2  A    between atoms: C_2  and  N_3
REMARK    3  A    between atoms: N_3  and  C_4
REMARK    4  A    between atoms: N_3  and  C_6
REMARK    5  A    between atoms: C_4  and  C_5
REMARK    6  A    between atoms: C_6  and  C_7
REMARK    7  A    between atoms: C_7  and  S_8
REMARK    8  A    between atoms: S_8  and  C_9
REMARK    9  A    between atoms: C_9  and  C_12
REMARK   10  A    between atoms: N_10  and  O_11
REMARK   11  A    between atoms: C_16  and  C_17
REMARK                            x       y       z     vdW  Elec       q    Type
REMARK                         _______ _______ _______ _____ _____    ______ ____
ROOT
ATOM      1  C   UNL     1       4.195   3.889  19.311  0.00  0.00    +0.000 C 
ATOM      2  N   UNL     1       5.242   3.276  19.775  0.00  0.00    +0.000 NA
ENDROOT
BRANCH   1   3
ATOM      3  C   UNL     1       2.969   3.275  18.789  0.00  0.00    +0.000 A 
ATOM      4  N   UNL     1       3.021   2.451  17.727  0.00  0.00    +0.000 NA
ATOM      5  O   UNL     1       1.724   2.035  17.498  0.00  0.00    +0.000 OA
ATOM      6  N   UNL     1       0.853   2.594  18.414  0.00  0.00    +0.000 NA
ATOM      7  C   UNL     1       1.614   3.351  19.210  0.00  0.00    +0.000 A 
ATOM      8  C   UNL     1       0.967   4.049  20.345  0.00  0.00    +0.000 C 
ENDBRANCH   1   3
BRANCH   2   9
ATOM      9  O   UNL     1       5.109   1.896  19.899  0.00  0.00    +0.000 OA
ATOM     10  H   UNL     1       4.318   1.813  20.467  0.00  0.00    +0.000 HD
ENDBRANCH   2   9
BRANCH   1  11
ATOM     11  S   UNL     1       4.253   5.655  19.284  0.00  0.00    +0.000 S 
BRANCH  11  12
ATOM     12  C   UNL     1       3.821   5.942  17.526  0.00  0.00    +0.000 C 
BRANCH  12  13
ATOM     13  C   UNL     1       4.920   6.761  16.827  0.00  0.00    +0.000 C 
BRANCH  13  14
ATOM     14  N   UNL     1       6.006   5.970  16.195  0.00  0.00    +0.000 NA
BRANCH  14  16
ATOM     15  C   UNL     1       7.660   4.671  17.620  0.00  0.00    +0.000 C 
ATOM     16  C   UNL     1       7.201   6.016  17.063  0.00  0.00    +0.000 C 
ENDBRANCH  14  16
BRANCH  14  17
ATOM     17  C   UNL     1       5.610   4.607  15.808  0.00  0.00    +0.000 C 
ATOM     18  C   UNL     1       5.654   4.293  14.314  0.00  0.00    +0.000 C 
ENDBRANCH  14  17
ENDBRANCH  13  14
ENDBRANCH  12  13
ENDBRANCH  11  12
ENDBRANCH   1  11
TORSDOF 8
ENDMDL
MODEL 5
REMARK VINA RESULT:      -5.8      3.204      6.412
REMARK  Name = 
REMARK  11 active torsions:
REMARK  status: ('A' for Active; 'I' for Inactive)
REMARK    1  A    between atoms: C_1  and  C_2
REMARK    2  A    between atoms: C_2  and  N_3
REMARK    3  A    between atoms: N_3  and  C_4
REMARK    4  A    between atoms: N_3  and  C_6
REMARK    5  A    between atoms: C_4  and  C_5
REMARK    6  A    between atoms: C_6  and  C_7
REMARK    7  A    between atoms: C_7  and  S_8
REMARK    8  A    between atoms: S_8  and  C_9
REMARK    9  A    between atoms: C_9  and  C_12
REMARK   10  A    between atoms: N_10  and  O_11
REMARK   11  A    between atoms: C_16  and  C_17
REMARK                            x       y       z     vdW  Elec       q    Type
REMARK                         _______ _______ _______ _____ _____    ______ ____
ROOT
ATOM      1  C   UNL     1       2.124   3.892  18.535  0.00  0.00    +0.000 C 
ATOM      2  N   UNL     1       1.902   3.197  17.460  0.00  0.00    +0.000 NA
ENDROOT
BRANCH   1   3
ATOM      3  C   UNL     1       2.193   3.394  19.912  0.00  0.00    +0.000 A 
ATOM      4  N   UNL     1       1.149   3.553  20.746  0.00  0.00    +0.000 NA
ATOM      5  O   UNL     1       1.519   2.970  21.942  0.00  0.00    +0.000 OA
ATOM      6  N   UNL     1       2.794   2.442  21.866  0.00  0.00    +0.000 NA
ATOM      7  C   UNL     1       3.208   2.695  20.621  0.00  0.00    +0.000 A 
ATOM      8  C   UNL     1       4.539   2.196  20.208  0.00  0.00    +0.000 C 
ENDBRANCH   1   3
BRANCH   2   9
ATOM      9  O   UNL     1       1.859   1.819  17.649  0.00  0.00    +0.000 OA
ATOM     10  H   UNL     1       2.747   1.539  17.354  0.00  0.00    +0.000 HD
ENDBRANCH   2   9
BRANCH   1  11
ATOM     11  S   UNL     1       2.348   5.633  18.324  0.00  0.00    +0.000 S 
BRANCH  11  12
ATOM     12  C   UNL     1       4.180   5.707  18.378  0.00  0.00    +0.000 C 
BRANCH  12  13
ATOM     13  C   UNL     1       4.710   6.704  17.333  0.00  0.00    +0.000 C 
BRANCH  13  14
ATOM     14  N   UNL     1       5.741   6.173  16.406  0.00  0.00    +0.000 NA
BRANCH  14  16
ATOM     15  C   UNL     1       7.622   7.447  17.545  0.00  0.00    +0.000 C 
ATOM     16  C   UNL     1       7.035   6.104  17.116  0.00  0.00    +0.000 C 
ENDBRANCH  14  16
BRANCH  14  17
ATOM     17  C   UNL     1       5.364   4.916  15.742  0.00  0.00    +0.000 C 
ATOM     18  C   UNL     1       6.448   4.250  14.898  0.00  0.00    +0.000 C 
ENDBRANCH  14  17
ENDBRANCH  13  14
ENDBRANCH  12  13
ENDBRANCH  11  12
ENDBRANCH   1  11
TORSDOF 8
ENDMDL
MODEL 6
REMARK VINA RESULT:      -5.8      1.692      3.061
REMARK  Name = 
REMARK  11 active torsions:
REMARK  status: ('A' for Active; 'I' for Inactive)
REMARK    1  A    between atoms: C_1  and  C_2
REMARK    2  A    between atoms: C_2  and  N_3
REMARK    3  A    between atoms: N_3  and  C_4
REMARK    4  A    between atoms: N_3  and  C_6
REMARK    5  A    between atoms: C_4  and  C_5
REMARK    6  A    between atoms: C_6  and  C_7
REMARK    7  A    between atoms: C_7  and  S_8
REMARK    8  A    between atoms: S_8  and  C_9
REMARK    9  A    between atoms: C_9  and  C_12
REMARK   10  A    between atoms: N_10  and  O_11
REMARK   11  A    between atoms: C_16  and  C_17
REMARK                            x       y       z     vdW  Elec       q    Type
REMARK                         _______ _______ _______ _____ _____    ______ ____
ROOT
ATOM      1  C   UNL     1       5.245   5.394  17.273  0.00  0.00    +0.000 C 
ATOM      2  N   UNL     1       5.034   4.448  16.408  0.00  0.00    +0.000 NA
ENDROOT
BRANCH   1   3
ATOM      3  C   UNL     1       6.427   5.568  18.123  0.00  0.00    +0.000 A 
ATOM      4  N   UNL     1       6.781   4.610  18.999  0.00  0.00    +0.000 NA
ATOM      5  O   UNL     1       7.926   5.063  19.625  0.00  0.00    +0.000 OA
ATOM      6  N   UNL     1       8.296   6.305  19.145  0.00  0.00    +0.000 NA
ATOM      7  C   UNL     1       7.383   6.615  18.221  0.00  0.00    +0.000 A 
ATOM      8  C   UNL     1       7.540   7.884  17.474  0.00  0.00    +0.000 C 
ENDBRANCH   1   3
BRANCH   2   9
ATOM      9  O   UNL     1       6.114   3.598  16.191  0.00  0.00    +0.000 OA
ATOM     10  H   UNL     1       6.721   3.842  16.918  0.00  0.00    +0.000 HD
ENDBRANCH   2   9
BRANCH   1  11
ATOM     11  S   UNL     1       3.963   6.596  17.466  0.00  0.00    +0.000 S 
BRANCH  11  12
ATOM     12  C   UNL     1       3.233   6.003  19.040  0.00  0.00    +0.000 C 
BRANCH  12  13
ATOM     13  C   UNL     1       2.038   5.074  18.764  0.00  0.00    +0.000 C 
BRANCH  13  14
ATOM     14  N   UNL     1       2.212   3.661  19.186  0.00  0.00    +0.000 NA
BRANCH  14  16
ATOM     15  C   UNL     1       1.509   2.911  21.510  0.00  0.00    +0.000 C 
ATOM     16  C   UNL     1       1.101   3.290  20.088  0.00  0.00    +0.000 C 
ENDBRANCH  14  16
BRANCH  14  17
ATOM     17  C   UNL     1       2.408   2.720  18.073  0.00  0.00    +0.000 C 
ATOM     18  C   UNL     1       3.420   1.601  18.308  0.00  0.00    +0.000 C 
ENDBRANCH  14  17
ENDBRANCH  13  14
ENDBRANCH  12  13
ENDBRANCH  11  12
ENDBRANCH   1  11
TORSDOF 8
ENDMDL
MODEL 7
REMARK VINA RESULT:      -5.8      1.548      2.176
REMARK  Name = 
REMARK  11 active torsions:
REMARK  status: ('A' for Active; 'I' for Inactive)
REMARK    1  A    between atoms: C_1  and  C_2
REMARK    2  A    between atoms: C_2  and  N_3
REMARK    3  A    between atoms: N_3  and  C_4
REMARK    4  A    between atoms: N_3  and  C_6
REMARK    5  A    between atoms: C_4  and  C_5
REMARK    6  A    between atoms: C_6  and  C_7
REMARK    7  A    between atoms: C_7  and  S_8
REMARK    8  A    between atoms: S_8  and  C_9
REMARK    9  A    between atoms: C_9  and  C_12
REMARK   10  A    between atoms: N_10  and  O_11
REMARK   11  A    between atoms: C_16  and  C_17
REMARK                            x       y       z     vdW  Elec       q    Type
REMARK                         _______ _______ _______ _____ _____    ______ ____
ROOT
ATOM      1  C   UNL     1       5.040   4.070  18.160  0.00  0.00    +0.000 C 
ATOM      2  N   UNL     1       5.510   4.054  19.371  0.00  0.00    +0.000 NA
ENDROOT
BRANCH   1   3
ATOM      3  C   UNL     1       5.381   5.013  17.090  0.00  0.00    +0.000 A 
ATOM      4  N   UNL     1       6.285   4.679  16.151  0.00  0.00    +0.000 NA
ATOM      5  O   UNL     1       6.368   5.759  15.294  0.00  0.00    +0.000 OA
ATOM      6  N   UNL     1       5.517   6.773  15.688  0.00  0.00    +0.000 NA
ATOM      7  C   UNL     1       4.906   6.318  16.786  0.00  0.00    +0.000 A 
ATOM      8  C   UNL     1       3.876   7.170  17.422  0.00  0.00    +0.000 C 
ENDBRANCH   1   3
BRANCH   2   9
ATOM      9  O   UNL     1       6.540   4.958  19.613  0.00  0.00    +0.000 OA
ATOM     10  H   UNL     1       6.585   4.967  20.589  0.00  0.00    +0.000 HD
ENDBRANCH   2   9
BRANCH   1  11
ATOM     11  S   UNL     1       3.843   2.834  17.755  0.00  0.00    +0.000 S 
BRANCH  11  12
ATOM     12  C   UNL     1       2.341   3.883  17.689  0.00  0.00    +0.000 C 
BRANCH  12  13
ATOM     13  C   UNL     1       1.263   3.343  18.646  0.00  0.00    +0.000 C 
BRANCH  13  14
ATOM     14  N   UNL     1       1.156   4.041  19.952  0.00  0.00    +0.000 NA
BRANCH  14  16
ATOM     15  C   UNL     1       2.598   2.703  21.561  0.00  0.00    +0.000 C 
ATOM     16  C   UNL     1       1.203   3.039  21.037  0.00  0.00    +0.000 C 
ENDBRANCH  14  16
BRANCH  14  17
ATOM     17  C   UNL     1       2.115   5.143  20.125  0.00  0.00    +0.000 C 
ATOM     18  C   UNL     1       1.541   6.458  20.649  0.00  0.00    +0.000 C 
ENDBRANCH  14  17
ENDBRANCH  13  14
ENDBRANCH  12  13
ENDBRANCH  11  12
ENDBRANCH   1  11
TORSDOF 8
ENDMDL
MODEL 8
REMARK VINA RESULT:      -5.7      2.003      2.830
REMARK  Name = 
REMARK  11 active torsions:
REMARK  status: ('A' for Active; 'I' for Inactive)
REMARK    1  A    between atoms: C_1  and  C_2
REMARK    2  A    between atoms: C_2  and  N_3
REMARK    3  A    between atoms: N_3  and  C_4
REMARK    4  A    between atoms: N_3  and  C_6
REMARK    5  A    between atoms: C_4  and  C_5
REMARK    6  A    between atoms: C_6  and  C_7
REMARK    7  A    between atoms: C_7  and  S_8
REMARK    8  A    between atoms: S_8  and  C_9
REMARK    9  A    between atoms: C_9  and  C_12
REMARK   10  A    between atoms: N_10  and  O_11
REMARK   11  A    between atoms: C_16  and  C_17
REMARK                            x       y       z     vdW  Elec       q    Type
REMARK                         _______ _______ _______ _____ _____    ______ ____
ROOT
ATOM      1  C   UNL     1       4.215   4.368  17.460  0.00  0.00    +0.000 C 
ATOM      2  N   UNL     1       3.394   5.356  17.657  0.00  0.00    +0.000 NA
ENDROOT
BRANCH   1   3
ATOM      3  C   UNL     1       5.680   4.418  17.476  0.00  0.00    +0.000 A 
ATOM      4  N   UNL     1       6.346   4.456  18.645  0.00  0.00    +0.000 NA
ATOM      5  O   UNL     1       7.689   4.481  18.322  0.00  0.00    +0.000 OA
ATOM      6  N   UNL     1       7.873   4.456  16.953  0.00  0.00    +0.000 NA
ATOM      7  C   UNL     1       6.644   4.412  16.431  0.00  0.00    +0.000 A 
ATOM      8  C   UNL     1       6.507   4.321  14.959  0.00  0.00    +0.000 C 
ENDBRANCH   1   3
BRANCH   2   9
ATOM      9  O   UNL     1       3.995   6.548  18.051  0.00  0.00    +0.000 OA
ATOM     10  H   UNL     1       4.025   7.053  17.215  0.00  0.00    +0.000 HD
ENDBRANCH   2   9
BRANCH   1  11
ATOM     11  S   UNL     1       3.493   2.792  17.114  0.00  0.00    +0.000 S 
BRANCH  11  12
ATOM     12  C   UNL     1       1.885   3.005  17.969  0.00  0.00    +0.000 C 
BRANCH  12  13
ATOM     13  C   UNL     1       1.818   2.115  19.222  0.00  0.00    +0.000 C 
BRANCH  13  14
ATOM     14  N   UNL     1       1.457   2.808  20.485  0.00  0.00    +0.000 NA
BRANCH  14  16
ATOM     15  C   UNL     1       3.931   2.310  20.785  0.00  0.00    +0.000 C 
ATOM     16  C   UNL     1       2.608   2.749  21.410  0.00  0.00    +0.000 C 
ENDBRANCH  14  16
BRANCH  14  17
ATOM     17  C   UNL     1       0.922   4.165  20.294  0.00  0.00    +0.000 C 
ATOM     18  C   UNL     1       1.785   5.309  20.820  0.00  0.00    +0.000 C 
ENDBRANCH  14  17
ENDBRANCH  13  14
ENDBRANCH  12  13
ENDBRANCH  11  12
ENDBRANCH   1  11
TORSDOF 8
ENDMDL
MODEL 9
REMARK VINA RESULT:      -5.7      1.780      1.957
REMARK  Name = 
REMARK  11 active torsions:
REMARK  status: ('A' for Active; 'I' for Inactive)
REMARK    1  A    between atoms: C_1  and  C_2
REMARK    2  A    between atoms: C_2  and  N_3
REMARK    3  A    between atoms: N_3  and  C_4
REMARK    4  A    between atoms: N_3  and  C_6
REMARK    5  A    between atoms: C_4  and  C_5
REMARK    6  A    between atoms: C_6  and  C_7
REMARK    7  A    between atoms: C_7  and  S_8
REMARK    8  A    between atoms: S_8  and  C_9
REMARK    9  A    between atoms: C_9  and  C_12
REMARK   10  A    between atoms: N_10  and  O_11
REMARK   11  A    between atoms: C_16  and  C_17
REMARK                            x       y       z     vdW  Elec       q    Type
REMARK                         _______ _______ _______ _____ _____    ______ ____
ROOT
ATOM      1  C   UNL     1       4.867   5.547  18.160  0.00  0.00    +0.000 C 
ATOM      2  N   UNL     1       4.906   4.856  19.260  0.00  0.00    +0.000 NA
ENDROOT
BRANCH   1   3
ATOM      3  C   UNL     1       5.822   5.497  17.048  0.00  0.00    +0.000 A 
ATOM      4  N   UNL     1       5.650   4.618  16.044  0.00  0.00    +0.000 NA
ATOM      5  O   UNL     1       6.692   4.832  15.163  0.00  0.00    +0.000 OA
ATOM      6  N   UNL     1       7.521   5.843  15.608  0.00  0.00    +0.000 NA
ATOM      7  C   UNL     1       6.987   6.257  16.761  0.00  0.00    +0.000 A 
ATOM      8  C   UNL     1       7.629   7.390  17.466  0.00  0.00    +0.000 C 
ENDBRANCH   1   3
BRANCH   2   9
ATOM      9  O   UNL     1       5.896   3.879  19.305  0.00  0.00    +0.000 OA
ATOM     10  H   UNL     1       6.220   3.867  18.382  0.00  0.00    +0.000 HD
ENDBRANCH   2   9
BRANCH   1  11
ATOM     11  S   UNL     1       3.529   6.690  17.987  0.00  0.00    +0.000 S 
BRANCH  11  12
ATOM     12  C   UNL     1       2.201   5.722  18.800  0.00  0.00    +0.000 C 
BRANCH  12  13
ATOM     13  C   UNL     1       1.777   4.539  17.913  0.00  0.00    +0.000 C 
BRANCH  13  14
ATOM     14  N   UNL     1       1.713   3.219  18.591  0.00  0.00    +0.000 NA
BRANCH  14  16
ATOM     15  C   UNL     1       3.572   1.499  18.386  0.00  0.00    +0.000 C 
ATOM     16  C   UNL     1       2.385   2.212  17.743  0.00  0.00    +0.000 C 
ENDBRANCH  14  16
BRANCH  14  17
ATOM     17  C   UNL     1       2.192   3.233  19.982  0.00  0.00    +0.000 C 
ATOM     18  C   UNL     1       1.166   2.866  21.050  0.00  0.00    +0.000 C 
ENDBRANCH  14  17
ENDBRANCH  13  14
ENDBRANCH  12  13
ENDBRANCH  11  12
ENDBRANCH   1  11
TORSDOF 8
ENDMDL
