MODEL 1
REMARK VINA RESULT:      -7.4      0.000      0.000
REMARK  Name = 
REMARK  4 active torsions:
REMARK  status: ('A' for Active; 'I' for Inactive)
REMARK    1  A    between atoms: C_2  and  C_3
REMARK    2  A    between atoms: N_19  and  C_20
REMARK    3  A    between atoms: N_19  and  C_31
REMARK    4  A    between atoms: C_20  and  C_21
REMARK                            x       y       z     vdW  Elec       q    Type
REMARK                         _______ _______ _______ _____ _____    ______ ____
ROOT
ATOM      1  O   UNL     1      -2.606  12.438  20.338  0.00  0.00    +0.000 OA
ATOM      2  C   UNL     1      -2.175  12.162  19.222  0.00  0.00    +0.000 C 
ATOM      3  N   UNL     1      -2.813  11.309  18.253  0.00  0.00    +0.000 N 
ENDROOT
BRANCH   2   4
ATOM      4  C   UNL     1      -0.867  12.935  18.974  0.00  0.00    +0.000 C 
ATOM      5  C   UNL     1      -1.072  14.564  19.309  0.00  0.00    +0.000 C 
ATOM      6  N   UNL     1       0.139  15.368  18.936  0.00  0.00    +0.000 NA
ATOM      7  C   UNL     1       1.289  15.026  19.832  0.00  0.00    +0.000 C 
ATOM      8  C   UNL     1       1.822  13.456  19.588  0.00  0.00    +0.000 C 
ATOM      9  C   UNL     1       0.496  12.412  19.867  0.00  0.00    +0.000 C 
ATOM     10  O   UNL     1       0.192  12.461  21.325  0.00  0.00    +0.000 OA
ATOM     11  C   UNL     1       0.309  11.152  21.905  0.00  0.00    +0.000 C 
ATOM     12  C   UNL     1       0.717  10.243  20.835  0.00  0.00    +0.000 A 
ATOM     13  C   UNL     1       0.959   8.887  20.929  0.00  0.00    +0.000 A 
ATOM     14  C   UNL     1       1.342   8.196  19.800  0.00  0.00    +0.000 A 
ATOM     15  F   UNL     1       1.581   6.884  19.885  0.00  0.00    +0.000 F 
ATOM     16  C   UNL     1       1.476   8.866  18.598  0.00  0.00    +0.000 A 
ATOM     17  F   UNL     1       1.851   8.198  17.498  0.00  0.00    +0.000 F 
ATOM     18  C   UNL     1       1.218  10.239  18.533  0.00  0.00    +0.000 A 
ATOM     19  C   UNL     1       0.841  10.939  19.661  0.00  0.00    +0.000 A 
ATOM     20  H   UNL     1      -0.065  16.384  18.967  0.00  0.00    +0.000 HD
ENDBRANCH   2   4
BRANCH   3  21
ATOM     21  C   UNL     1      -2.230  11.142  16.945  0.00  0.00    +0.000 C 
ATOM     22  C   UNL     1      -1.807   9.766  16.409  0.00  0.00    +0.000 C 
ATOM     23  C   UNL     1      -2.967  10.493  15.766  0.00  0.00    +0.000 C 
ENDBRANCH   3  21
BRANCH   3  24
ATOM     24  C   UNL     1      -4.115  10.647  18.517  0.00  0.00    +0.000 C 
BRANCH  24  25
ATOM     25  C   UNL     1      -5.269  11.595  18.532  0.00  0.00    +0.000 A 
ATOM     26  C   UNL     1      -5.644  12.183  17.293  0.00  0.00    +0.000 A 
ATOM     27  C   UNL     1      -6.808  12.882  17.172  0.00  0.00    +0.000 A 
ATOM     28  C   UNL     1      -7.441  13.182  18.283  0.00  0.00    +0.000 A 
ATOM     29  C   UNL     1      -7.041  12.757  19.487  0.00  0.00    +0.000 A 
ATOM     30  C   UNL     1      -7.859  13.254  20.443  0.00  0.00    +0.000 A 
ATOM     31  C   UNL     1      -7.492  12.852  21.704  0.00  0.00    +0.000 A 
ATOM     32  C   UNL     1      -7.183  12.506  22.862  0.00  0.00    +0.000 A 
ATOM     33  N   UNL     1      -6.178  11.921  21.391  0.00  0.00    +0.000 NA
ATOM     34  C   UNL     1      -5.994  11.954  19.800  0.00  0.00    +0.000 A 
ENDBRANCH  24  25
ENDBRANCH   3  24
TORSDOF 4
ENDMDL
MODEL 2
REMARK VINA RESULT:      -7.4      3.660      6.109
REMARK  Name = 
REMARK  4 active torsions:
REMARK  status: ('A' for Active; 'I' for Inactive)
REMARK    1  A    between atoms: C_2  and  C_3
REMARK    2  A    between atoms: N_19  and  C_20
REMARK    3  A    between atoms: N_19  and  C_31
REMARK    4  A    between atoms: C_20  and  C_21
REMARK                            x       y       z     vdW  Elec       q    Type
REMARK                         _______ _______ _______ _____ _____    ______ ____
ROOT
ATOM      1  O   UNL     1      -0.485  14.190  19.879  0.00  0.00    +0.000 OA
ATOM      2  C   UNL     1      -0.318  13.466  20.856  0.00  0.00    +0.000 C 
ATOM      3  N   UNL     1      -0.409  12.029  20.872  0.00  0.00    +0.000 N 
ENDROOT
BRANCH   2   4
ATOM      4  C   UNL     1       0.086  14.326  22.067  0.00  0.00    +0.000 C 
ATOM      5  C   UNL     1       1.427  15.264  21.704  0.00  0.00    +0.000 C 
ATOM      6  N   UNL     1       1.936  16.001  22.908  0.00  0.00    +0.000 NA
ATOM      7  C   UNL     1       0.952  17.047  23.333  0.00  0.00    +0.000 C 
ATOM      8  C   UNL     1      -0.467  16.368  23.912  0.00  0.00    +0.000 C 
ATOM      9  C   UNL     1      -1.114  15.387  22.669  0.00  0.00    +0.000 C 
ATOM     10  O   UNL     1      -1.573  16.296  21.581  0.00  0.00    +0.000 OA
ATOM     11  C   UNL     1      -2.980  16.123  21.345  0.00  0.00    +0.000 C 
ATOM     12  C   UNL     1      -3.455  15.119  22.296  0.00  0.00    +0.000 A 
ATOM     13  C   UNL     1      -4.741  14.640  22.442  0.00  0.00    +0.000 A 
ATOM     14  C   UNL     1      -4.995  13.688  23.406  0.00  0.00    +0.000 A 
ATOM     15  F   UNL     1      -6.239  13.222  23.555  0.00  0.00    +0.000 F 
ATOM     16  C   UNL     1      -3.965  13.230  24.206  0.00  0.00    +0.000 A 
ATOM     17  F   UNL     1      -4.208  12.307  25.147  0.00  0.00    +0.000 F 
ATOM     18  C   UNL     1      -2.671  13.731  24.031  0.00  0.00    +0.000 A 
ATOM     19  C   UNL     1      -2.410  14.689  23.071  0.00  0.00    +0.000 A 
ATOM     20  H   UNL     1       2.865  16.421  22.721  0.00  0.00    +0.000 HD
ENDBRANCH   2   4
BRANCH   3  21
ATOM     21  C   UNL     1      -0.103  11.301  22.078  0.00  0.00    +0.000 C 
ATOM     22  C   UNL     1      -1.199  10.805  23.033  0.00  0.00    +0.000 C 
ATOM     23  C   UNL     1      -0.378   9.801  22.254  0.00  0.00    +0.000 C 
ENDBRANCH   3  21
BRANCH   3  24
ATOM     24  C   UNL     1      -0.729  11.243  19.654  0.00  0.00    +0.000 C 
BRANCH  24  25
ATOM     25  C   UNL     1      -2.125  11.453  19.164  0.00  0.00    +0.000 A 
ATOM     26  C   UNL     1      -3.068  11.978  20.089  0.00  0.00    +0.000 A 
ATOM     27  C   UNL     1      -4.295  12.403  19.675  0.00  0.00    +0.000 A 
ATOM     28  C   UNL     1      -4.648  12.096  18.448  0.00  0.00    +0.000 A 
ATOM     29  C   UNL     1      -3.832  11.479  17.587  0.00  0.00    +0.000 A 
ATOM     30  C   UNL     1      -4.479  11.258  16.419  0.00  0.00    +0.000 A 
ATOM     31  C   UNL     1      -3.687  10.621  15.496  0.00  0.00    +0.000 A 
ATOM     32  C   UNL     1      -2.994  10.042  14.637  0.00  0.00    +0.000 A 
ATOM     33  N   UNL     1      -2.281  10.446  16.323  0.00  0.00    +0.000 NA
ATOM     34  C   UNL     1      -2.544  11.095  17.764  0.00  0.00    +0.000 A 
ENDBRANCH  24  25
ENDBRANCH   3  24
TORSDOF 4
ENDMDL
MODEL 3
REMARK VINA RESULT:      -7.1      3.412      7.100
REMARK  Name = 
REMARK  4 active torsions:
REMARK  status: ('A' for Active; 'I' for Inactive)
REMARK    1  A    between atoms: C_2  and  C_3
REMARK    2  A    between atoms: N_19  and  C_20
REMARK    3  A    between atoms: N_19  and  C_31
REMARK    4  A    between atoms: C_20  and  C_21
REMARK                            x       y       z     vdW  Elec       q    Type
REMARK                         _______ _______ _______ _____ _____    ______ ____
ROOT
ATOM      1  O   UNL     1      -2.635  15.799  20.946  0.00  0.00    +0.000 OA
ATOM      2  C   UNL     1      -2.778  14.667  21.398  0.00  0.00    +0.000 C 
ATOM      3  N   UNL     1      -2.005  13.506  21.038  0.00  0.00    +0.000 N 
ENDROOT
BRANCH   2   4
ATOM      4  C   UNL     1      -3.873  14.682  22.480  0.00  0.00    +0.000 C 
ATOM      5  C   UNL     1      -3.591  15.909  23.586  0.00  0.00    +0.000 C 
ATOM      6  N   UNL     1      -4.555  15.858  24.735  0.00  0.00    +0.000 NA
ATOM      7  C   UNL     1      -5.939  16.193  24.270  0.00  0.00    +0.000 C 
ATOM      8  C   UNL     1      -6.553  15.018  23.245  0.00  0.00    +0.000 C 
ATOM      9  C   UNL     1      -5.478  14.876  21.921  0.00  0.00    +0.000 C 
ATOM     10  O   UNL     1      -5.587  16.132  21.126  0.00  0.00    +0.000 OA
ATOM     11  C   UNL     1      -6.003  15.840  19.782  0.00  0.00    +0.000 C 
ATOM     12  C   UNL     1      -6.196  14.394  19.697  0.00  0.00    +0.000 A 
ATOM     13  C   UNL     1      -6.602  13.661  18.600  0.00  0.00    +0.000 A 
ATOM     14  C   UNL     1      -6.731  12.294  18.718  0.00  0.00    +0.000 A 
ATOM     15  F   UNL     1      -7.126  11.580  17.660  0.00  0.00    +0.000 F 
ATOM     16  C   UNL     1      -6.452  11.680  19.925  0.00  0.00    +0.000 A 
ATOM     17  F   UNL     1      -6.578  10.352  20.045  0.00  0.00    +0.000 F 
ATOM     18  C   UNL     1      -6.037  12.448  21.017  0.00  0.00    +0.000 A 
ATOM     19  C   UNL     1      -5.912  13.819  20.909  0.00  0.00    +0.000 A 
ATOM     20  H   UNL     1      -4.257  16.492  25.498  0.00  0.00    +0.000 HD
ENDBRANCH   2   4
BRANCH   3  21
ATOM     21  C   UNL     1      -2.229  12.253  21.715  0.00  0.00    +0.000 C 
ATOM     22  C   UNL     1      -1.272  11.724  22.794  0.00  0.00    +0.000 C 
ATOM     23  C   UNL     1      -2.671  12.149  23.181  0.00  0.00    +0.000 C 
ENDBRANCH   3  21
BRANCH   3  24
ATOM     24  C   UNL     1      -0.908  13.564  20.040  0.00  0.00    +0.000 C 
BRANCH  24  25
ATOM     25  C   UNL     1      -0.698  12.274  19.315  0.00  0.00    +0.000 A 
ATOM     26  C   UNL     1       0.541  11.607  19.519  0.00  0.00    +0.000 A 
ATOM     27  C   UNL     1       0.732  10.332  19.077  0.00  0.00    +0.000 A 
ATOM     28  C   UNL     1      -0.177   9.841  18.266  0.00  0.00    +0.000 A 
ATOM     29  C   UNL     1      -1.296  10.497  17.942  0.00  0.00    +0.000 A 
ATOM     30  C   UNL     1      -2.019   9.766  17.062  0.00  0.00    +0.000 A 
ATOM     31  C   UNL     1      -3.181  10.396  16.691  0.00  0.00    +0.000 A 
ATOM     32  C   UNL     1      -4.243  10.942  16.332  0.00  0.00    +0.000 A 
ATOM     33  N   UNL     1      -3.099  11.789  17.553  0.00  0.00    +0.000 NA
ATOM     34  C   UNL     1      -1.726  11.708  18.375  0.00  0.00    +0.000 A 
ENDBRANCH  24  25
ENDBRANCH   3  24
TORSDOF 4
ENDMDL
MODEL 4
REMARK VINA RESULT:      -7.0      8.701     11.314
REMARK  Name = 
REMARK  4 active torsions:
REMARK  status: ('A' for Active; 'I' for Inactive)
REMARK    1  A    between atoms: C_2  and  C_3
REMARK    2  A    between atoms: N_19  and  C_20
REMARK    3  A    between atoms: N_19  and  C_31
REMARK    4  A    between atoms: C_20  and  C_21
REMARK                            x       y       z     vdW  Elec       q    Type
REMARK                         _______ _______ _______ _____ _____    ______ ____
ROOT
ATOM      1  O   UNL     1       8.158  16.575  21.769  0.00  0.00    +0.000 OA
ATOM      2  C   UNL     1       7.535  16.024  20.866  0.00  0.00    +0.000 C 
ATOM      3  N   UNL     1       6.407  15.144  21.027  0.00  0.00    +0.000 N 
ENDROOT
BRANCH   2   4
ATOM      4  C   UNL     1       8.097  16.478  19.506  0.00  0.00    +0.000 C 
ATOM      5  C   UNL     1       8.351  18.135  19.497  0.00  0.00    +0.000 C 
ATOM      6  N   UNL     1       8.756  18.630  18.139  0.00  0.00    +0.000 NA
ATOM      7  C   UNL     1      10.119  18.122  17.785  0.00  0.00    +0.000 C 
ATOM      8  C   UNL     1      10.127  16.460  17.568  0.00  0.00    +0.000 C 
ATOM      9  C   UNL     1       9.566  15.748  19.019  0.00  0.00    +0.000 C 
ATOM     10  O   UNL     1      10.610  15.976  20.057  0.00  0.00    +0.000 OA
ATOM     11  C   UNL     1      11.085  14.721  20.572  0.00  0.00    +0.000 C 
ATOM     12  C   UNL     1      10.374  13.665  19.854  0.00  0.00    +0.000 A 
ATOM     13  C   UNL     1      10.512  12.300  20.011  0.00  0.00    +0.000 A 
ATOM     14  C   UNL     1       9.749  11.457  19.231  0.00  0.00    +0.000 A 
ATOM     15  F   UNL     1       9.881  10.134  19.376  0.00  0.00    +0.000 F 
ATOM     16  C   UNL     1       8.862  11.986  18.313  0.00  0.00    +0.000 A 
ATOM     17  F   UNL     1       8.121  11.170  17.552  0.00  0.00    +0.000 F 
ATOM     18  C   UNL     1       8.741  13.373  18.181  0.00  0.00    +0.000 A 
ATOM     19  C   UNL     1       9.506  14.224  18.953  0.00  0.00    +0.000 A 
ATOM     20  H   UNL     1       8.724  19.665  18.097  0.00  0.00    +0.000 HD
ENDBRANCH   2   4
BRANCH   3  21
ATOM     21  C   UNL     1       5.719  14.634  19.868  0.00  0.00    +0.000 C 
ATOM     22  C   UNL     1       4.195  14.747  19.707  0.00  0.00    +0.000 C 
ATOM     23  C   UNL     1       5.103  15.531  18.786  0.00  0.00    +0.000 C 
ENDBRANCH   3  21
BRANCH   3  24
ATOM     24  C   UNL     1       5.858  14.798  22.363  0.00  0.00    +0.000 C 
BRANCH  24  25
ATOM     25  C   UNL     1       6.518  13.610  22.985  0.00  0.00    +0.000 A 
ATOM     26  C   UNL     1       7.530  12.958  22.229  0.00  0.00    +0.000 A 
ATOM     27  C   UNL     1       8.329  12.011  22.797  0.00  0.00    +0.000 A 
ATOM     28  C   UNL     1       7.978  11.569  23.982  0.00  0.00    +0.000 A 
ATOM     29  C   UNL     1       6.944  12.067  24.670  0.00  0.00    +0.000 A 
ATOM     30  C   UNL     1       6.798  11.392  25.833  0.00  0.00    +0.000 A 
ATOM     31  C   UNL     1       5.745  11.860  26.579  0.00  0.00    +0.000 A 
ATOM     32  C   UNL     1       4.795  12.262  27.280  0.00  0.00    +0.000 A 
ATOM     33  N   UNL     1       5.172  13.070  25.631  0.00  0.00    +0.000 NA
ATOM     34  C   UNL     1       6.115  13.088  24.336  0.00  0.00    +0.000 A 
ENDBRANCH  24  25
ENDBRANCH   3  24
TORSDOF 4
ENDMDL
MODEL 5
REMARK VINA RESULT:      -7.0      4.154      7.736
REMARK  Name = 
REMARK  4 active torsions:
REMARK  status: ('A' for Active; 'I' for Inactive)
REMARK    1  A    between atoms: C_2  and  C_3
REMARK    2  A    between atoms: N_19  and  C_20
REMARK    3  A    between atoms: N_19  and  C_31
REMARK    4  A    between atoms: C_20  and  C_21
REMARK                            x       y       z     vdW  Elec       q    Type
REMARK                         _______ _______ _______ _____ _____    ______ ____
ROOT
ATOM      1  O   UNL     1       1.653  12.351  20.863  0.00  0.00    +0.000 OA
ATOM      2  C   UNL     1       0.525  12.171  20.414  0.00  0.00    +0.000 C 
ATOM      3  N   UNL     1       0.174  11.283  19.336  0.00  0.00    +0.000 N 
ENDROOT
BRANCH   2   4
ATOM      4  C   UNL     1      -0.490  12.987  21.235  0.00  0.00    +0.000 C 
ATOM      5  C   UNL     1      -0.825  12.221  22.687  0.00  0.00    +0.000 C 
ATOM      6  N   UNL     1      -1.921  12.913  23.444  0.00  0.00    +0.000 NA
ATOM      7  C   UNL     1      -1.458  14.255  23.920  0.00  0.00    +0.000 C 
ATOM      8  C   UNL     1      -1.193  15.310  22.645  0.00  0.00    +0.000 C 
ATOM      9  C   UNL     1      -0.031  14.591  21.614  0.00  0.00    +0.000 C 
ATOM     10  O   UNL     1       1.267  14.585  22.346  0.00  0.00    +0.000 OA
ATOM     11  C   UNL     1       2.258  15.324  21.614  0.00  0.00    +0.000 C 
ATOM     12  C   UNL     1       1.606  15.842  20.412  0.00  0.00    +0.000 A 
ATOM     13  C   UNL     1       2.168  16.616  19.417  0.00  0.00    +0.000 A 
ATOM     14  C   UNL     1       1.384  17.014  18.356  0.00  0.00    +0.000 A 
ATOM     15  F   UNL     1       1.922  17.766  17.390  0.00  0.00    +0.000 F 
ATOM     16  C   UNL     1       0.057  16.632  18.301  0.00  0.00    +0.000 A 
ATOM     17  F   UNL     1      -0.709  17.018  17.272  0.00  0.00    +0.000 F 
ATOM     18  C   UNL     1      -0.482  15.842  19.322  0.00  0.00    +0.000 A 
ATOM     19  C   UNL     1       0.294  15.446  20.392  0.00  0.00    +0.000 A 
ATOM     20  H   UNL     1      -2.249  12.332  24.237  0.00  0.00    +0.000 HD
ENDBRANCH   2   4
BRANCH   3  21
ATOM     21  C   UNL     1      -1.209  11.107  18.968  0.00  0.00    +0.000 C 
ATOM     22  C   UNL     1      -1.855  11.895  17.818  0.00  0.00    +0.000 C 
ATOM     23  C   UNL     1      -1.661  10.400  17.683  0.00  0.00    +0.000 C 
ENDBRANCH   3  21
BRANCH   3  24
ATOM     24  C   UNL     1       1.185  10.460  18.626  0.00  0.00    +0.000 C 
BRANCH  24  25
ATOM     25  C   UNL     1       1.480   9.165  19.309  0.00  0.00    +0.000 A 
ATOM     26  C   UNL     1       0.915   8.965  20.599  0.00  0.00    +0.000 A 
ATOM     27  C   UNL     1       0.948   7.742  21.197  0.00  0.00    +0.000 A 
ATOM     28  C   UNL     1       1.714   6.829  20.645  0.00  0.00    +0.000 A 
ATOM     29  C   UNL     1       2.372   7.027  19.498  0.00  0.00    +0.000 A 
ATOM     30  C   UNL     1       3.109   5.933  19.196  0.00  0.00    +0.000 A 
ATOM     31  C   UNL     1       3.811   6.082  18.026  0.00  0.00    +0.000 A 
ATOM     32  C   UNL     1       4.462   6.187  16.968  0.00  0.00    +0.000 A 
ATOM     33  N   UNL     1       3.372   7.592  17.561  0.00  0.00    +0.000 NA
ATOM     34  C   UNL     1       2.365   8.117  18.692  0.00  0.00    +0.000 A 
ENDBRANCH  24  25
ENDBRANCH   3  24
TORSDOF 4
ENDMDL
MODEL 6
REMARK VINA RESULT:      -6.9      3.503      5.755
REMARK  Name = 
REMARK  4 active torsions:
REMARK  status: ('A' for Active; 'I' for Inactive)
REMARK    1  A    between atoms: C_2  and  C_3
REMARK    2  A    between atoms: N_19  and  C_20
REMARK    3  A    between atoms: N_19  and  C_31
REMARK    4  A    between atoms: C_20  and  C_21
REMARK                            x       y       z     vdW  Elec       q    Type
REMARK                         _______ _______ _______ _____ _____    ______ ____
ROOT
ATOM      1  O   UNL     1       0.656  13.176  18.649  0.00  0.00    +0.000 OA
ATOM      2  C   UNL     1       0.790  12.555  19.700  0.00  0.00    +0.000 C 
ATOM      3  N   UNL     1       0.359  11.204  19.948  0.00  0.00    +0.000 N 
ENDROOT
BRANCH   2   4
ATOM      4  C   UNL     1       1.567  13.420  20.710  0.00  0.00    +0.000 C 
ATOM      5  C   UNL     1       3.063  13.849  20.089  0.00  0.00    +0.000 C 
ATOM      6  N   UNL     1       3.904  14.565  21.105  0.00  0.00    +0.000 NA
ATOM      7  C   UNL     1       3.318  15.908  21.414  0.00  0.00    +0.000 C 
ATOM      8  C   UNL     1       1.847  15.778  22.206  0.00  0.00    +0.000 C 
ATOM      9  C   UNL     1       0.801  14.867  21.204  0.00  0.00    +0.000 C 
ATOM     10  O   UNL     1       0.489  15.706  20.012  0.00  0.00    +0.000 OA
ATOM     11  C   UNL     1      -0.927  15.931  19.916  0.00  0.00    +0.000 C 
ATOM     12  C   UNL     1      -1.547  15.264  21.059  0.00  0.00    +0.000 A 
ATOM     13  C   UNL     1      -2.888  15.220  21.382  0.00  0.00    +0.000 A 
ATOM     14  C   UNL     1      -3.282  14.538  22.514  0.00  0.00    +0.000 A 
ATOM     15  F   UNL     1      -4.579  14.494  22.834  0.00  0.00    +0.000 F 
ATOM     16  C   UNL     1      -2.335  13.912  23.302  0.00  0.00    +0.000 A 
ATOM     17  F   UNL     1      -2.713  13.251  24.405  0.00  0.00    +0.000 F 
ATOM     18  C   UNL     1      -0.984  13.971  22.946  0.00  0.00    +0.000 A 
ATOM     19  C   UNL     1      -0.581  14.657  21.818  0.00  0.00    +0.000 A 
ATOM     20  H   UNL     1       4.885  14.655  20.779  0.00  0.00    +0.000 HD
ENDBRANCH   2   4
BRANCH   3  21
ATOM     21  C   UNL     1       0.660  10.571  21.208  0.00  0.00    +0.000 C 
ATOM     22  C   UNL     1      -0.339  10.562  22.376  0.00  0.00    +0.000 C 
ATOM     23  C   UNL     1       0.004   9.265  21.677  0.00  0.00    +0.000 C 
ENDBRANCH   3  21
BRANCH   3  24
ATOM     24  C   UNL     1      -0.321  10.387  18.911  0.00  0.00    +0.000 C 
BRANCH  24  25
ATOM     25  C   UNL     1      -1.708  10.852  18.606  0.00  0.00    +0.000 A 
ATOM     26  C   UNL     1      -2.434  11.468  19.662  0.00  0.00    +0.000 A 
ATOM     27  C   UNL     1      -3.611  12.112  19.422  0.00  0.00    +0.000 A 
ATOM     28  C   UNL     1      -4.151  11.942  18.237  0.00  0.00    +0.000 A 
ATOM     29  C   UNL     1      -3.557  11.252  17.256  0.00  0.00    +0.000 A 
ATOM     30  C   UNL     1      -4.363  11.211  16.171  0.00  0.00    +0.000 A 
ATOM     31  C   UNL     1      -3.803  10.510  15.131  0.00  0.00    +0.000 A 
ATOM     32  C   UNL     1      -3.322   9.878  14.170  0.00  0.00    +0.000 A 
ATOM     33  N   UNL     1      -2.361  10.057  15.770  0.00  0.00    +0.000 NA
ATOM     34  C   UNL     1      -2.341  10.652  17.257  0.00  0.00    +0.000 A 
ENDBRANCH  24  25
ENDBRANCH   3  24
TORSDOF 4
ENDMDL
MODEL 7
REMARK VINA RESULT:      -6.8      4.624      7.397
REMARK  Name = 
REMARK  4 active torsions:
REMARK  status: ('A' for Active; 'I' for Inactive)
REMARK    1  A    between atoms: C_2  and  C_3
REMARK    2  A    between atoms: N_19  and  C_20
REMARK    3  A    between atoms: N_19  and  C_31
REMARK    4  A    between atoms: C_20  and  C_21
REMARK                            x       y       z     vdW  Elec       q    Type
REMARK                         _______ _______ _______ _____ _____    ______ ____
ROOT
ATOM      1  O   UNL     1       2.986  13.063  19.014  0.00  0.00    +0.000 OA
ATOM      2  C   UNL     1       2.027  13.534  19.618  0.00  0.00    +0.000 C 
ATOM      3  N   UNL     1       0.650  13.140  19.463  0.00  0.00    +0.000 N 
ENDROOT
BRANCH   2   4
ATOM      4  C   UNL     1       2.525  14.572  20.640  0.00  0.00    +0.000 C 
ATOM      5  C   UNL     1       3.661  13.892  21.666  0.00  0.00    +0.000 C 
ATOM      6  N   UNL     1       4.057  14.834  22.765  0.00  0.00    +0.000 NA
ATOM      7  C   UNL     1       4.821  15.994  22.208  0.00  0.00    +0.000 C 
ATOM      8  C   UNL     1       3.858  16.968  21.241  0.00  0.00    +0.000 C 
ATOM      9  C   UNL     1       3.229  15.989  19.987  0.00  0.00    +0.000 C 
ATOM     10  O   UNL     1       4.368  15.622  19.099  0.00  0.00    +0.000 OA
ATOM     11  C   UNL     1       4.128  16.087  17.760  0.00  0.00    +0.000 C 
ATOM     12  C   UNL     1       2.844  16.784  17.772  0.00  0.00    +0.000 A 
ATOM     13  C   UNL     1       2.213  17.403  16.711  0.00  0.00    +0.000 A 
ATOM     14  C   UNL     1       0.997  18.017  16.923  0.00  0.00    +0.000 A 
ATOM     15  F   UNL     1       0.382  18.621  15.900  0.00  0.00    +0.000 F 
ATOM     16  C   UNL     1       0.431  18.003  18.183  0.00  0.00    +0.000 A 
ATOM     17  F   UNL     1      -0.750  18.601  18.393  0.00  0.00    +0.000 F 
ATOM     18  C   UNL     1       1.092  17.364  19.236  0.00  0.00    +0.000 A 
ATOM     19  C   UNL     1       2.313  16.752  19.035  0.00  0.00    +0.000 A 
ATOM     20  H   UNL     1       4.607  14.344  23.495  0.00  0.00    +0.000 HD
ENDBRANCH   2   4
BRANCH   3  21
ATOM     21  C   UNL     1      -0.366  13.723  20.304  0.00  0.00    +0.000 C 
ATOM     22  C   UNL     1      -1.419  14.698  19.755  0.00  0.00    +0.000 C 
ATOM     23  C   UNL     1      -1.848  13.330  20.238  0.00  0.00    +0.000 C 
ENDBRANCH   3  21
BRANCH   3  24
ATOM     24  C   UNL     1       0.233  12.077  18.515  0.00  0.00    +0.000 C 
BRANCH  24  25
ATOM     25  C   UNL     1       0.698  10.713  18.912  0.00  0.00    +0.000 A 
ATOM     26  C   UNL     1       1.270   9.898  17.896  0.00  0.00    +0.000 A 
ATOM     27  C   UNL     1       1.913   8.738  18.207  0.00  0.00    +0.000 A 
ATOM     28  C   UNL     1       1.780   8.295  19.437  0.00  0.00    +0.000 A 
ATOM     29  C   UNL     1       1.130   8.972  20.390  0.00  0.00    +0.000 A 
ATOM     30  C   UNL     1       1.121   8.255  21.537  0.00  0.00    +0.000 A 
ATOM     31  C   UNL     1       0.461   8.903  22.552  0.00  0.00    +0.000 A 
ATOM     32  C   UNL     1      -0.133   9.465  23.494  0.00  0.00    +0.000 A 
ATOM     33  N   UNL     1      -0.002  10.295  21.817  0.00  0.00    +0.000 NA
ATOM     34  C   UNL     1       0.540  10.191  20.313  0.00  0.00    +0.000 A 
ENDBRANCH  24  25
ENDBRANCH   3  24
TORSDOF 4
ENDMDL
MODEL 8
REMARK VINA RESULT:      -6.7      3.315      5.688
REMARK  Name = 
REMARK  4 active torsions:
REMARK  status: ('A' for Active; 'I' for Inactive)
REMARK    1  A    between atoms: C_2  and  C_3
REMARK    2  A    between atoms: N_19  and  C_20
REMARK    3  A    between atoms: N_19  and  C_31
REMARK    4  A    between atoms: C_20  and  C_21
REMARK                            x       y       z     vdW  Elec       q    Type
REMARK                         _______ _______ _______ _____ _____    ______ ____
ROOT
ATOM      1  O   UNL     1       0.550  12.892  18.786  0.00  0.00    +0.000 OA
ATOM      2  C   UNL     1       0.391  12.278  19.837  0.00  0.00    +0.000 C 
ATOM      3  N   UNL     1      -0.187  10.966  19.974  0.00  0.00    +0.000 N 
ENDROOT
BRANCH   2   4
ATOM      4  C   UNL     1       0.979  13.096  21.001  0.00  0.00    +0.000 C 
ATOM      5  C   UNL     1       2.449  13.772  20.563  0.00  0.00    +0.000 C 
ATOM      6  N   UNL     1       3.119  14.451  21.721  0.00  0.00    +0.000 NA
ATOM      7  C   UNL     1       2.346  15.667  22.131  0.00  0.00    +0.000 C 
ATOM      8  C   UNL     1       0.852  15.266  22.777  0.00  0.00    +0.000 C 
ATOM      9  C   UNL     1       0.002  14.370  21.592  0.00  0.00    +0.000 C 
ATOM     10  O   UNL     1      -0.330  15.307  20.482  0.00  0.00    +0.000 OA
ATOM     11  C   UNL     1      -1.753  15.374  20.292  0.00  0.00    +0.000 C 
ATOM     12  C   UNL     1      -2.361  14.502  21.295  0.00  0.00    +0.000 A 
ATOM     13  C   UNL     1      -3.705  14.260  21.497  0.00  0.00    +0.000 A 
ATOM     14  C   UNL     1      -4.086  13.401  22.505  0.00  0.00    +0.000 A 
ATOM     15  F   UNL     1      -5.387  13.165  22.707  0.00  0.00    +0.000 F 
ATOM     16  C   UNL     1      -3.125  12.799  23.294  0.00  0.00    +0.000 A 
ATOM     17  F   UNL     1      -3.491  11.966  24.277  0.00  0.00    +0.000 F 
ATOM     18  C   UNL     1      -1.770  13.060  23.062  0.00  0.00    +0.000 A 
ATOM     19  C   UNL     1      -1.380  13.923  22.059  0.00  0.00    +0.000 A 
ATOM     20  H   UNL     1       4.100  14.696  21.492  0.00  0.00    +0.000 HD
ENDBRANCH   2   4
BRANCH   3  21
ATOM     21  C   UNL     1      -0.233  10.331  21.267  0.00  0.00    +0.000 C 
ATOM     22  C   UNL     1      -0.252   8.803  21.426  0.00  0.00    +0.000 C 
ATOM     23  C   UNL     1       0.957   9.586  21.888  0.00  0.00    +0.000 C 
ENDBRANCH   3  21
BRANCH   3  24
ATOM     24  C   UNL     1      -0.671  10.188  18.806  0.00  0.00    +0.000 C 
BRANCH  24  25
ATOM     25  C   UNL     1      -1.998  10.648  18.298  0.00  0.00    +0.000 A 
ATOM     26  C   UNL     1      -2.873  11.271  19.230  0.00  0.00    +0.000 A 
ATOM     27  C   UNL     1      -4.001  11.912  18.814  0.00  0.00    +0.000 A 
ATOM     28  C   UNL     1      -4.362  11.730  17.564  0.00  0.00    +0.000 A 
ATOM     29  C   UNL     1      -3.630  11.034  16.687  0.00  0.00    +0.000 A 
ATOM     30  C   UNL     1      -4.268  10.982  15.495  0.00  0.00    +0.000 A 
ATOM     31  C   UNL     1      -3.561  10.273  14.556  0.00  0.00    +0.000 A 
ATOM     32  C   UNL     1      -2.944   9.634  13.681  0.00  0.00    +0.000 A 
ATOM     33  N   UNL     1      -2.228   9.829  15.402  0.00  0.00    +0.000 NA
ATOM     34  C   UNL     1      -2.427  10.436  16.871  0.00  0.00    +0.000 A 
ENDBRANCH  24  25
ENDBRANCH   3  24
TORSDOF 4
ENDMDL
MODEL 9
REMARK VINA RESULT:      -6.7      3.619      7.574
REMARK  Name = 
REMARK  4 active torsions:
REMARK  status: ('A' for Active; 'I' for Inactive)
REMARK    1  A    between atoms: C_2  and  C_3
REMARK    2  A    between atoms: N_19  and  C_20
REMARK    3  A    between atoms: N_19  and  C_31
REMARK    4  A    between atoms: C_20  and  C_21
REMARK                            x       y       z     vdW  Elec       q    Type
REMARK                         _______ _______ _______ _____ _____    ______ ____
ROOT
ATOM      1  O   UNL     1      -2.702  13.824  21.299  0.00  0.00    +0.000 OA
ATOM      2  C   UNL     1      -3.447  13.056  20.696  0.00  0.00    +0.000 C 
ATOM      3  N   UNL     1      -3.135  12.353  19.479  0.00  0.00    +0.000 N 
ENDROOT
BRANCH   2   4
ATOM      4  C   UNL     1      -4.759  12.892  21.484  0.00  0.00    +0.000 C 
ATOM      5  C   UNL     1      -4.440  12.557  23.095  0.00  0.00    +0.000 C 
ATOM      6  N   UNL     1      -5.694  12.244  23.859  0.00  0.00    +0.000 NA
ATOM      7  C   UNL     1      -6.551  13.467  23.977  0.00  0.00    +0.000 C 
ATOM      8  C   UNL     1      -7.157  13.948  22.490  0.00  0.00    +0.000 C 
ATOM      9  C   UNL     1      -5.824  14.231  21.457  0.00  0.00    +0.000 C 
ATOM     10  O   UNL     1      -5.121  15.444  21.963  0.00  0.00    +0.000 OA
ATOM     11  C   UNL     1      -5.092  16.464  20.952  0.00  0.00    +0.000 C 
ATOM     12  C   UNL     1      -5.799  15.935  19.787  0.00  0.00    +0.000 A 
ATOM     13  C   UNL     1      -6.028  16.567  18.582  0.00  0.00    +0.000 A 
ATOM     14  C   UNL     1      -6.725  15.900  17.598  0.00  0.00    +0.000 A 
ATOM     15  F   UNL     1      -6.952  16.508  16.429  0.00  0.00    +0.000 F 
ATOM     16  C   UNL     1      -7.180  14.615  17.830  0.00  0.00    +0.000 A 
ATOM     17  F   UNL     1      -7.860  13.964  16.876  0.00  0.00    +0.000 F 
ATOM     18  C   UNL     1      -6.928  13.999  19.059  0.00  0.00    +0.000 A 
ATOM     19  C   UNL     1      -6.237  14.663  20.053  0.00  0.00    +0.000 A 
ATOM     20  H   UNL     1      -5.472  11.856  24.794  0.00  0.00    +0.000 HD
ENDBRANCH   2   4
BRANCH   3  21
ATOM     21  C   UNL     1      -4.080  11.415  18.926  0.00  0.00    +0.000 C 
ATOM     22  C   UNL     1      -4.872  11.712  17.643  0.00  0.00    +0.000 C 
ATOM     23  C   UNL     1      -3.828  10.617  17.639  0.00  0.00    +0.000 C 
ENDBRANCH   3  21
BRANCH   3  24
ATOM     24  C   UNL     1      -1.823  12.491  18.799  0.00  0.00    +0.000 C 
BRANCH  24  25
ATOM     25  C   UNL     1      -0.920  11.319  19.010  0.00  0.00    +0.000 A 
ATOM     26  C   UNL     1      -0.366  10.707  17.852  0.00  0.00    +0.000 A 
ATOM     27  C   UNL     1       0.629   9.781  17.956  0.00  0.00    +0.000 A 
ATOM     28  C   UNL     1       0.885   9.316  19.157  0.00  0.00    +0.000 A 
ATOM     29  C   UNL     1       0.284   9.774  20.261  0.00  0.00    +0.000 A 
ATOM     30  C   UNL     1       0.717   9.082  21.340  0.00  0.00    +0.000 A 
ATOM     31  C   UNL     1       0.127   9.509  22.504  0.00  0.00    +0.000 A 
ATOM     32  C   UNL     1      -0.392   9.873  23.578  0.00  0.00    +0.000 A 
ATOM     33  N   UNL     1      -0.852  10.709  21.965  0.00  0.00    +0.000 NA
ATOM     34  C   UNL     1      -0.628  10.770  20.379  0.00  0.00    +0.000 A 
ENDBRANCH  24  25
ENDBRANCH   3  24
TORSDOF 4
ENDMDL
