MODEL 1
REMARK VINA RESULT:      -6.5      0.000      0.000
REMARK  Name = 
REMARK  4 active torsions:
REMARK  status: ('A' for Active; 'I' for Inactive)
REMARK    1  A    between atoms: C_1  and  O_2
REMARK    2  A    between atoms: O_2  and  P_3
REMARK    3  A    between atoms: C_7  and  C_8
REMARK    4  A    between atoms: C_13  and  C_14
REMARK                            x       y       z     vdW  Elec       q    Type
REMARK                         _______ _______ _______ _____ _____    ______ ____
ROOT
ATOM      1  P   UNL     1       6.183   4.946  17.139  0.00  0.00    +0.000 P 
ATOM      2  S   UNL     1       6.927   4.597  15.395  0.00  0.00    +0.000 S 
ATOM      3  N   UNL     1       5.512   6.437  17.378  0.00  0.00    +0.000 NA
ATOM      4  C   UNL     1       4.195   6.265  17.998  0.00  0.00    +0.000 C 
ATOM      5  C   UNL     1       3.741   4.808  17.753  0.00  0.00    +0.000 C 
ATOM      6  O   UNL     1       4.916   4.018  17.541  0.00  0.00    +0.000 OA
ATOM      7  H   UNL     1       5.420   6.931  16.495  0.00  0.00    +0.000 HD
ENDROOT
BRANCH   5   8
ATOM      8  C   UNL     1       2.946   4.255  18.921  0.00  0.00    +0.000 A 
ATOM      9  C   UNL     1       2.804   5.035  20.087  0.00  0.00    +0.000 A 
ATOM     10  C   UNL     1       2.067   4.582  21.181  0.00  0.00    +0.000 A 
ATOM     11  C   UNL     1       1.448   3.341  21.128  0.00  0.00    +0.000 A 
ATOM     12  C   UNL     1       1.557   2.559  19.979  0.00  0.00    +0.000 A 
ATOM     13  C   UNL     1       2.298   3.000  18.867  0.00  0.00    +0.000 A 
ATOM     14  C   UNL     1       2.346   2.123  17.646  0.00  0.00    +0.000 C 
ENDBRANCH   5   8
BRANCH   1  16
ATOM     15  C   UNL     1       7.746   5.823  19.032  0.00  0.00    +0.000 C 
ATOM     16  O   UNL     1       7.145   4.703  18.410  0.00  0.00    +0.000 OA
ENDBRANCH   1  16
TORSDOF 2
ENDMDL
MODEL 2
REMARK VINA RESULT:      -6.4      2.286      3.006
REMARK  Name = 
REMARK  4 active torsions:
REMARK  status: ('A' for Active; 'I' for Inactive)
REMARK    1  A    between atoms: C_1  and  O_2
REMARK    2  A    between atoms: O_2  and  P_3
REMARK    3  A    between atoms: C_7  and  C_8
REMARK    4  A    between atoms: C_13  and  C_14
REMARK                            x       y       z     vdW  Elec       q    Type
REMARK                         _______ _______ _______ _____ _____    ______ ____
ROOT
ATOM      1  P   UNL     1       7.188   6.325  17.651  0.00  0.00    +0.000 P 
ATOM      2  S   UNL     1       7.864   8.130  17.608  0.00  0.00    +0.000 S 
ATOM      3  N   UNL     1       7.440   5.468  19.040  0.00  0.00    +0.000 NA
ATOM      4  C   UNL     1       6.177   4.842  19.441  0.00  0.00    +0.000 C 
ATOM      5  C   UNL     1       5.029   5.586  18.723  0.00  0.00    +0.000 C 
ATOM      6  O   UNL     1       5.575   6.196  17.549  0.00  0.00    +0.000 OA
ATOM      7  H   UNL     1       7.776   6.079  19.779  0.00  0.00    +0.000 HD
ENDROOT
BRANCH   5   8
ATOM      8  C   UNL     1       3.893   4.654  18.345  0.00  0.00    +0.000 A 
ATOM      9  C   UNL     1       4.149   3.273  18.224  0.00  0.00    +0.000 A 
ATOM     10  C   UNL     1       3.137   2.371  17.898  0.00  0.00    +0.000 A 
ATOM     11  C   UNL     1       1.843   2.831  17.695  0.00  0.00    +0.000 A 
ATOM     12  C   UNL     1       1.561   4.189  17.828  0.00  0.00    +0.000 A 
ATOM     13  C   UNL     1       2.570   5.113  18.155  0.00  0.00    +0.000 A 
ATOM     14  C   UNL     1       2.190   6.560  18.318  0.00  0.00    +0.000 C 
ENDBRANCH   5   8
BRANCH   1  16
ATOM     15  C   UNL     1       6.692   4.997  15.463  0.00  0.00    +0.000 C 
ATOM     16  O   UNL     1       7.641   5.343  16.455  0.00  0.00    +0.000 OA
ENDBRANCH   1  16
TORSDOF 2
ENDMDL
MODEL 3
REMARK VINA RESULT:      -6.4      3.372      5.466
REMARK  Name = 
REMARK  4 active torsions:
REMARK  status: ('A' for Active; 'I' for Inactive)
REMARK    1  A    between atoms: C_1  and  O_2
REMARK    2  A    between atoms: O_2  and  P_3
REMARK    3  A    between atoms: C_7  and  C_8
REMARK    4  A    between atoms: C_13  and  C_14
REMARK                            x       y       z     vdW  Elec       q    Type
REMARK                         _______ _______ _______ _____ _____    ______ ____
ROOT
ATOM      1  P   UNL     1       2.529   3.961  20.104  0.00  0.00    +0.000 P 
ATOM      2  S   UNL     1       2.201   3.076  21.785  0.00  0.00    +0.000 S 
ATOM      3  N   UNL     1       2.789   5.591  20.158  0.00  0.00    +0.000 NA
ATOM      4  C   UNL     1       3.981   5.903  19.365  0.00  0.00    +0.000 C 
ATOM      5  C   UNL     1       4.791   4.599  19.191  0.00  0.00    +0.000 C 
ATOM      6  O   UNL     1       3.884   3.502  19.342  0.00  0.00    +0.000 OA
ATOM      7  H   UNL     1       2.919   5.899  21.118  0.00  0.00    +0.000 HD
ENDROOT
BRANCH   5   8
ATOM      8  C   UNL     1       5.475   4.527  17.839  0.00  0.00    +0.000 A 
ATOM      9  C   UNL     1       4.740   4.088  16.719  0.00  0.00    +0.000 A 
ATOM     10  C   UNL     1       5.314   4.022  15.450  0.00  0.00    +0.000 A 
ATOM     11  C   UNL     1       6.637   4.404  15.273  0.00  0.00    +0.000 A 
ATOM     12  C   UNL     1       7.379   4.861  16.360  0.00  0.00    +0.000 A 
ATOM     13  C   UNL     1       6.816   4.932  17.647  0.00  0.00    +0.000 A 
ATOM     14  C   UNL     1       7.662   5.467  18.770  0.00  0.00    +0.000 C 
ENDBRANCH   5   8
BRANCH   1  16
ATOM     15  C   UNL     1       1.406   2.496  18.263  0.00  0.00    +0.000 C 
ATOM     16  O   UNL     1       1.440   3.742  18.934  0.00  0.00    +0.000 OA
ENDBRANCH   1  16
TORSDOF 2
ENDMDL
MODEL 4
REMARK VINA RESULT:      -6.4      3.413      5.389
REMARK  Name = 
REMARK  4 active torsions:
REMARK  status: ('A' for Active; 'I' for Inactive)
REMARK    1  A    between atoms: C_1  and  O_2
REMARK    2  A    between atoms: O_2  and  P_3
REMARK    3  A    between atoms: C_7  and  C_8
REMARK    4  A    between atoms: C_13  and  C_14
REMARK                            x       y       z     vdW  Elec       q    Type
REMARK                         _______ _______ _______ _____ _____    ______ ____
ROOT
ATOM      1  P   UNL     1       2.477   3.281  19.789  0.00  0.00    +0.000 P 
ATOM      2  S   UNL     1       2.084   3.294  21.676  0.00  0.00    +0.000 S 
ATOM      3  N   UNL     1       1.655   4.363  18.849  0.00  0.00    +0.000 NA
ATOM      4  C   UNL     1       2.612   5.056  17.983  0.00  0.00    +0.000 C 
ATOM      5  C   UNL     1       4.021   4.876  18.594  0.00  0.00    +0.000 C 
ATOM      6  O   UNL     1       3.996   3.695  19.402  0.00  0.00    +0.000 OA
ATOM      7  H   UNL     1       1.161   5.035  19.430  0.00  0.00    +0.000 HD
ENDROOT
BRANCH   5   8
ATOM      8  C   UNL     1       5.094   4.754  17.527  0.00  0.00    +0.000 A 
ATOM      9  C   UNL     1       4.727   4.358  16.225  0.00  0.00    +0.000 A 
ATOM     10  C   UNL     1       5.669   4.249  15.204  0.00  0.00    +0.000 A 
ATOM     11  C   UNL     1       7.001   4.543  15.462  0.00  0.00    +0.000 A 
ATOM     12  C   UNL     1       7.386   4.955  16.736  0.00  0.00    +0.000 A 
ATOM     13  C   UNL     1       6.448   5.069  17.778  0.00  0.00    +0.000 A 
ATOM     14  C   UNL     1       6.925   5.554  19.120  0.00  0.00    +0.000 C 
ENDBRANCH   5   8
BRANCH   1  16
ATOM     15  C   UNL     1       3.506   1.311  18.426  0.00  0.00    +0.000 C 
ATOM     16  O   UNL     1       2.349   1.867  19.022  0.00  0.00    +0.000 OA
ENDBRANCH   1  16
TORSDOF 2
ENDMDL
MODEL 5
REMARK VINA RESULT:      -6.3      3.729      5.371
REMARK  Name = 
REMARK  4 active torsions:
REMARK  status: ('A' for Active; 'I' for Inactive)
REMARK    1  A    between atoms: C_1  and  O_2
REMARK    2  A    between atoms: O_2  and  P_3
REMARK    3  A    between atoms: C_7  and  C_8
REMARK    4  A    between atoms: C_13  and  C_14
REMARK                            x       y       z     vdW  Elec       q    Type
REMARK                         _______ _______ _______ _____ _____    ______ ____
ROOT
ATOM      1  P   UNL     1       2.075   2.776  19.654  0.00  0.00    +0.000 P 
ATOM      2  S   UNL     1       1.695   2.704  21.543  0.00  0.00    +0.000 S 
ATOM      3  N   UNL     1       0.902   3.411  18.681  0.00  0.00    +0.000 NA
ATOM      4  C   UNL     1       1.517   4.392  17.782  0.00  0.00    +0.000 C 
ATOM      5  C   UNL     1       2.878   4.804  18.388  0.00  0.00    +0.000 C 
ATOM      6  O   UNL     1       3.312   3.739  19.241  0.00  0.00    +0.000 OA
ATOM      7  H   UNL     1       0.179   3.856  19.239  0.00  0.00    +0.000 HD
ENDROOT
BRANCH   5   8
ATOM      8  C   UNL     1       3.920   5.073  17.319  0.00  0.00    +0.000 A 
ATOM      9  C   UNL     1       4.507   3.985  16.642  0.00  0.00    +0.000 A 
ATOM     10  C   UNL     1       5.455   4.178  15.638  0.00  0.00    +0.000 A 
ATOM     11  C   UNL     1       5.830   5.466  15.283  0.00  0.00    +0.000 A 
ATOM     12  C   UNL     1       5.250   6.559  15.924  0.00  0.00    +0.000 A 
ATOM     13  C   UNL     1       4.293   6.382  16.940  0.00  0.00    +0.000 A 
ATOM     14  C   UNL     1       3.681   7.606  17.567  0.00  0.00    +0.000 C 
ENDBRANCH   5   8
BRANCH   1  16
ATOM     15  C   UNL     1       3.896   1.172  18.700  0.00  0.00    +0.000 C 
ATOM     16  O   UNL     1       2.520   1.398  18.942  0.00  0.00    +0.000 OA
ENDBRANCH   1  16
TORSDOF 2
ENDMDL
MODEL 6
REMARK VINA RESULT:      -6.2      1.505      1.743
REMARK  Name = 
REMARK  4 active torsions:
REMARK  status: ('A' for Active; 'I' for Inactive)
REMARK    1  A    between atoms: C_1  and  O_2
REMARK    2  A    between atoms: O_2  and  P_3
REMARK    3  A    between atoms: C_7  and  C_8
REMARK    4  A    between atoms: C_13  and  C_14
REMARK                            x       y       z     vdW  Elec       q    Type
REMARK                         _______ _______ _______ _____ _____    ______ ____
ROOT
ATOM      1  P   UNL     1       6.559   4.735  15.747  0.00  0.00    +0.000 P 
ATOM      2  S   UNL     1       6.910   4.553  13.860  0.00  0.00    +0.000 S 
ATOM      3  N   UNL     1       5.958   6.187  16.256  0.00  0.00    +0.000 NA
ATOM      4  C   UNL     1       4.805   5.939  17.126  0.00  0.00    +0.000 C 
ATOM      5  C   UNL     1       4.306   4.501  16.855  0.00  0.00    +0.000 C 
ATOM      6  O   UNL     1       5.406   3.753  16.326  0.00  0.00    +0.000 OA
ATOM      7  H   UNL     1       5.678   6.755  15.461  0.00  0.00    +0.000 HD
ENDROOT
BRANCH   5   8
ATOM      8  C   UNL     1       3.780   3.834  18.112  0.00  0.00    +0.000 A 
ATOM      9  C   UNL     1       4.691   3.236  19.006  0.00  0.00    +0.000 A 
ATOM     10  C   UNL     1       4.262   2.627  20.185  0.00  0.00    +0.000 A 
ATOM     11  C   UNL     1       2.910   2.611  20.499  0.00  0.00    +0.000 A 
ATOM     12  C   UNL     1       1.991   3.213  19.642  0.00  0.00    +0.000 A 
ATOM     13  C   UNL     1       2.407   3.830  18.448  0.00  0.00    +0.000 A 
ATOM     14  C   UNL     1       1.367   4.492  17.585  0.00  0.00    +0.000 C 
ENDBRANCH   5   8
BRANCH   1  16
ATOM     15  C   UNL     1       7.738   4.939  18.063  0.00  0.00    +0.000 C 
ATOM     16  O   UNL     1       7.772   4.398  16.755  0.00  0.00    +0.000 OA
ENDBRANCH   1  16
TORSDOF 2
ENDMDL
MODEL 7
REMARK VINA RESULT:      -6.2      1.935      2.689
REMARK  Name = 
REMARK  4 active torsions:
REMARK  status: ('A' for Active; 'I' for Inactive)
REMARK    1  A    between atoms: C_1  and  O_2
REMARK    2  A    between atoms: O_2  and  P_3
REMARK    3  A    between atoms: C_7  and  C_8
REMARK    4  A    between atoms: C_13  and  C_14
REMARK                            x       y       z     vdW  Elec       q    Type
REMARK                         _______ _______ _______ _____ _____    ______ ____
ROOT
ATOM      1  P   UNL     1       6.552   5.611  17.681  0.00  0.00    +0.000 P 
ATOM      2  S   UNL     1       7.292   7.336  17.241  0.00  0.00    +0.000 S 
ATOM      3  N   UNL     1       6.835   5.046  19.207  0.00  0.00    +0.000 NA
ATOM      4  C   UNL     1       5.570   4.574  19.776  0.00  0.00    +0.000 C 
ATOM      5  C   UNL     1       4.418   5.207  18.962  0.00  0.00    +0.000 C 
ATOM      6  O   UNL     1       4.932   5.537  17.668  0.00  0.00    +0.000 OA
ATOM      7  H   UNL     1       7.227   5.780  19.791  0.00  0.00    +0.000 HD
ENDROOT
BRANCH   5   8
ATOM      8  C   UNL     1       3.233   4.269  18.827  0.00  0.00    +0.000 A 
ATOM      9  C   UNL     1       3.330   3.158  17.965  0.00  0.00    +0.000 A 
ATOM     10  C   UNL     1       2.277   2.255  17.820  0.00  0.00    +0.000 A 
ATOM     11  C   UNL     1       1.107   2.439  18.542  0.00  0.00    +0.000 A 
ATOM     12  C   UNL     1       0.994   3.519  19.416  0.00  0.00    +0.000 A 
ATOM     13  C   UNL     1       2.045   4.440  19.574  0.00  0.00    +0.000 A 
ATOM     14  C   UNL     1       1.870   5.563  20.561  0.00  0.00    +0.000 C 
ENDBRANCH   5   8
BRANCH   1  16
ATOM     15  C   UNL     1       6.707   4.544  15.307  0.00  0.00    +0.000 C 
ATOM     16  O   UNL     1       6.914   4.384  16.699  0.00  0.00    +0.000 OA
ENDBRANCH   1  16
TORSDOF 2
ENDMDL
MODEL 8
REMARK VINA RESULT:      -6.1      3.193      5.204
REMARK  Name = 
REMARK  4 active torsions:
REMARK  status: ('A' for Active; 'I' for Inactive)
REMARK    1  A    between atoms: C_1  and  O_2
REMARK    2  A    between atoms: O_2  and  P_3
REMARK    3  A    between atoms: C_7  and  C_8
REMARK    4  A    between atoms: C_13  and  C_14
REMARK                            x       y       z     vdW  Elec       q    Type
REMARK                         _______ _______ _______ _____ _____    ______ ____
ROOT
ATOM      1  P   UNL     1       2.623   3.052  19.065  0.00  0.00    +0.000 P 
ATOM      2  S   UNL     1       0.695   3.082  19.067  0.00  0.00    +0.000 S 
ATOM      3  N   UNL     1       3.354   2.231  17.832  0.00  0.00    +0.000 NA
ATOM      4  C   UNL     1       4.405   3.078  17.262  0.00  0.00    +0.000 C 
ATOM      5  C   UNL     1       4.118   4.538  17.682  0.00  0.00    +0.000 C 
ATOM      6  O   UNL     1       3.330   4.498  18.876  0.00  0.00    +0.000 OA
ATOM      7  H   UNL     1       2.676   1.988  17.115  0.00  0.00    +0.000 HD
ENDROOT
BRANCH   5   8
ATOM      8  C   UNL     1       5.394   5.322  17.927  0.00  0.00    +0.000 A 
ATOM      9  C   UNL     1       6.164   5.042  19.074  0.00  0.00    +0.000 A 
ATOM     10  C   UNL     1       7.354   5.720  19.336  0.00  0.00    +0.000 A 
ATOM     11  C   UNL     1       7.806   6.687  18.448  0.00  0.00    +0.000 A 
ATOM     12  C   UNL     1       7.073   6.968  17.297  0.00  0.00    +0.000 A 
ATOM     13  C   UNL     1       5.869   6.295  17.018  0.00  0.00    +0.000 A 
ATOM     14  C   UNL     1       5.146   6.622  15.740  0.00  0.00    +0.000 C 
ENDBRANCH   5   8
BRANCH   1  16
ATOM     15  C   UNL     1       2.654   2.634  21.638  0.00  0.00    +0.000 C 
ATOM     16  O   UNL     1       3.350   2.538  20.410  0.00  0.00    +0.000 OA
ENDBRANCH   1  16
TORSDOF 2
ENDMDL
MODEL 9
REMARK VINA RESULT:      -6.1      0.962      1.047
REMARK  Name = 
REMARK  4 active torsions:
REMARK  status: ('A' for Active; 'I' for Inactive)
REMARK    1  A    between atoms: C_1  and  O_2
REMARK    2  A    between atoms: O_2  and  P_3
REMARK    3  A    between atoms: C_7  and  C_8
REMARK    4  A    between atoms: C_13  and  C_14
REMARK                            x       y       z     vdW  Elec       q    Type
REMARK                         _______ _______ _______ _____ _____    ______ ____
ROOT
ATOM      1  P   UNL     1       6.317   4.916  17.282  0.00  0.00    +0.000 P 
ATOM      2  S   UNL     1       7.184   4.766  15.567  0.00  0.00    +0.000 S 
ATOM      3  N   UNL     1       5.537   6.336  17.601  0.00  0.00    +0.000 NA
ATOM      4  C   UNL     1       4.200   6.032  18.118  0.00  0.00    +0.000 C 
ATOM      5  C   UNL     1       3.858   4.577  17.725  0.00  0.00    +0.000 C 
ATOM      6  O   UNL     1       5.092   3.881  17.523  0.00  0.00    +0.000 OA
ATOM      7  H   UNL     1       5.464   6.899  16.758  0.00  0.00    +0.000 HD
ENDROOT
BRANCH   5   8
ATOM      8  C   UNL     1       3.033   3.877  18.789  0.00  0.00    +0.000 A 
ATOM      9  C   UNL     1       3.662   3.449  19.975  0.00  0.00    +0.000 A 
ATOM     10  C   UNL     1       2.947   2.819  20.993  0.00  0.00    +0.000 A 
ATOM     11  C   UNL     1       1.582   2.610  20.848  0.00  0.00    +0.000 A 
ATOM     12  C   UNL     1       0.934   3.041  19.692  0.00  0.00    +0.000 A 
ATOM     13  C   UNL     1       1.640   3.677  18.656  0.00  0.00    +0.000 A 
ATOM     14  C   UNL     1       0.872   4.149  17.451  0.00  0.00    +0.000 C 
ENDBRANCH   5   8
BRANCH   1  16
ATOM     15  C   UNL     1       7.893   5.701  19.206  0.00  0.00    +0.000 C 
ATOM     16  O   UNL     1       7.217   4.621  18.589  0.00  0.00    +0.000 OA
ENDBRANCH   1  16
TORSDOF 2
ENDMDL
