MODEL 1
REMARK VINA RESULT:      -7.1      0.000      0.000
REMARK  Name = 
REMARK  3 active torsions:
REMARK  status: ('A' for Active; 'I' for Inactive)
REMARK    1  A    between atoms: C_1  and  C_2
REMARK    2  A    between atoms: C_6  and  C_7
REMARK    3  A    between atoms: C_7  and  N_8
REMARK                            x       y       z     vdW  Elec       q    Type
REMARK                         _______ _______ _______ _____ _____    ______ ____
ROOT
ATOM      1  N   UNL     1       4.079   5.467  17.267  0.00  0.00    +0.000 N 
ATOM      2  C   UNL     1       3.370   6.302  18.100  0.00  0.00    +0.000 A 
ATOM      3  N   UNL     1       2.417   5.923  18.886  0.00  0.00    +0.000 NA
ATOM      4  C   UNL     1       2.091   4.557  18.900  0.00  0.00    +0.000 A 
ATOM      5  C   UNL     1       1.062   4.111  19.722  0.00  0.00    +0.000 A 
ATOM      6  C   UNL     1       0.749   2.760  19.717  0.00  0.00    +0.000 A 
ATOM      7  N   UNL     1       1.390   1.842  18.959  0.00  0.00    +0.000 NA
ATOM      8  C   UNL     1       2.392   2.299  18.169  0.00  0.00    +0.000 A 
ATOM      9  C   UNL     1       2.764   3.630  18.113  0.00  0.00    +0.000 A 
ATOM     10  C   UNL     1       3.848   4.101  17.246  0.00  0.00    +0.000 A 
ATOM     11  O   UNL     1       4.482   3.300  16.564  0.00  0.00    +0.000 OA
ENDROOT
BRANCH   1  12
ATOM     12  C   UNL     1       5.145   6.015  16.440  0.00  0.00    +0.000 C 
BRANCH  12  18
ATOM     13  C   UNL     1       8.251   9.582  17.619  0.00  0.00    +0.000 C 
ATOM     14  C   UNL     1       7.796   8.173  17.849  0.00  0.00    +0.000 A 
ATOM     15  C   UNL     1       8.437   7.359  18.775  0.00  0.00    +0.000 A 
ATOM     16  C   UNL     1       7.992   6.052  18.940  0.00  0.00    +0.000 A 
ATOM     17  C   UNL     1       6.924   5.593  18.179  0.00  0.00    +0.000 A 
ATOM     18  C   UNL     1       6.330   6.462  17.266  0.00  0.00    +0.000 A 
ATOM     19  N   UNL     1       6.750   7.743  17.099  0.00  0.00    +0.000 NA
ENDBRANCH  12  18
ENDBRANCH   1  12
TORSDOF 2
ENDMDL
MODEL 2
REMARK VINA RESULT:      -7.1      1.376      1.905
REMARK  Name = 
REMARK  3 active torsions:
REMARK  status: ('A' for Active; 'I' for Inactive)
REMARK    1  A    between atoms: C_1  and  C_2
REMARK    2  A    between atoms: C_6  and  C_7
REMARK    3  A    between atoms: C_7  and  N_8
REMARK                            x       y       z     vdW  Elec       q    Type
REMARK                         _______ _______ _______ _____ _____    ______ ____
ROOT
ATOM      1  N   UNL     1       4.329   4.778  17.163  0.00  0.00    +0.000 N 
ATOM      2  C   UNL     1       4.261   3.425  16.928  0.00  0.00    +0.000 A 
ATOM      3  N   UNL     1       3.463   2.609  17.536  0.00  0.00    +0.000 NA
ATOM      4  C   UNL     1       2.594   3.149  18.497  0.00  0.00    +0.000 A 
ATOM      5  C   UNL     1       1.730   2.303  19.184  0.00  0.00    +0.000 A 
ATOM      6  C   UNL     1       0.882   2.852  20.135  0.00  0.00    +0.000 A 
ATOM      7  N   UNL     1       0.844   4.170  20.437  0.00  0.00    +0.000 NA
ATOM      8  C   UNL     1       1.692   4.975  19.752  0.00  0.00    +0.000 A 
ATOM      9  C   UNL     1       2.568   4.507  18.791  0.00  0.00    +0.000 A 
ATOM     10  C   UNL     1       3.481   5.398  18.067  0.00  0.00    +0.000 A 
ATOM     11  O   UNL     1       3.458   6.607  18.282  0.00  0.00    +0.000 OA
ENDROOT
BRANCH   1  12
ATOM     12  C   UNL     1       5.260   5.593  16.397  0.00  0.00    +0.000 C 
BRANCH  12  18
ATOM     13  C   UNL     1       8.091   9.362  17.638  0.00  0.00    +0.000 C 
ATOM     14  C   UNL     1       7.722   7.927  17.866  0.00  0.00    +0.000 A 
ATOM     15  C   UNL     1       8.388   7.163  18.816  0.00  0.00    +0.000 A 
ATOM     16  C   UNL     1       8.024   5.830  18.978  0.00  0.00    +0.000 A 
ATOM     17  C   UNL     1       7.011   5.298  18.190  0.00  0.00    +0.000 A 
ATOM     18  C   UNL     1       6.389   6.121  17.253  0.00  0.00    +0.000 A 
ATOM     19  N   UNL     1       6.730   7.426  17.089  0.00  0.00    +0.000 NA
ENDBRANCH  12  18
ENDBRANCH   1  12
TORSDOF 2
ENDMDL
MODEL 3
REMARK VINA RESULT:      -7.0      2.336      3.204
REMARK  Name = 
REMARK  3 active torsions:
REMARK  status: ('A' for Active; 'I' for Inactive)
REMARK    1  A    between atoms: C_1  and  C_2
REMARK    2  A    between atoms: C_6  and  C_7
REMARK    3  A    between atoms: C_7  and  N_8
REMARK                            x       y       z     vdW  Elec       q    Type
REMARK                         _______ _______ _______ _____ _____    ______ ____
ROOT
ATOM      1  N   UNL     1       4.827   5.532  18.056  0.00  0.00    +0.000 N 
ATOM      2  C   UNL     1       3.676   6.274  17.926  0.00  0.00    +0.000 A 
ATOM      3  N   UNL     1       2.560   6.015  18.526  0.00  0.00    +0.000 NA
ATOM      4  C   UNL     1       2.527   4.904  19.383  0.00  0.00    +0.000 A 
ATOM      5  C   UNL     1       1.341   4.584  20.036  0.00  0.00    +0.000 A 
ATOM      6  C   UNL     1       1.325   3.479  20.874  0.00  0.00    +0.000 A 
ATOM      7  N   UNL     1       2.398   2.688  21.097  0.00  0.00    +0.000 NA
ATOM      8  C   UNL     1       3.543   3.021  20.453  0.00  0.00    +0.000 A 
ATOM      9  C   UNL     1       3.643   4.105  19.600  0.00  0.00    +0.000 A 
ATOM     10  C   UNL     1       4.892   4.442  18.910  0.00  0.00    +0.000 A 
ATOM     11  O   UNL     1       5.903   3.774  19.107  0.00  0.00    +0.000 OA
ENDROOT
BRANCH   1  12
ATOM     12  C   UNL     1       6.026   5.938  17.338  0.00  0.00    +0.000 C 
BRANCH  12  18
ATOM     13  C   UNL     1       8.369   5.584  13.079  0.00  0.00    +0.000 C 
ATOM     14  C   UNL     1       7.261   5.090  13.959  0.00  0.00    +0.000 A 
ATOM     15  C   UNL     1       6.405   4.082  13.529  0.00  0.00    +0.000 A 
ATOM     16  C   UNL     1       5.380   3.670  14.373  0.00  0.00    +0.000 A 
ATOM     17  C   UNL     1       5.235   4.272  15.617  0.00  0.00    +0.000 A 
ATOM     18  C   UNL     1       6.126   5.278  15.982  0.00  0.00    +0.000 A 
ATOM     19  N   UNL     1       7.137   5.686  15.171  0.00  0.00    +0.000 NA
ENDBRANCH  12  18
ENDBRANCH   1  12
TORSDOF 2
ENDMDL
MODEL 4
REMARK VINA RESULT:      -6.9      2.704      3.795
REMARK  Name = 
REMARK  3 active torsions:
REMARK  status: ('A' for Active; 'I' for Inactive)
REMARK    1  A    between atoms: C_1  and  C_2
REMARK    2  A    between atoms: C_6  and  C_7
REMARK    3  A    between atoms: C_7  and  N_8
REMARK                            x       y       z     vdW  Elec       q    Type
REMARK                         _______ _______ _______ _____ _____    ______ ____
ROOT
ATOM      1  N   UNL     1       5.737   5.298  17.727  0.00  0.00    +0.000 N 
ATOM      2  C   UNL     1       5.224   6.505  17.309  0.00  0.00    +0.000 A 
ATOM      3  N   UNL     1       4.157   7.058  17.786  0.00  0.00    +0.000 NA
ATOM      4  C   UNL     1       3.481   6.383  18.814  0.00  0.00    +0.000 A 
ATOM      5  C   UNL     1       2.321   6.937  19.344  0.00  0.00    +0.000 A 
ATOM      6  C   UNL     1       1.662   6.253  20.355  0.00  0.00    +0.000 A 
ATOM      7  N   UNL     1       2.082   5.072  20.862  0.00  0.00    +0.000 NA
ATOM      8  C   UNL     1       3.217   4.553  20.332  0.00  0.00    +0.000 A 
ATOM      9  C   UNL     1       3.931   5.170  19.322  0.00  0.00    +0.000 A 
ATOM     10  C   UNL     1       5.154   4.585  18.762  0.00  0.00    +0.000 A 
ATOM     11  O   UNL     1       5.593   3.531  19.213  0.00  0.00    +0.000 OA
ENDROOT
BRANCH   1  12
ATOM     12  C   UNL     1       6.959   4.790  17.121  0.00  0.00    +0.000 C 
BRANCH  12  18
ATOM     13  C   UNL     1       8.521   5.909  12.641  0.00  0.00    +0.000 C 
ATOM     14  C   UNL     1       7.578   5.112  13.490  0.00  0.00    +0.000 A 
ATOM     15  C   UNL     1       6.649   4.255  12.912  0.00  0.00    +0.000 A 
ATOM     16  C   UNL     1       5.781   3.551  13.740  0.00  0.00    +0.000 A 
ATOM     17  C   UNL     1       5.862   3.720  15.116  0.00  0.00    +0.000 A 
ATOM     18  C   UNL     1       6.814   4.599  15.628  0.00  0.00    +0.000 A 
ATOM     19  N   UNL     1       7.673   5.288  14.832  0.00  0.00    +0.000 NA
ENDBRANCH  12  18
ENDBRANCH   1  12
TORSDOF 2
ENDMDL
MODEL 5
REMARK VINA RESULT:      -6.8      1.418      6.059
REMARK  Name = 
REMARK  3 active torsions:
REMARK  status: ('A' for Active; 'I' for Inactive)
REMARK    1  A    between atoms: C_1  and  C_2
REMARK    2  A    between atoms: C_6  and  C_7
REMARK    3  A    between atoms: C_7  and  N_8
REMARK                            x       y       z     vdW  Elec       q    Type
REMARK                         _______ _______ _______ _____ _____    ______ ____
ROOT
ATOM      1  N   UNL     1       4.893   4.562  17.177  0.00  0.00    +0.000 N 
ATOM      2  C   UNL     1       4.788   5.559  16.235  0.00  0.00    +0.000 A 
ATOM      3  N   UNL     1       5.521   6.623  16.201  0.00  0.00    +0.000 NA
ATOM      4  C   UNL     1       6.505   6.764  17.193  0.00  0.00    +0.000 A 
ATOM      5  C   UNL     1       7.305   7.902  17.200  0.00  0.00    +0.000 A 
ATOM      6  C   UNL     1       8.268   8.027  18.191  0.00  0.00    +0.000 A 
ATOM      7  N   UNL     1       8.479   7.104  19.156  0.00  0.00    +0.000 NA
ATOM      8  C   UNL     1       7.690   6.002  19.126  0.00  0.00    +0.000 A 
ATOM      9  C   UNL     1       6.707   5.802  18.175  0.00  0.00    +0.000 A 
ATOM     10  C   UNL     1       5.862   4.603  18.167  0.00  0.00    +0.000 A 
ATOM     11  O   UNL     1       6.038   3.721  19.003  0.00  0.00    +0.000 OA
ENDROOT
BRANCH   1  12
ATOM     12  C   UNL     1       4.017   3.402  17.095  0.00  0.00    +0.000 C 
BRANCH  12  18
ATOM     13  C   UNL     1       1.793   5.892  20.646  0.00  0.00    +0.000 C 
ATOM     14  C   UNL     1       1.812   4.671  19.776  0.00  0.00    +0.000 A 
ATOM     15  C   UNL     1       0.837   3.689  19.906  0.00  0.00    +0.000 A 
ATOM     16  C   UNL     1       0.908   2.565  19.091  0.00  0.00    +0.000 A 
ATOM     17  C   UNL     1       1.945   2.450  18.173  0.00  0.00    +0.000 A 
ATOM     18  C   UNL     1       2.890   3.470  18.100  0.00  0.00    +0.000 A 
ATOM     19  N   UNL     1       2.830   4.578  18.885  0.00  0.00    +0.000 NA
ENDBRANCH  12  18
ENDBRANCH   1  12
TORSDOF 2
ENDMDL
MODEL 6
REMARK VINA RESULT:      -6.7      2.579      3.599
REMARK  Name = 
REMARK  3 active torsions:
REMARK  status: ('A' for Active; 'I' for Inactive)
REMARK    1  A    between atoms: C_1  and  C_2
REMARK    2  A    between atoms: C_6  and  C_7
REMARK    3  A    between atoms: C_7  and  N_8
REMARK                            x       y       z     vdW  Elec       q    Type
REMARK                         _______ _______ _______ _____ _____    ______ ____
ROOT
ATOM      1  N   UNL     1       5.158   5.219  18.170  0.00  0.00    +0.000 N 
ATOM      2  C   UNL     1       5.622   4.045  18.718  0.00  0.00    +0.000 A 
ATOM      3  N   UNL     1       4.951   3.293  19.527  0.00  0.00    +0.000 NA
ATOM      4  C   UNL     1       3.649   3.698  19.860  0.00  0.00    +0.000 A 
ATOM      5  C   UNL     1       2.898   2.924  20.738  0.00  0.00    +0.000 A 
ATOM      6  C   UNL     1       1.616   3.343  21.060  0.00  0.00    +0.000 A 
ATOM      7  N   UNL     1       1.046   4.466  20.568  0.00  0.00    +0.000 NA
ATOM      8  C   UNL     1       1.794   5.202  19.711  0.00  0.00    +0.000 A 
ATOM      9  C   UNL     1       3.080   4.855  19.341  0.00  0.00    +0.000 A 
ATOM     10  C   UNL     1       3.872   5.672  18.415  0.00  0.00    +0.000 A 
ATOM     11  O   UNL     1       3.385   6.682  17.915  0.00  0.00    +0.000 OA
ENDROOT
BRANCH   1  12
ATOM     12  C   UNL     1       6.008   5.968  17.256  0.00  0.00    +0.000 C 
BRANCH  12  18
ATOM     13  C   UNL     1       8.411   5.530  13.038  0.00  0.00    +0.000 C 
ATOM     14  C   UNL     1       7.274   5.073  13.900  0.00  0.00    +0.000 A 
ATOM     15  C   UNL     1       6.395   4.091  13.458  0.00  0.00    +0.000 A 
ATOM     16  C   UNL     1       5.343   3.713  14.285  0.00  0.00    +0.000 A 
ATOM     17  C   UNL     1       5.196   4.322  15.525  0.00  0.00    +0.000 A 
ATOM     18  C   UNL     1       6.111   5.302  15.903  0.00  0.00    +0.000 A 
ATOM     19  N   UNL     1       7.147   5.677  15.108  0.00  0.00    +0.000 NA
ENDBRANCH  12  18
ENDBRANCH   1  12
TORSDOF 2
ENDMDL
MODEL 7
REMARK VINA RESULT:      -6.7      2.774      5.584
REMARK  Name = 
REMARK  3 active torsions:
REMARK  status: ('A' for Active; 'I' for Inactive)
REMARK    1  A    between atoms: C_1  and  C_2
REMARK    2  A    between atoms: C_6  and  C_7
REMARK    3  A    between atoms: C_7  and  N_8
REMARK                            x       y       z     vdW  Elec       q    Type
REMARK                         _______ _______ _______ _____ _____    ______ ____
ROOT
ATOM      1  N   UNL     1       3.644   5.026  18.740  0.00  0.00    +0.000 N 
ATOM      2  C   UNL     1       3.005   4.426  17.680  0.00  0.00    +0.000 A 
ATOM      3  N   UNL     1       3.588   4.035  16.594  0.00  0.00    +0.000 NA
ATOM      4  C   UNL     1       4.975   4.225  16.497  0.00  0.00    +0.000 A 
ATOM      5  C   UNL     1       5.637   3.831  15.339  0.00  0.00    +0.000 A 
ATOM      6  C   UNL     1       7.007   4.033  15.259  0.00  0.00    +0.000 A 
ATOM      7  N   UNL     1       7.744   4.592  16.244  0.00  0.00    +0.000 NA
ATOM      8  C   UNL     1       7.078   4.965  17.364  0.00  0.00    +0.000 A 
ATOM      9  C   UNL     1       5.715   4.801  17.523  0.00  0.00    +0.000 A 
ATOM     10  C   UNL     1       5.016   5.218  18.743  0.00  0.00    +0.000 A 
ATOM     11  O   UNL     1       5.648   5.699  19.680  0.00  0.00    +0.000 OA
ENDROOT
BRANCH   1  12
ATOM     12  C   UNL     1       2.876   5.406  19.917  0.00  0.00    +0.000 C 
BRANCH  12  18
ATOM     13  C   UNL     1       0.328   9.026  21.958  0.00  0.00    +0.000 C 
ATOM     14  C   UNL     1       1.070   8.520  20.758  0.00  0.00    +0.000 A 
ATOM     15  C   UNL     1       1.176   9.294  19.608  0.00  0.00    +0.000 A 
ATOM     16  C   UNL     1       1.856   8.774  18.513  0.00  0.00    +0.000 A 
ATOM     17  C   UNL     1       2.410   7.502  18.592  0.00  0.00    +0.000 A 
ATOM     18  C   UNL     1       2.262   6.781  19.775  0.00  0.00    +0.000 A 
ATOM     19  N   UNL     1       1.606   7.278  20.855  0.00  0.00    +0.000 NA
ENDBRANCH  12  18
ENDBRANCH   1  12
TORSDOF 2
ENDMDL
MODEL 8
REMARK VINA RESULT:      -6.7      4.071      6.869
REMARK  Name = 
REMARK  3 active torsions:
REMARK  status: ('A' for Active; 'I' for Inactive)
REMARK    1  A    between atoms: C_1  and  C_2
REMARK    2  A    between atoms: C_6  and  C_7
REMARK    3  A    between atoms: C_7  and  N_8
REMARK                            x       y       z     vdW  Elec       q    Type
REMARK                         _______ _______ _______ _____ _____    ______ ____
ROOT
ATOM      1  N   UNL     1       2.166   7.859  19.230  0.00  0.00    +0.000 N 
ATOM      2  C   UNL     1       2.014   8.447  17.996  0.00  0.00    +0.000 A 
ATOM      3  N   UNL     1       1.230   9.444  17.746  0.00  0.00    +0.000 NA
ATOM      4  C   UNL     1       0.491   9.973  18.816  0.00  0.00    +0.000 A 
ATOM      5  C   UNL     1      -0.374  11.037  18.586  0.00  0.00    +0.000 A 
ATOM      6  C   UNL     1      -1.101  11.542  19.654  0.00  0.00    +0.000 A 
ATOM      7  N   UNL     1      -1.018  11.061  20.914  0.00  0.00    +0.000 NA
ATOM      8  C   UNL     1      -0.166  10.027  21.116  0.00  0.00    +0.000 A 
ATOM      9  C   UNL     1       0.593   9.465  20.106  0.00  0.00    +0.000 A 
ATOM     10  C   UNL     1       1.504   8.342  20.347  0.00  0.00    +0.000 A 
ATOM     11  O   UNL     1       1.640   7.894  21.482  0.00  0.00    +0.000 OA
ENDROOT
BRANCH   1  12
ATOM     12  C   UNL     1       3.097   6.750  19.386  0.00  0.00    +0.000 C 
BRANCH  12  18
ATOM     13  C   UNL     1       1.333   2.759  21.558  0.00  0.00    +0.000 C 
ATOM     14  C   UNL     1       1.544   3.518  20.283  0.00  0.00    +0.000 A 
ATOM     15  C   UNL     1       1.116   2.999  19.067  0.00  0.00    +0.000 A 
ATOM     16  C   UNL     1       1.352   3.730  17.907  0.00  0.00    +0.000 A 
ATOM     17  C   UNL     1       2.006   4.953  17.991  0.00  0.00    +0.000 A 
ATOM     18  C   UNL     1       2.411   5.410  19.243  0.00  0.00    +0.000 A 
ATOM     19  N   UNL     1       2.181   4.711  20.385  0.00  0.00    +0.000 NA
ENDBRANCH  12  18
ENDBRANCH   1  12
TORSDOF 2
ENDMDL
MODEL 9
REMARK VINA RESULT:      -6.7      3.917      6.790
REMARK  Name = 
REMARK  3 active torsions:
REMARK  status: ('A' for Active; 'I' for Inactive)
REMARK    1  A    between atoms: C_1  and  C_2
REMARK    2  A    between atoms: C_6  and  C_7
REMARK    3  A    between atoms: C_7  and  N_8
REMARK                            x       y       z     vdW  Elec       q    Type
REMARK                         _______ _______ _______ _____ _____    ______ ____
ROOT
ATOM      1  N   UNL     1       2.163   7.675  19.584  0.00  0.00    +0.000 N 
ATOM      2  C   UNL     1       1.603   7.665  20.840  0.00  0.00    +0.000 A 
ATOM      3  N   UNL     1       0.768   8.547  21.282  0.00  0.00    +0.000 NA
ATOM      4  C   UNL     1       0.395   9.582  20.410  0.00  0.00    +0.000 A 
ATOM      5  C   UNL     1      -0.491  10.559  20.852  0.00  0.00    +0.000 A 
ATOM      6  C   UNL     1      -0.842  11.578  19.979  0.00  0.00    +0.000 A 
ATOM      7  N   UNL     1      -0.374  11.679  18.714  0.00  0.00    +0.000 NA
ATOM      8  C   UNL     1       0.484  10.714  18.304  0.00  0.00    +0.000 A 
ATOM      9  C   UNL     1       0.886   9.667  19.112  0.00  0.00    +0.000 A 
ATOM     10  C   UNL     1       1.821   8.637  18.648  0.00  0.00    +0.000 A 
ATOM     11  O   UNL     1       2.246   8.668  17.496  0.00  0.00    +0.000 OA
ENDROOT
BRANCH   1  12
ATOM     12  C   UNL     1       3.080   6.611  19.199  0.00  0.00    +0.000 C 
BRANCH  12  18
ATOM     13  C   UNL     1       1.573   2.656  21.617  0.00  0.00    +0.000 C 
ATOM     14  C   UNL     1       1.653   3.387  20.311  0.00  0.00    +0.000 A 
ATOM     15  C   UNL     1       1.115   2.838  19.153  0.00  0.00    +0.000 A 
ATOM     16  C   UNL     1       1.231   3.544  17.961  0.00  0.00    +0.000 A 
ATOM     17  C   UNL     1       1.878   4.774  17.956  0.00  0.00    +0.000 A 
ATOM     18  C   UNL     1       2.397   5.263  19.152  0.00  0.00    +0.000 A 
ATOM     19  N   UNL     1       2.285   4.587  20.326  0.00  0.00    +0.000 NA
ENDBRANCH  12  18
ENDBRANCH   1  12
TORSDOF 2
ENDMDL
