MODEL 1
REMARK VINA RESULT:      -7.9      0.000      0.000
REMARK  Name = 
REMARK  8 active torsions:
REMARK  status: ('A' for Active; 'I' for Inactive)
REMARK    1  A    between atoms: C_1  and  C_2
REMARK    2  A    between atoms: C_2  and  C_3
REMARK    3  A    between atoms: C_2  and  C_4
REMARK    4  A    between atoms: C_11  and  C_12
REMARK    5  A    between atoms: C_12  and  C_13
REMARK    6  A    between atoms: C_16  and  O_17
REMARK    7  A    between atoms: C_22  and  C_23
REMARK    8  A    between atoms: C_23  and  C_24
REMARK                            x       y       z     vdW  Elec       q    Type
REMARK                         _______ _______ _______ _____ _____    ______ ____
ROOT
ATOM      1  C   UNL     1      -1.723  12.739  21.277  0.00  0.00    +0.000 C 
ATOM      2  C   UNL     1      -1.192  12.818  22.715  0.00  0.00    +0.000 C 
ATOM      3  N   UNL     1      -0.271  11.659  22.902  0.00  0.00    +0.000 NA
ATOM      4  C   UNL     1      -0.075  11.172  21.695  0.00  0.00    +0.000 C 
ATOM      5  C   UNL     1       0.783   9.969  21.529  0.00  0.00    +0.000 C 
ATOM      6  C   UNL     1       1.165   9.394  20.376  0.00  0.00    +0.000 C 
ATOM      7  N   UNL     1       1.887   8.201  20.349  0.00  0.00    +0.000 N 
ATOM      8  C   UNL     1       2.205   7.791  18.961  0.00  0.00    +0.000 C 
ATOM      9  C   UNL     1       1.776   9.047  18.136  0.00  0.00    +0.000 C 
ATOM     10  N   UNL     1       0.966   9.830  19.081  0.00  0.00    +0.000 N 
ATOM     11  C   UNL     1      -0.113  10.692  18.564  0.00  0.00    +0.000 C 
ATOM     12  C   UNL     1      -0.224  12.006  19.374  0.00  0.00    +0.000 C 
ATOM     13  N   UNL     1      -0.778  11.798  20.696  0.00  0.00    +0.000 N 
ATOM     14  H   UNL     1       1.452   7.494  20.936  0.00  0.00    +0.000 HD
ENDROOT
BRANCH   1  16
ATOM     15  C   UNL     1      -3.859  12.622  19.833  0.00  0.00    +0.000 C 
ATOM     16  C   UNL     1      -3.168  12.198  21.129  0.00  0.00    +0.000 C 
ATOM     17  C   UNL     1      -4.103  12.517  22.299  0.00  0.00    +0.000 C 
ENDBRANCH   1  16
BRANCH   8  18
ATOM     18  C   UNL     1       1.446   6.547  18.447  0.00  0.00    +0.000 C 
BRANCH  18  19
ATOM     19  C   UNL     1       2.181   5.246  18.177  0.00  0.00    +0.000 A 
ATOM     20  C   UNL     1       3.517   5.178  17.762  0.00  0.00    +0.000 A 
ATOM     21  C   UNL     1       4.156   3.941  17.603  0.00  0.00    +0.000 A 
ATOM     22  C   UNL     1       3.455   2.764  17.849  0.00  0.00    +0.000 A 
ATOM     23  C   UNL     1       2.123   2.800  18.224  0.00  0.00    +0.000 A 
ATOM     24  C   UNL     1       1.491   4.034  18.396  0.00  0.00    +0.000 A 
BRANCH  22  25
ATOM     25  O   UNL     1       4.056   1.545  17.735  0.00  0.00    +0.000 OA
ATOM     26  H   UNL     1       3.374   0.853  17.788  0.00  0.00    +0.000 HD
ENDBRANCH  22  25
ENDBRANCH  18  19
ENDBRANCH   8  18
BRANCH  11  27
ATOM     27  C   UNL     1      -1.438   9.884  18.458  0.00  0.00    +0.000 C 
BRANCH  27  28
ATOM     28  C   UNL     1      -2.333  10.123  17.255  0.00  0.00    +0.000 A 
ATOM     29  C   UNL     1      -2.040   9.618  15.985  0.00  0.00    +0.000 A 
ATOM     30  C   UNL     1      -2.852   9.923  14.887  0.00  0.00    +0.000 A 
ATOM     31  C   UNL     1      -3.982  10.720  15.047  0.00  0.00    +0.000 A 
ATOM     32  C   UNL     1      -4.317  11.192  16.313  0.00  0.00    +0.000 A 
ATOM     33  C   UNL     1      -3.515  10.870  17.412  0.00  0.00    +0.000 A 
ENDBRANCH  27  28
ENDBRANCH  11  27
TORSDOF 6
ENDMDL
MODEL 2
REMARK VINA RESULT:      -7.9      1.065      1.357
REMARK  Name = 
REMARK  8 active torsions:
REMARK  status: ('A' for Active; 'I' for Inactive)
REMARK    1  A    between atoms: C_1  and  C_2
REMARK    2  A    between atoms: C_2  and  C_3
REMARK    3  A    between atoms: C_2  and  C_4
REMARK    4  A    between atoms: C_11  and  C_12
REMARK    5  A    between atoms: C_12  and  C_13
REMARK    6  A    between atoms: C_16  and  O_17
REMARK    7  A    between atoms: C_22  and  C_23
REMARK    8  A    between atoms: C_23  and  C_24
REMARK                            x       y       z     vdW  Elec       q    Type
REMARK                         _______ _______ _______ _____ _____    ______ ____
ROOT
ATOM      1  C   UNL     1      -1.627  13.248  21.138  0.00  0.00    +0.000 C 
ATOM      2  C   UNL     1      -1.247  13.603  22.582  0.00  0.00    +0.000 C 
ATOM      3  N   UNL     1      -0.525  12.424  23.144  0.00  0.00    +0.000 NA
ATOM      4  C   UNL     1      -0.272  11.647  22.112  0.00  0.00    +0.000 C 
ATOM      5  C   UNL     1       0.419  10.349  22.333  0.00  0.00    +0.000 C 
ATOM      6  C   UNL     1       0.837   9.479  21.398  0.00  0.00    +0.000 C 
ATOM      7  N   UNL     1       1.381   8.240  21.733  0.00  0.00    +0.000 N 
ATOM      8  C   UNL     1       1.784   7.480  20.526  0.00  0.00    +0.000 C 
ATOM      9  C   UNL     1       1.628   8.547  19.394  0.00  0.00    +0.000 C 
ATOM     10  N   UNL     1       0.842   9.617  20.024  0.00  0.00    +0.000 N 
ATOM     11  C   UNL     1      -0.043  10.450  19.188  0.00  0.00    +0.000 C 
ATOM     12  C   UNL     1      -0.052  11.922  19.666  0.00  0.00    +0.000 C 
ATOM     13  N   UNL     1      -0.769  12.095  20.913  0.00  0.00    +0.000 N 
ATOM     14  H   UNL     1       0.790   7.744  22.396  0.00  0.00    +0.000 HD
ENDROOT
BRANCH   1  16
ATOM     15  C   UNL     1      -3.907  13.874  20.102  0.00  0.00    +0.000 C 
ATOM     16  C   UNL     1      -3.110  12.855  20.917  0.00  0.00    +0.000 C 
ATOM     17  C   UNL     1      -3.896  12.539  22.193  0.00  0.00    +0.000 C 
ENDBRANCH   1  16
BRANCH   8  18
ATOM     18  C   UNL     1       0.916   6.245  20.199  0.00  0.00    +0.000 C 
BRANCH  18  19
ATOM     19  C   UNL     1       1.560   4.921  19.828  0.00  0.00    +0.000 A 
ATOM     20  C   UNL     1       1.524   3.782  20.642  0.00  0.00    +0.000 A 
ATOM     21  C   UNL     1       2.074   2.570  20.204  0.00  0.00    +0.000 A 
ATOM     22  C   UNL     1       2.676   2.496  18.950  0.00  0.00    +0.000 A 
ATOM     23  C   UNL     1       2.759   3.615  18.140  0.00  0.00    +0.000 A 
ATOM     24  C   UNL     1       2.196   4.819  18.572  0.00  0.00    +0.000 A 
BRANCH  22  25
ATOM     25  O   UNL     1       3.192   1.325  18.481  0.00  0.00    +0.000 OA
ATOM     26  H   UNL     1       3.284   1.388  17.514  0.00  0.00    +0.000 HD
ENDBRANCH  22  25
ENDBRANCH  18  19
ENDBRANCH   8  18
BRANCH  11  27
ATOM     27  C   UNL     1      -1.450   9.795  19.082  0.00  0.00    +0.000 C 
BRANCH  27  28
ATOM     28  C   UNL     1      -2.315  10.136  17.881  0.00  0.00    +0.000 A 
ATOM     29  C   UNL     1      -1.960   9.791  16.574  0.00  0.00    +0.000 A 
ATOM     30  C   UNL     1      -2.749  10.189  15.489  0.00  0.00    +0.000 A 
ATOM     31  C   UNL     1      -3.914  10.920  15.696  0.00  0.00    +0.000 A 
ATOM     32  C   UNL     1      -4.309  11.232  16.993  0.00  0.00    +0.000 A 
ATOM     33  C   UNL     1      -3.531  10.816  18.078  0.00  0.00    +0.000 A 
ENDBRANCH  27  28
ENDBRANCH  11  27
TORSDOF 6
ENDMDL
MODEL 3
REMARK VINA RESULT:      -7.9      1.480      2.051
REMARK  Name = 
REMARK  8 active torsions:
REMARK  status: ('A' for Active; 'I' for Inactive)
REMARK    1  A    between atoms: C_1  and  C_2
REMARK    2  A    between atoms: C_2  and  C_3
REMARK    3  A    between atoms: C_2  and  C_4
REMARK    4  A    between atoms: C_11  and  C_12
REMARK    5  A    between atoms: C_12  and  C_13
REMARK    6  A    between atoms: C_16  and  O_17
REMARK    7  A    between atoms: C_22  and  C_23
REMARK    8  A    between atoms: C_23  and  C_24
REMARK                            x       y       z     vdW  Elec       q    Type
REMARK                         _______ _______ _______ _____ _____    ______ ____
ROOT
ATOM      1  C   UNL     1      -2.832  13.461  21.338  0.00  0.00    +0.000 C 
ATOM      2  C   UNL     1      -2.704  13.802  22.829  0.00  0.00    +0.000 C 
ATOM      3  N   UNL     1      -1.880  12.725  23.451  0.00  0.00    +0.000 NA
ATOM      4  C   UNL     1      -1.374  12.048  22.442  0.00  0.00    +0.000 C 
ATOM      5  C   UNL     1      -0.517  10.865  22.721  0.00  0.00    +0.000 C 
ATOM      6  C   UNL     1       0.153  10.117  21.828  0.00  0.00    +0.000 C 
ATOM      7  N   UNL     1       0.842   8.963  22.201  0.00  0.00    +0.000 N 
ATOM      8  C   UNL     1       1.515   8.334  21.040  0.00  0.00    +0.000 C 
ATOM      9  C   UNL     1       1.336   9.415  19.926  0.00  0.00    +0.000 C 
ATOM     10  N   UNL     1       0.313  10.318  20.471  0.00  0.00    +0.000 N 
ATOM     11  C   UNL     1      -0.580  11.041  19.546  0.00  0.00    +0.000 C 
ATOM     12  C   UNL     1      -0.888  12.469  20.057  0.00  0.00    +0.000 C 
ATOM     13  N   UNL     1      -1.778  12.469  21.200  0.00  0.00    +0.000 N 
ATOM     14  H   UNL     1       0.258   8.350  22.764  0.00  0.00    +0.000 HD
ENDROOT
BRANCH   1  16
ATOM     15  C   UNL     1      -4.925  13.664  19.840  0.00  0.00    +0.000 C 
ATOM     16  C   UNL     1      -4.192  12.852  20.908  0.00  0.00    +0.000 C 
ATOM     17  C   UNL     1      -5.168  12.571  22.054  0.00  0.00    +0.000 C 
ENDBRANCH   1  16
BRANCH   8  18
ATOM     18  C   UNL     1       0.907   6.995  20.566  0.00  0.00    +0.000 C 
BRANCH  18  19
ATOM     19  C   UNL     1       1.790   5.781  20.333  0.00  0.00    +0.000 A 
ATOM     20  C   UNL     1       1.405   4.470  20.636  0.00  0.00    +0.000 A 
ATOM     21  C   UNL     1       2.241   3.388  20.326  0.00  0.00    +0.000 A 
ATOM     22  C   UNL     1       3.473   3.617  19.720  0.00  0.00    +0.000 A 
ATOM     23  C   UNL     1       3.895   4.906  19.444  0.00  0.00    +0.000 A 
ATOM     24  C   UNL     1       3.055   5.983  19.740  0.00  0.00    +0.000 A 
BRANCH  22  25
ATOM     25  O   UNL     1       4.295   2.586  19.376  0.00  0.00    +0.000 OA
ATOM     26  H   UNL     1       4.902   2.407  20.116  0.00  0.00    +0.000 HD
ENDBRANCH  22  25
ENDBRANCH  18  19
ENDBRANCH   8  18
BRANCH  11  27
ATOM     27  C   UNL     1      -1.836  10.181  19.234  0.00  0.00    +0.000 C 
BRANCH  27  28
ATOM     28  C   UNL     1      -2.528  10.373  17.895  0.00  0.00    +0.000 A 
ATOM     29  C   UNL     1      -3.731  11.072  17.762  0.00  0.00    +0.000 A 
ATOM     30  C   UNL     1      -4.374  11.161  16.522  0.00  0.00    +0.000 A 
ATOM     31  C   UNL     1      -3.813  10.572  15.394  0.00  0.00    +0.000 A 
ATOM     32  C   UNL     1      -2.591   9.913  15.497  0.00  0.00    +0.000 A 
ATOM     33  C   UNL     1      -1.940   9.841  16.733  0.00  0.00    +0.000 A 
ENDBRANCH  27  28
ENDBRANCH  11  27
TORSDOF 6
ENDMDL
MODEL 4
REMARK VINA RESULT:      -7.9      1.213      1.291
REMARK  Name = 
REMARK  8 active torsions:
REMARK  status: ('A' for Active; 'I' for Inactive)
REMARK    1  A    between atoms: C_1  and  C_2
REMARK    2  A    between atoms: C_2  and  C_3
REMARK    3  A    between atoms: C_2  and  C_4
REMARK    4  A    between atoms: C_11  and  C_12
REMARK    5  A    between atoms: C_12  and  C_13
REMARK    6  A    between atoms: C_16  and  O_17
REMARK    7  A    between atoms: C_22  and  C_23
REMARK    8  A    between atoms: C_23  and  C_24
REMARK                            x       y       z     vdW  Elec       q    Type
REMARK                         _______ _______ _______ _____ _____    ______ ____
ROOT
ATOM      1  C   UNL     1      -2.210  13.327  21.320  0.00  0.00    +0.000 C 
ATOM      2  C   UNL     1      -1.917  13.675  22.786  0.00  0.00    +0.000 C 
ATOM      3  N   UNL     1      -1.095  12.560  23.341  0.00  0.00    +0.000 NA
ATOM      4  C   UNL     1      -0.728  11.846  22.298  0.00  0.00    +0.000 C 
ATOM      5  C   UNL     1       0.087  10.620  22.510  0.00  0.00    +0.000 C 
ATOM      6  C   UNL     1       0.624   9.828  21.567  0.00  0.00    +0.000 C 
ATOM      7  N   UNL     1       1.284   8.641  21.889  0.00  0.00    +0.000 N 
ATOM      8  C   UNL     1       1.804   7.965  20.677  0.00  0.00    +0.000 C 
ATOM      9  C   UNL     1       1.575   9.044  19.570  0.00  0.00    +0.000 C 
ATOM     10  N   UNL     1       0.660  10.007  20.198  0.00  0.00    +0.000 N 
ATOM     11  C   UNL     1      -0.278  10.769  19.353  0.00  0.00    +0.000 C 
ATOM     12  C   UNL     1      -0.457  12.217  19.870  0.00  0.00    +0.000 C 
ATOM     13  N   UNL     1      -1.229  12.277  21.095  0.00  0.00    +0.000 N 
ATOM     14  H   UNL     1       0.726   8.067  22.515  0.00  0.00    +0.000 HD
ENDROOT
BRANCH   1  16
ATOM     15  C   UNL     1      -4.420  13.621  20.018  0.00  0.00    +0.000 C 
ATOM     16  C   UNL     1      -3.636  12.790  21.034  0.00  0.00    +0.000 C 
ATOM     17  C   UNL     1      -4.514  12.589  22.272  0.00  0.00    +0.000 C 
ENDBRANCH   1  16
BRANCH   8  18
ATOM     18  C   UNL     1       1.081   6.657  20.285  0.00  0.00    +0.000 C 
BRANCH  18  19
ATOM     19  C   UNL     1       1.871   5.422  19.890  0.00  0.00    +0.000 A 
ATOM     20  C   UNL     1       2.489   5.258  18.644  0.00  0.00    +0.000 A 
ATOM     21  C   UNL     1       3.266   4.124  18.373  0.00  0.00    +0.000 A 
ATOM     22  C   UNL     1       3.419   3.141  19.347  0.00  0.00    +0.000 A 
ATOM     23  C   UNL     1       2.790   3.259  20.574  0.00  0.00    +0.000 A 
ATOM     24  C   UNL     1       2.027   4.397  20.849  0.00  0.00    +0.000 A 
BRANCH  22  25
ATOM     25  O   UNL     1       4.195   2.042  19.127  0.00  0.00    +0.000 OA
ATOM     26  H   UNL     1       4.926   2.288  18.534  0.00  0.00    +0.000 HD
ENDBRANCH  22  25
ENDBRANCH  18  19
ENDBRANCH   8  18
BRANCH  11  27
ATOM     27  C   UNL     1      -1.604   9.976  19.179  0.00  0.00    +0.000 C 
BRANCH  27  28
ATOM     28  C   UNL     1      -2.408  10.187  17.908  0.00  0.00    +0.000 A 
ATOM     29  C   UNL     1      -1.952   9.779  16.651  0.00  0.00    +0.000 A 
ATOM     30  C   UNL     1      -2.691  10.059  15.495  0.00  0.00    +0.000 A 
ATOM     31  C   UNL     1      -3.905  10.733  15.581  0.00  0.00    +0.000 A 
ATOM     32  C   UNL     1      -4.399  11.104  16.829  0.00  0.00    +0.000 A 
ATOM     33  C   UNL     1      -3.669  10.806  17.984  0.00  0.00    +0.000 A 
ENDBRANCH  27  28
ENDBRANCH  11  27
TORSDOF 6
ENDMDL
MODEL 5
REMARK VINA RESULT:      -7.6      1.180      1.557
REMARK  Name = 
REMARK  8 active torsions:
REMARK  status: ('A' for Active; 'I' for Inactive)
REMARK    1  A    between atoms: C_1  and  C_2
REMARK    2  A    between atoms: C_2  and  C_3
REMARK    3  A    between atoms: C_2  and  C_4
REMARK    4  A    between atoms: C_11  and  C_12
REMARK    5  A    between atoms: C_12  and  C_13
REMARK    6  A    between atoms: C_16  and  O_17
REMARK    7  A    between atoms: C_22  and  C_23
REMARK    8  A    between atoms: C_23  and  C_24
REMARK                            x       y       z     vdW  Elec       q    Type
REMARK                         _______ _______ _______ _____ _____    ______ ____
ROOT
ATOM      1  C   UNL     1      -1.202  13.594  20.720  0.00  0.00    +0.000 C 
ATOM      2  C   UNL     1      -0.738  14.067  22.105  0.00  0.00    +0.000 C 
ATOM      3  N   UNL     1      -0.065  12.906  22.757  0.00  0.00    +0.000 NA
ATOM      4  C   UNL     1       0.095  12.015  21.802  0.00  0.00    +0.000 C 
ATOM      5  C   UNL     1       0.715  10.704  22.130  0.00  0.00    +0.000 C 
ATOM      6  C   UNL     1       1.037   9.719  21.275  0.00  0.00    +0.000 C 
ATOM      7  N   UNL     1       1.519   8.487  21.715  0.00  0.00    +0.000 N 
ATOM      8  C   UNL     1       1.822   7.585  20.579  0.00  0.00    +0.000 C 
ATOM      9  C   UNL     1       1.681   8.540  19.350  0.00  0.00    +0.000 C 
ATOM     10  N   UNL     1       0.989   9.717  19.894  0.00  0.00    +0.000 N 
ATOM     11  C   UNL     1       0.121  10.517  19.011  0.00  0.00    +0.000 C 
ATOM     12  C   UNL     1       0.222  12.027  19.334  0.00  0.00    +0.000 C 
ATOM     13  N   UNL     1      -0.426  12.371  20.583  0.00  0.00    +0.000 N 
ATOM     14  H   UNL     1       0.929   8.100  22.447  0.00  0.00    +0.000 HD
ENDROOT
BRANCH   1  16
ATOM     15  C   UNL     1      -3.613  14.513  20.652  0.00  0.00    +0.000 C 
ATOM     16  C   UNL     1      -2.715  13.278  20.596  0.00  0.00    +0.000 C 
ATOM     17  C   UNL     1      -3.247  12.250  21.600  0.00  0.00    +0.000 C 
ENDBRANCH   1  16
BRANCH   8  18
ATOM     18  C   UNL     1       0.867   6.382  20.414  0.00  0.00    +0.000 C 
BRANCH  18  19
ATOM     19  C   UNL     1       1.359   5.077  19.813  0.00  0.00    +0.000 A 
ATOM     20  C   UNL     1       2.115   4.998  18.637  0.00  0.00    +0.000 A 
ATOM     21  C   UNL     1       2.600   3.766  18.177  0.00  0.00    +0.000 A 
ATOM     22  C   UNL     1       2.319   2.603  18.891  0.00  0.00    +0.000 A 
ATOM     23  C   UNL     1       1.543   2.647  20.036  0.00  0.00    +0.000 A 
ATOM     24  C   UNL     1       1.073   3.878  20.500  0.00  0.00    +0.000 A 
BRANCH  22  25
ATOM     25  O   UNL     1       2.804   1.393  18.490  0.00  0.00    +0.000 OA
ATOM     26  H   UNL     1       2.810   0.790  19.253  0.00  0.00    +0.000 HD
ENDBRANCH  22  25
ENDBRANCH  18  19
ENDBRANCH   8  18
BRANCH  11  27
ATOM     27  C   UNL     1      -1.326   9.948  19.026  0.00  0.00    +0.000 C 
BRANCH  27  28
ATOM     28  C   UNL     1      -2.247  10.289  17.868  0.00  0.00    +0.000 A 
ATOM     29  C   UNL     1      -3.383  11.090  18.020  0.00  0.00    +0.000 A 
ATOM     30  C   UNL     1      -4.247  11.319  16.943  0.00  0.00    +0.000 A 
ATOM     31  C   UNL     1      -3.977  10.768  15.694  0.00  0.00    +0.000 A 
ATOM     32  C   UNL     1      -2.826  10.009  15.512  0.00  0.00    +0.000 A 
ATOM     33  C   UNL     1      -1.953   9.797  16.584  0.00  0.00    +0.000 A 
ENDBRANCH  27  28
ENDBRANCH  11  27
TORSDOF 6
ENDMDL
MODEL 6
REMARK VINA RESULT:      -7.6      2.185      3.646
REMARK  Name = 
REMARK  8 active torsions:
REMARK  status: ('A' for Active; 'I' for Inactive)
REMARK    1  A    between atoms: C_1  and  C_2
REMARK    2  A    between atoms: C_2  and  C_3
REMARK    3  A    between atoms: C_2  and  C_4
REMARK    4  A    between atoms: C_11  and  C_12
REMARK    5  A    between atoms: C_12  and  C_13
REMARK    6  A    between atoms: C_16  and  O_17
REMARK    7  A    between atoms: C_22  and  C_23
REMARK    8  A    between atoms: C_23  and  C_24
REMARK                            x       y       z     vdW  Elec       q    Type
REMARK                         _______ _______ _______ _____ _____    ______ ____
ROOT
ATOM      1  C   UNL     1      -4.513  14.940  22.079  0.00  0.00    +0.000 C 
ATOM      2  C   UNL     1      -4.418  15.167  23.594  0.00  0.00    +0.000 C 
ATOM      3  N   UNL     1      -3.410  14.198  24.116  0.00  0.00    +0.000 NA
ATOM      4  C   UNL     1      -2.813  13.709  23.049  0.00  0.00    +0.000 C 
ATOM      5  C   UNL     1      -1.761  12.672  23.219  0.00  0.00    +0.000 C 
ATOM      6  C   UNL     1      -0.990  12.131  22.262  0.00  0.00    +0.000 C 
ATOM      7  N   UNL     1      -0.106  11.085  22.529  0.00  0.00    +0.000 N 
ATOM      8  C   UNL     1       0.644  10.685  21.315  0.00  0.00    +0.000 C 
ATOM      9  C   UNL     1       0.262  11.813  20.301  0.00  0.00    +0.000 C 
ATOM     10  N   UNL     1      -0.891  12.474  20.928  0.00  0.00    +0.000 N 
ATOM     11  C   UNL     1      -1.911  13.111  20.072  0.00  0.00    +0.000 C 
ATOM     12  C   UNL     1      -2.450  14.414  20.709  0.00  0.00    +0.000 C 
ATOM     13  N   UNL     1      -3.306  14.160  21.850  0.00  0.00    +0.000 N 
ATOM     14  H   UNL     1      -0.566  10.334  23.037  0.00  0.00    +0.000 HD
ENDROOT
BRANCH   1  16
ATOM     15  C   UNL     1      -5.658  12.639  21.841  0.00  0.00    +0.000 C 
ATOM     16  C   UNL     1      -5.755  14.145  21.600  0.00  0.00    +0.000 C 
ATOM     17  C   UNL     1      -6.146  14.374  20.137  0.00  0.00    +0.000 C 
ENDBRANCH   1  16
BRANCH   8  18
ATOM     18  C   UNL     1       0.267   9.308  20.725  0.00  0.00    +0.000 C 
BRANCH  18  19
ATOM     19  C   UNL     1       1.205   8.587  19.774  0.00  0.00    +0.000 A 
ATOM     20  C   UNL     1       1.532   9.059  18.497  0.00  0.00    +0.000 A 
ATOM     21  C   UNL     1       2.465   8.381  17.699  0.00  0.00    +0.000 A 
ATOM     22  C   UNL     1       3.066   7.219  18.175  0.00  0.00    +0.000 A 
ATOM     23  C   UNL     1       2.734   6.710  19.418  0.00  0.00    +0.000 A 
ATOM     24  C   UNL     1       1.815   7.394  20.218  0.00  0.00    +0.000 A 
BRANCH  22  25
ATOM     25  O   UNL     1       4.001   6.554  17.438  0.00  0.00    +0.000 OA
ATOM     26  H   UNL     1       4.062   6.970  16.560  0.00  0.00    +0.000 HD
ENDBRANCH  22  25
ENDBRANCH  18  19
ENDBRANCH   8  18
BRANCH  11  27
ATOM     27  C   UNL     1      -3.006  12.077  19.689  0.00  0.00    +0.000 C 
BRANCH  27  28
ATOM     28  C   UNL     1      -2.922  11.408  18.328  0.00  0.00    +0.000 A 
ATOM     29  C   UNL     1      -3.842  11.660  17.306  0.00  0.00    +0.000 A 
ATOM     30  C   UNL     1      -3.772  10.967  16.092  0.00  0.00    +0.000 A 
ATOM     31  C   UNL     1      -2.770  10.027  15.874  0.00  0.00    +0.000 A 
ATOM     32  C   UNL     1      -1.817   9.797  16.862  0.00  0.00    +0.000 A 
ATOM     33  C   UNL     1      -1.876  10.504  18.066  0.00  0.00    +0.000 A 
ENDBRANCH  27  28
ENDBRANCH  11  27
TORSDOF 6
ENDMDL
MODEL 7
REMARK VINA RESULT:      -7.4      1.448      1.906
REMARK  Name = 
REMARK  8 active torsions:
REMARK  status: ('A' for Active; 'I' for Inactive)
REMARK    1  A    between atoms: C_1  and  C_2
REMARK    2  A    between atoms: C_2  and  C_3
REMARK    3  A    between atoms: C_2  and  C_4
REMARK    4  A    between atoms: C_11  and  C_12
REMARK    5  A    between atoms: C_12  and  C_13
REMARK    6  A    between atoms: C_16  and  O_17
REMARK    7  A    between atoms: C_22  and  C_23
REMARK    8  A    between atoms: C_23  and  C_24
REMARK                            x       y       z     vdW  Elec       q    Type
REMARK                         _______ _______ _______ _____ _____    ______ ____
ROOT
ATOM      1  C   UNL     1      -2.598  13.974  20.902  0.00  0.00    +0.000 C 
ATOM      2  C   UNL     1      -2.401  14.475  22.339  0.00  0.00    +0.000 C 
ATOM      3  N   UNL     1      -1.596  13.441  23.053  0.00  0.00    +0.000 NA
ATOM      4  C   UNL     1      -1.154  12.634  22.112  0.00  0.00    +0.000 C 
ATOM      5  C   UNL     1      -0.333  11.455  22.495  0.00  0.00    +0.000 C 
ATOM      6  C   UNL     1       0.273  10.583  21.671  0.00  0.00    +0.000 C 
ATOM      7  N   UNL     1       0.932   9.451  22.150  0.00  0.00    +0.000 N 
ATOM      8  C   UNL     1       1.535   8.667  21.047  0.00  0.00    +0.000 C 
ATOM      9  C   UNL     1       1.357   9.623  19.824  0.00  0.00    +0.000 C 
ATOM     10  N   UNL     1       0.390  10.623  20.296  0.00  0.00    +0.000 N 
ATOM     11  C   UNL     1      -0.508  11.275  19.324  0.00  0.00    +0.000 C 
ATOM     12  C   UNL     1      -0.742  12.763  19.679  0.00  0.00    +0.000 C 
ATOM     13  N   UNL     1      -1.588  12.929  20.843  0.00  0.00    +0.000 N 
ATOM     14  H   UNL     1       0.346   8.930  22.799  0.00  0.00    +0.000 HD
ENDROOT
BRANCH   1  16
ATOM     15  C   UNL     1      -4.993  14.396  20.036  0.00  0.00    +0.000 C 
ATOM     16  C   UNL     1      -3.995  13.379  20.589  0.00  0.00    +0.000 C 
ATOM     17  C   UNL     1      -4.658  12.636  21.752  0.00  0.00    +0.000 C 
ENDBRANCH   1  16
BRANCH   8  18
ATOM     18  C   UNL     1       0.860   7.310  20.749  0.00  0.00    +0.000 C 
BRANCH  18  19
ATOM     19  C   UNL     1       1.684   6.111  20.314  0.00  0.00    +0.000 A 
ATOM     20  C   UNL     1       1.557   4.834  20.874  0.00  0.00    +0.000 A 
ATOM     21  C   UNL     1       2.297   3.755  20.374  0.00  0.00    +0.000 A 
ATOM     22  C   UNL     1       3.179   3.953  19.315  0.00  0.00    +0.000 A 
ATOM     23  C   UNL     1       3.353   5.212  18.766  0.00  0.00    +0.000 A 
ATOM     24  C   UNL     1       2.603   6.284  19.257  0.00  0.00    +0.000 A 
BRANCH  22  25
ATOM     25  O   UNL     1       3.890   2.918  18.782  0.00  0.00    +0.000 OA
ATOM     26  H   UNL     1       4.602   3.281  18.226  0.00  0.00    +0.000 HD
ENDBRANCH  22  25
ENDBRANCH  18  19
ENDBRANCH   8  18
BRANCH  11  27
ATOM     27  C   UNL     1      -1.808  10.439  19.154  0.00  0.00    +0.000 C 
BRANCH  27  28
ATOM     28  C   UNL     1      -2.530  10.492  17.819  0.00  0.00    +0.000 A 
ATOM     29  C   UNL     1      -2.042   9.859  16.672  0.00  0.00    +0.000 A 
ATOM     30  C   UNL     1      -2.700   9.996  15.444  0.00  0.00    +0.000 A 
ATOM     31  C   UNL     1      -3.865  10.749  15.349  0.00  0.00    +0.000 A 
ATOM     32  C   UNL     1      -4.393  11.347  16.490  0.00  0.00    +0.000 A 
ATOM     33  C   UNL     1      -3.746  11.194  17.720  0.00  0.00    +0.000 A 
ENDBRANCH  27  28
ENDBRANCH  11  27
TORSDOF 6
ENDMDL
MODEL 8
REMARK VINA RESULT:      -7.4      4.622      7.933
REMARK  Name = 
REMARK  8 active torsions:
REMARK  status: ('A' for Active; 'I' for Inactive)
REMARK    1  A    between atoms: C_1  and  C_2
REMARK    2  A    between atoms: C_2  and  C_3
REMARK    3  A    between atoms: C_2  and  C_4
REMARK    4  A    between atoms: C_11  and  C_12
REMARK    5  A    between atoms: C_12  and  C_13
REMARK    6  A    between atoms: C_16  and  O_17
REMARK    7  A    between atoms: C_22  and  C_23
REMARK    8  A    between atoms: C_23  and  C_24
REMARK                            x       y       z     vdW  Elec       q    Type
REMARK                         _______ _______ _______ _____ _____    ______ ____
ROOT
ATOM      1  C   UNL     1       1.431  14.084  21.187  0.00  0.00    +0.000 C 
ATOM      2  C   UNL     1       1.907  15.277  22.027  0.00  0.00    +0.000 C 
ATOM      3  N   UNL     1       0.699  15.849  22.692  0.00  0.00    +0.000 NA
ATOM      4  C   UNL     1      -0.254  14.961  22.506  0.00  0.00    +0.000 C 
ATOM      5  C   UNL     1      -1.619  15.244  23.023  0.00  0.00    +0.000 C 
ATOM      6  C   UNL     1      -2.682  14.422  23.005  0.00  0.00    +0.000 C 
ATOM      7  N   UNL     1      -3.945  14.840  23.427  0.00  0.00    +0.000 N 
ATOM      8  C   UNL     1      -4.938  13.744  23.332  0.00  0.00    +0.000 C 
ATOM      9  C   UNL     1      -4.038  12.506  23.015  0.00  0.00    +0.000 C 
ATOM     10  N   UNL     1      -2.750  13.097  22.625  0.00  0.00    +0.000 N 
ATOM     11  C   UNL     1      -1.885  12.376  21.672  0.00  0.00    +0.000 C 
ATOM     12  C   UNL     1      -0.388  12.540  22.031  0.00  0.00    +0.000 C 
ATOM     13  N   UNL     1       0.107  13.872  21.752  0.00  0.00    +0.000 N 
ATOM     14  H   UNL     1      -4.208  15.719  22.989  0.00  0.00    +0.000 HD
ENDROOT
BRANCH   1  16
ATOM     15  C   UNL     1       2.092  13.340  18.805  0.00  0.00    +0.000 C 
ATOM     16  C   UNL     1       1.320  14.344  19.663  0.00  0.00    +0.000 C 
ATOM     17  C   UNL     1       1.707  15.757  19.216  0.00  0.00    +0.000 C 
ENDBRANCH   1  16
BRANCH   8  18
ATOM     18  C   UNL     1      -6.005  13.908  22.227  0.00  0.00    +0.000 C 
BRANCH  18  19
ATOM     19  C   UNL     1      -6.471  12.713  21.415  0.00  0.00    +0.000 A 
ATOM     20  C   UNL     1      -5.940  12.365  20.167  0.00  0.00    +0.000 A 
ATOM     21  C   UNL     1      -6.365  11.205  19.505  0.00  0.00    +0.000 A 
ATOM     22  C   UNL     1      -7.335  10.393  20.087  0.00  0.00    +0.000 A 
ATOM     23  C   UNL     1      -7.904  10.732  21.302  0.00  0.00    +0.000 A 
ATOM     24  C   UNL     1      -7.469  11.881  21.968  0.00  0.00    +0.000 A 
BRANCH  22  25
ATOM     25  O   UNL     1      -7.747   9.240  19.486  0.00  0.00    +0.000 OA
ATOM     26  H   UNL     1      -8.715   9.174  19.565  0.00  0.00    +0.000 HD
ENDBRANCH  22  25
ENDBRANCH  18  19
ENDBRANCH   8  18
BRANCH  11  27
ATOM     27  C   UNL     1      -2.247  12.777  20.214  0.00  0.00    +0.000 C 
BRANCH  27  28
ATOM     28  C   UNL     1      -2.049  11.749  19.113  0.00  0.00    +0.000 A 
ATOM     29  C   UNL     1      -3.033  11.463  18.163  0.00  0.00    +0.000 A 
ATOM     30  C   UNL     1      -2.839  10.456  17.211  0.00  0.00    +0.000 A 
ATOM     31  C   UNL     1      -1.650   9.734  17.182  0.00  0.00    +0.000 A 
ATOM     32  C   UNL     1      -0.638  10.038  18.089  0.00  0.00    +0.000 A 
ATOM     33  C   UNL     1      -0.827  11.058  19.027  0.00  0.00    +0.000 A 
ENDBRANCH  27  28
ENDBRANCH  11  27
TORSDOF 6
ENDMDL
MODEL 9
REMARK VINA RESULT:      -7.4      2.934      5.254
REMARK  Name = 
REMARK  8 active torsions:
REMARK  status: ('A' for Active; 'I' for Inactive)
REMARK    1  A    between atoms: C_1  and  C_2
REMARK    2  A    between atoms: C_2  and  C_3
REMARK    3  A    between atoms: C_2  and  C_4
REMARK    4  A    between atoms: C_11  and  C_12
REMARK    5  A    between atoms: C_12  and  C_13
REMARK    6  A    between atoms: C_16  and  O_17
REMARK    7  A    between atoms: C_22  and  C_23
REMARK    8  A    between atoms: C_23  and  C_24
REMARK                            x       y       z     vdW  Elec       q    Type
REMARK                         _______ _______ _______ _____ _____    ______ ____
ROOT
ATOM      1  C   UNL     1      -1.425  16.213  23.457  0.00  0.00    +0.000 C 
ATOM      2  C   UNL     1      -0.108  16.972  23.667  0.00  0.00    +0.000 C 
ATOM      3  N   UNL     1       0.971  16.152  23.044  0.00  0.00    +0.000 NA
ATOM      4  C   UNL     1       0.345  15.233  22.339  0.00  0.00    +0.000 C 
ATOM      5  C   UNL     1       1.142  14.213  21.607  0.00  0.00    +0.000 C 
ATOM      6  C   UNL     1       0.682  13.265  20.773  0.00  0.00    +0.000 C 
ATOM      7  N   UNL     1       1.520  12.295  20.224  0.00  0.00    +0.000 N 
ATOM      8  C   UNL     1       0.778  11.384  19.321  0.00  0.00    +0.000 C 
ATOM      9  C   UNL     1      -0.611  12.093  19.203  0.00  0.00    +0.000 C 
ATOM     10  N   UNL     1      -0.600  13.075  20.296  0.00  0.00    +0.000 N 
ATOM     11  C   UNL     1      -1.874  13.467  20.927  0.00  0.00    +0.000 C 
ATOM     12  C   UNL     1      -1.882  14.969  21.301  0.00  0.00    +0.000 C 
ATOM     13  N   UNL     1      -1.024  15.263  22.431  0.00  0.00    +0.000 N 
ATOM     14  H   UNL     1       2.086  11.848  20.941  0.00  0.00    +0.000 HD
ENDROOT
BRANCH   1  16
ATOM     15  C   UNL     1      -3.424  15.762  25.028  0.00  0.00    +0.000 C 
ATOM     16  C   UNL     1      -1.963  15.455  24.698  0.00  0.00    +0.000 C 
ATOM     17  C   UNL     1      -1.134  15.629  25.974  0.00  0.00    +0.000 C 
ENDBRANCH   1  16
BRANCH   8  18
ATOM     18  C   UNL     1       0.583   9.944  19.843  0.00  0.00    +0.000 C 
BRANCH  18  19
ATOM     19  C   UNL     1       1.490   8.819  19.377  0.00  0.00    +0.000 A 
ATOM     20  C   UNL     1       1.779   7.684  20.142  0.00  0.00    +0.000 A 
ATOM     21  C   UNL     1       2.566   6.647  19.620  0.00  0.00    +0.000 A 
ATOM     22  C   UNL     1       3.077   6.751  18.329  0.00  0.00    +0.000 A 
ATOM     23  C   UNL     1       2.838   7.879  17.563  0.00  0.00    +0.000 A 
ATOM     24  C   UNL     1       2.042   8.905  18.080  0.00  0.00    +0.000 A 
BRANCH  22  25
ATOM     25  O   UNL     1       3.818   5.748  17.778  0.00  0.00    +0.000 OA
ATOM     26  H   UNL     1       3.489   5.572  16.879  0.00  0.00    +0.000 HD
ENDBRANCH  22  25
ENDBRANCH  18  19
ENDBRANCH   8  18
BRANCH  11  27
ATOM     27  C   UNL     1      -2.206  12.506  22.104  0.00  0.00    +0.000 C 
BRANCH  27  28
ATOM     28  C   UNL     1      -3.586  12.585  22.731  0.00  0.00    +0.000 A 
ATOM     29  C   UNL     1      -4.721  12.973  22.012  0.00  0.00    +0.000 A 
ATOM     30  C   UNL     1      -5.961  13.104  22.647  0.00  0.00    +0.000 A 
ATOM     31  C   UNL     1      -6.090  12.830  24.005  0.00  0.00    +0.000 A 
ATOM     32  C   UNL     1      -4.983  12.395  24.727  0.00  0.00    +0.000 A 
ATOM     33  C   UNL     1      -3.748  12.245  24.087  0.00  0.00    +0.000 A 
ENDBRANCH  27  28
ENDBRANCH  11  27
TORSDOF 6
ENDMDL
