MODEL 1
REMARK VINA RESULT:      -8.4      0.000      0.000
REMARK  Name = 
REMARK  10 active torsions:
REMARK  status: ('A' for Active; 'I' for Inactive)
REMARK    1  A    between atoms: C_1  and  C_2
REMARK    2  A    between atoms: C_2  and  C_3
REMARK    3  A    between atoms: C_9  and  O_10
REMARK    4  A    between atoms: C_11  and  O_12
REMARK    5  A    between atoms: C_13  and  O_14
REMARK    6  A    between atoms: O_14  and  C_15
REMARK    7  A    between atoms: C_15  and  C_17
REMARK    8  A    between atoms: C_18  and  C_19
REMARK    9  A    between atoms: C_22  and  O_23
REMARK   10  A    between atoms: C_24  and  O_25
REMARK                            x       y       z     vdW  Elec       q    Type
REMARK                         _______ _______ _______ _____ _____    ______ ____
ROOT
ATOM      1  C   UNL     1       1.849   4.044  20.273  0.00  0.00    +0.000 C 
ATOM      2  C   UNL     1       2.699   3.725  19.049  0.00  0.00    +0.000 C 
ATOM      3  C   UNL     1       2.015   2.629  18.232  0.00  0.00    +0.000 C 
ATOM      4  O   UNL     1       3.970   3.277  19.474  0.00  0.00    +0.000 OA
ATOM      5  C   UNL     1       4.901   3.951  18.750  0.00  0.00    +0.000 C 
ATOM      6  O   UNL     1       6.099   3.743  18.844  0.00  0.00    +0.000 OA
ATOM      7  C   UNL     1       4.224   4.933  17.810  0.00  0.00    +0.000 C 
ATOM      8  C   UNL     1       4.244   4.427  16.366  0.00  0.00    +0.000 C 
ATOM      9  C   UNL     1       5.556   4.714  15.650  0.00  0.00    +0.000 C 
ATOM     10  C   UNL     1       5.894   6.211  15.682  0.00  0.00    +0.000 C 
ATOM     11  C   UNL     1       6.002   6.698  17.139  0.00  0.00    +0.000 C 
ATOM     12  C   UNL     1       4.745   6.374  17.959  0.00  0.00    +0.000 C 
ATOM     13  O   UNL     1       2.856   4.910  18.271  0.00  0.00    +0.000 OA
ENDROOT
BRANCH   9  14
ATOM     14  O   UNL     1       5.433   4.260  14.303  0.00  0.00    +0.000 OA
ATOM     15  H   UNL     1       4.863   3.467  14.324  0.00  0.00    +0.000 HD
ENDBRANCH   9  14
BRANCH  10  16
ATOM     16  O   UNL     1       4.928   6.945  14.920  0.00  0.00    +0.000 OA
ATOM     17  H   UNL     1       4.034   6.777  15.262  0.00  0.00    +0.000 HD
ENDBRANCH  10  16
BRANCH  11  18
ATOM     18  O   UNL     1       7.152   6.021  17.669  0.00  0.00    +0.000 OA
BRANCH  18  19
ATOM     19  C   UNL     1       7.950   6.708  18.516  0.00  0.00    +0.000 C 
ATOM     20  O   UNL     1       8.385   6.294  19.578  0.00  0.00    +0.000 OA
BRANCH  19  21
ATOM     21  C   UNL     1       8.067   8.126  18.089  0.00  0.00    +0.000 C 
ATOM     22  C   UNL     1       8.696   9.050  18.835  0.00  0.00    +0.000 C 
BRANCH  22  23
ATOM     23  C   UNL     1       9.118  10.384  18.381  0.00  0.00    +0.000 A 
ATOM     24  C   UNL     1      10.441  10.844  18.440  0.00  0.00    +0.000 A 
ATOM     25  C   UNL     1      10.765  12.148  18.024  0.00  0.00    +0.000 A 
ATOM     26  C   UNL     1       9.760  12.979  17.546  0.00  0.00    +0.000 A 
ATOM     27  C   UNL     1       8.451  12.519  17.463  0.00  0.00    +0.000 A 
ATOM     28  C   UNL     1       8.125  11.234  17.869  0.00  0.00    +0.000 A 
BRANCH  26  29
ATOM     29  O   UNL     1      10.009  14.261  17.142  0.00  0.00    +0.000 OA
ATOM     30  H   UNL     1      10.893  14.512  17.459  0.00  0.00    +0.000 HD
ENDBRANCH  26  29
BRANCH  27  31
ATOM     31  O   UNL     1       7.465  13.337  16.990  0.00  0.00    +0.000 OA
ATOM     32  H   UNL     1       6.922  13.548  17.775  0.00  0.00    +0.000 HD
ENDBRANCH  27  31
ENDBRANCH  22  23
ENDBRANCH  19  21
ENDBRANCH  18  19
ENDBRANCH  11  18
TORSDOF 8
ENDMDL
MODEL 2
REMARK VINA RESULT:      -8.3      0.690      1.346
REMARK  Name = 
REMARK  10 active torsions:
REMARK  status: ('A' for Active; 'I' for Inactive)
REMARK    1  A    between atoms: C_1  and  C_2
REMARK    2  A    between atoms: C_2  and  C_3
REMARK    3  A    between atoms: C_9  and  O_10
REMARK    4  A    between atoms: C_11  and  O_12
REMARK    5  A    between atoms: C_13  and  O_14
REMARK    6  A    between atoms: O_14  and  C_15
REMARK    7  A    between atoms: C_15  and  C_17
REMARK    8  A    between atoms: C_18  and  C_19
REMARK    9  A    between atoms: C_22  and  O_23
REMARK   10  A    between atoms: C_24  and  O_25
REMARK                            x       y       z     vdW  Elec       q    Type
REMARK                         _______ _______ _______ _____ _____    ______ ____
ROOT
ATOM      1  C   UNL     1       1.564   4.591  19.830  0.00  0.00    +0.000 C 
ATOM      2  C   UNL     1       2.517   4.082  18.755  0.00  0.00    +0.000 C 
ATOM      3  C   UNL     1       1.857   2.925  18.003  0.00  0.00    +0.000 C 
ATOM      4  O   UNL     1       3.708   3.631  19.368  0.00  0.00    +0.000 OA
ATOM      5  C   UNL     1       4.748   4.165  18.677  0.00  0.00    +0.000 C 
ATOM      6  O   UNL     1       5.915   3.914  18.928  0.00  0.00    +0.000 OA
ATOM      7  C   UNL     1       4.234   5.052  17.558  0.00  0.00    +0.000 C 
ATOM      8  C   UNL     1       4.373   4.369  16.195  0.00  0.00    +0.000 C 
ATOM      9  C   UNL     1       5.768   4.502  15.600  0.00  0.00    +0.000 C 
ATOM     10  C   UNL     1       6.190   5.974  15.491  0.00  0.00    +0.000 C 
ATOM     11  C   UNL     1       6.175   6.634  16.883  0.00  0.00    +0.000 C 
ATOM     12  C   UNL     1       4.822   6.474  17.591  0.00  0.00    +0.000 C 
ATOM     13  O   UNL     1       2.826   5.151  17.863  0.00  0.00    +0.000 OA
ENDROOT
BRANCH   9  14
ATOM     14  O   UNL     1       5.760   3.890  14.312  0.00  0.00    +0.000 OA
ATOM     15  H   UNL     1       5.799   2.924  14.459  0.00  0.00    +0.000 HD
ENDBRANCH   9  14
BRANCH  10  16
ATOM     16  O   UNL     1       5.356   6.651  14.544  0.00  0.00    +0.000 OA
ATOM     17  H   UNL     1       5.004   6.018  13.896  0.00  0.00    +0.000 HD
ENDBRANCH  10  16
BRANCH  11  18
ATOM     18  O   UNL     1       7.221   5.975  17.614  0.00  0.00    +0.000 OA
BRANCH  18  19
ATOM     19  C   UNL     1       7.933   6.714  18.492  0.00  0.00    +0.000 C 
ATOM     20  O   UNL     1       8.309   6.345  19.593  0.00  0.00    +0.000 OA
BRANCH  19  21
ATOM     21  C   UNL     1       8.029   8.123  18.033  0.00  0.00    +0.000 C 
ATOM     22  C   UNL     1       8.631   9.076  18.765  0.00  0.00    +0.000 C 
BRANCH  22  23
ATOM     23  C   UNL     1       9.033  10.407  18.284  0.00  0.00    +0.000 A 
ATOM     24  C   UNL     1       8.124  11.414  17.928  0.00  0.00    +0.000 A 
ATOM     25  C   UNL     1       8.580  12.651  17.439  0.00  0.00    +0.000 A 
ATOM     26  C   UNL     1       9.945  12.871  17.315  0.00  0.00    +0.000 A 
ATOM     27  C   UNL     1      10.851  11.886  17.689  0.00  0.00    +0.000 A 
ATOM     28  C   UNL     1      10.409  10.665  18.176  0.00  0.00    +0.000 A 
BRANCH  26  29
ATOM     29  O   UNL     1      10.450  14.046  16.831  0.00  0.00    +0.000 OA
ATOM     30  H   UNL     1      11.002  14.447  17.524  0.00  0.00    +0.000 HD
ENDBRANCH  26  29
BRANCH  27  31
ATOM     31  O   UNL     1      12.194  12.107  17.570  0.00  0.00    +0.000 OA
ATOM     32  H   UNL     1      12.494  12.295  18.481  0.00  0.00    +0.000 HD
ENDBRANCH  27  31
ENDBRANCH  22  23
ENDBRANCH  19  21
ENDBRANCH  18  19
ENDBRANCH  11  18
TORSDOF 8
ENDMDL
MODEL 3
REMARK VINA RESULT:      -7.5      5.654      9.981
REMARK  Name = 
REMARK  10 active torsions:
REMARK  status: ('A' for Active; 'I' for Inactive)
REMARK    1  A    between atoms: C_1  and  C_2
REMARK    2  A    between atoms: C_2  and  C_3
REMARK    3  A    between atoms: C_9  and  O_10
REMARK    4  A    between atoms: C_11  and  O_12
REMARK    5  A    between atoms: C_13  and  O_14
REMARK    6  A    between atoms: O_14  and  C_15
REMARK    7  A    between atoms: C_15  and  C_17
REMARK    8  A    between atoms: C_18  and  C_19
REMARK    9  A    between atoms: C_22  and  O_23
REMARK   10  A    between atoms: C_24  and  O_25
REMARK                            x       y       z     vdW  Elec       q    Type
REMARK                         _______ _______ _______ _____ _____    ______ ____
ROOT
ATOM      1  C   UNL     1       3.850  14.756  18.726  0.00  0.00    +0.000 C 
ATOM      2  C   UNL     1       2.375  14.470  18.977  0.00  0.00    +0.000 C 
ATOM      3  C   UNL     1       1.551  15.701  18.597  0.00  0.00    +0.000 C 
ATOM      4  O   UNL     1       2.187  14.178  20.347  0.00  0.00    +0.000 OA
ATOM      5  C   UNL     1       1.427  13.056  20.422  0.00  0.00    +0.000 C 
ATOM      6  O   UNL     1       1.041  12.580  21.477  0.00  0.00    +0.000 OA
ATOM      7  C   UNL     1       1.112  12.540  19.029  0.00  0.00    +0.000 C 
ATOM      8  C   UNL     1      -0.334  12.850  18.632  0.00  0.00    +0.000 C 
ATOM      9  C   UNL     1      -1.333  11.842  19.183  0.00  0.00    +0.000 C 
ATOM     10  C   UNL     1      -0.971  10.410  18.760  0.00  0.00    +0.000 C 
ATOM     11  C   UNL     1       0.436  10.048  19.269  0.00  0.00    +0.000 C 
ATOM     12  C   UNL     1       1.498  11.065  18.825  0.00  0.00    +0.000 C 
ATOM     13  O   UNL     1       1.981  13.341  18.200  0.00  0.00    +0.000 OA
ENDROOT
BRANCH   9  14
ATOM     14  O   UNL     1      -2.628  12.192  18.697  0.00  0.00    +0.000 OA
ATOM     15  H   UNL     1      -2.616  12.040  17.732  0.00  0.00    +0.000 HD
ENDBRANCH   9  14
BRANCH  10  16
ATOM     16  O   UNL     1      -1.104  10.274  17.341  0.00  0.00    +0.000 OA
ATOM     17  H   UNL     1      -1.046   9.336  17.088  0.00  0.00    +0.000 HD
ENDBRANCH  10  16
BRANCH  11  18
ATOM     18  O   UNL     1       0.315  10.021  20.699  0.00  0.00    +0.000 OA
BRANCH  18  19
ATOM     19  C   UNL     1       1.025   9.088  21.371  0.00  0.00    +0.000 C 
ATOM     20  O   UNL     1       1.785   9.304  22.301  0.00  0.00    +0.000 OA
BRANCH  19  21
ATOM     21  C   UNL     1       0.926   7.768  20.696  0.00  0.00    +0.000 C 
ATOM     22  C   UNL     1       2.009   7.026  20.410  0.00  0.00    +0.000 C 
BRANCH  22  23
ATOM     23  C   UNL     1       2.003   5.607  20.021  0.00  0.00    +0.000 A 
ATOM     24  C   UNL     1       1.131   4.654  20.565  0.00  0.00    +0.000 A 
ATOM     25  C   UNL     1       1.209   3.305  20.173  0.00  0.00    +0.000 A 
ATOM     26  C   UNL     1       2.157   2.924  19.234  0.00  0.00    +0.000 A 
ATOM     27  C   UNL     1       3.008   3.870  18.673  0.00  0.00    +0.000 A 
ATOM     28  C   UNL     1       2.935   5.201  19.052  0.00  0.00    +0.000 A 
BRANCH  26  29
ATOM     29  O   UNL     1       2.293   1.626  18.824  0.00  0.00    +0.000 OA
ATOM     30  H   UNL     1       1.635   1.089  19.298  0.00  0.00    +0.000 HD
ENDBRANCH  26  29
BRANCH  27  31
ATOM     31  O   UNL     1       3.938   3.492  17.746  0.00  0.00    +0.000 OA
ATOM     32  H   UNL     1       3.604   3.853  16.901  0.00  0.00    +0.000 HD
ENDBRANCH  27  31
ENDBRANCH  22  23
ENDBRANCH  19  21
ENDBRANCH  18  19
ENDBRANCH  11  18
TORSDOF 8
ENDMDL
MODEL 4
REMARK VINA RESULT:      -7.5      3.682      6.578
REMARK  Name = 
REMARK  10 active torsions:
REMARK  status: ('A' for Active; 'I' for Inactive)
REMARK    1  A    between atoms: C_1  and  C_2
REMARK    2  A    between atoms: C_2  and  C_3
REMARK    3  A    between atoms: C_9  and  O_10
REMARK    4  A    between atoms: C_11  and  O_12
REMARK    5  A    between atoms: C_13  and  O_14
REMARK    6  A    between atoms: O_14  and  C_15
REMARK    7  A    between atoms: C_15  and  C_17
REMARK    8  A    between atoms: C_18  and  C_19
REMARK    9  A    between atoms: C_22  and  O_23
REMARK   10  A    between atoms: C_24  and  O_25
REMARK                            x       y       z     vdW  Elec       q    Type
REMARK                         _______ _______ _______ _____ _____    ______ ____
ROOT
ATOM      1  C   UNL     1       6.530   7.291  16.966  0.00  0.00    +0.000 C 
ATOM      2  C   UNL     1       5.845   5.951  16.730  0.00  0.00    +0.000 C 
ATOM      3  C   UNL     1       6.363   5.343  15.426  0.00  0.00    +0.000 C 
ATOM      4  O   UNL     1       4.450   6.155  16.637  0.00  0.00    +0.000 OA
ATOM      5  C   UNL     1       3.851   5.231  17.431  0.00  0.00    +0.000 C 
ATOM      6  O   UNL     1       2.640   5.110  17.519  0.00  0.00    +0.000 OA
ATOM      7  C   UNL     1       4.897   4.378  18.126  0.00  0.00    +0.000 C 
ATOM      8  C   UNL     1       4.996   2.988  17.492  0.00  0.00    +0.000 C 
ATOM      9  C   UNL     1       3.935   2.023  18.002  0.00  0.00    +0.000 C 
ATOM     10  C   UNL     1       3.979   1.902  19.532  0.00  0.00    +0.000 C 
ATOM     11  C   UNL     1       3.752   3.281  20.179  0.00  0.00    +0.000 C 
ATOM     12  C   UNL     1       4.733   4.340  19.656  0.00  0.00    +0.000 C 
ATOM     13  O   UNL     1       6.120   5.088  17.832  0.00  0.00    +0.000 OA
ENDROOT
BRANCH   9  14
ATOM     14  O   UNL     1       4.165   0.752  17.396  0.00  0.00    +0.000 OA
ATOM     15  H   UNL     1       4.067   0.879  16.431  0.00  0.00    +0.000 HD
ENDBRANCH   9  14
BRANCH  10  16
ATOM     16  O   UNL     1       5.209   1.293  19.937  0.00  0.00    +0.000 OA
ATOM     17  H   UNL     1       5.356   1.434  20.888  0.00  0.00    +0.000 HD
ENDBRANCH  10  16
BRANCH  11  18
ATOM     18  O   UNL     1       2.397   3.625  19.846  0.00  0.00    +0.000 OA
BRANCH  18  19
ATOM     19  C   UNL     1       1.565   3.947  20.861  0.00  0.00    +0.000 C 
ATOM     20  O   UNL     1       1.128   3.173  21.697  0.00  0.00    +0.000 OA
BRANCH  19  21
ATOM     21  C   UNL     1       1.074   5.341  20.711  0.00  0.00    +0.000 C 
ATOM     22  C   UNL     1       1.895   6.403  20.788  0.00  0.00    +0.000 C 
BRANCH  22  23
ATOM     23  C   UNL     1       1.572   7.775  20.369  0.00  0.00    +0.000 A 
ATOM     24  C   UNL     1       0.922   8.707  21.191  0.00  0.00    +0.000 A 
ATOM     25  C   UNL     1       0.609   9.991  20.710  0.00  0.00    +0.000 A 
ATOM     26  C   UNL     1       0.954  10.333  19.410  0.00  0.00    +0.000 A 
ATOM     27  C   UNL     1       1.620   9.421  18.598  0.00  0.00    +0.000 A 
ATOM     28  C   UNL     1       1.935   8.154  19.067  0.00  0.00    +0.000 A 
BRANCH  26  29
ATOM     29  O   UNL     1       0.663  11.559  18.879  0.00  0.00    +0.000 OA
ATOM     30  H   UNL     1       1.255  11.710  18.122  0.00  0.00    +0.000 HD
ENDBRANCH  26  29
BRANCH  27  31
ATOM     31  O   UNL     1       1.962   9.761  17.321  0.00  0.00    +0.000 OA
ATOM     32  H   UNL     1       2.274  10.685  17.387  0.00  0.00    +0.000 HD
ENDBRANCH  27  31
ENDBRANCH  22  23
ENDBRANCH  19  21
ENDBRANCH  18  19
ENDBRANCH  11  18
TORSDOF 8
ENDMDL
MODEL 5
REMARK VINA RESULT:      -7.5      4.858      6.812
REMARK  Name = 
REMARK  10 active torsions:
REMARK  status: ('A' for Active; 'I' for Inactive)
REMARK    1  A    between atoms: C_1  and  C_2
REMARK    2  A    between atoms: C_2  and  C_3
REMARK    3  A    between atoms: C_9  and  O_10
REMARK    4  A    between atoms: C_11  and  O_12
REMARK    5  A    between atoms: C_13  and  O_14
REMARK    6  A    between atoms: O_14  and  C_15
REMARK    7  A    between atoms: C_15  and  C_17
REMARK    8  A    between atoms: C_18  and  C_19
REMARK    9  A    between atoms: C_22  and  O_23
REMARK   10  A    between atoms: C_24  and  O_25
REMARK                            x       y       z     vdW  Elec       q    Type
REMARK                         _______ _______ _______ _____ _____    ______ ____
ROOT
ATOM      1  C   UNL     1       7.755   4.551  17.255  0.00  0.00    +0.000 C 
ATOM      2  C   UNL     1       6.270   4.602  16.916  0.00  0.00    +0.000 C 
ATOM      3  C   UNL     1       6.023   3.842  15.613  0.00  0.00    +0.000 C 
ATOM      4  O   UNL     1       5.879   5.952  16.760  0.00  0.00    +0.000 OA
ATOM      5  C   UNL     1       4.738   6.129  17.474  0.00  0.00    +0.000 C 
ATOM      6  O   UNL     1       4.117   7.179  17.492  0.00  0.00    +0.000 OA
ATOM      7  C   UNL     1       4.355   4.840  18.180  0.00  0.00    +0.000 C 
ATOM      8  C   UNL     1       3.179   4.150  17.484  0.00  0.00    +0.000 C 
ATOM      9  C   UNL     1       1.828   4.721  17.887  0.00  0.00    +0.000 C 
ATOM     10  C   UNL     1       1.633   4.672  19.410  0.00  0.00    +0.000 C 
ATOM     11  C   UNL     1       2.744   5.474  20.112  0.00  0.00    +0.000 C 
ATOM     12  C   UNL     1       4.149   5.014  19.695  0.00  0.00    +0.000 C 
ATOM     13  O   UNL     1       5.529   4.021  17.987  0.00  0.00    +0.000 OA
ENDROOT
BRANCH   9  14
ATOM     14  O   UNL     1       0.813   3.962  17.232  0.00  0.00    +0.000 OA
ATOM     15  H   UNL     1      -0.041   4.377  17.462  0.00  0.00    +0.000 HD
ENDBRANCH   9  14
BRANCH  10  16
ATOM     16  O   UNL     1       1.567   3.310  19.849  0.00  0.00    +0.000 OA
ATOM     17  H   UNL     1       2.036   2.733  19.222  0.00  0.00    +0.000 HD
ENDBRANCH  10  16
BRANCH  11  18
ATOM     18  O   UNL     1       2.513   6.838  19.726  0.00  0.00    +0.000 OA
BRANCH  18  19
ATOM     19  C   UNL     1       1.746   7.598  20.538  0.00  0.00    +0.000 C 
ATOM     20  O   UNL     1       1.272   7.246  21.606  0.00  0.00    +0.000 OA
BRANCH  19  21
ATOM     21  C   UNL     1       1.371   8.868  19.864  0.00  0.00    +0.000 C 
ATOM     22  C   UNL     1       0.454   9.707  20.376  0.00  0.00    +0.000 C 
BRANCH  22  23
ATOM     23  C   UNL     1       0.229  11.099  19.954  0.00  0.00    +0.000 A 
ATOM     24  C   UNL     1       0.581  12.214  20.728  0.00  0.00    +0.000 A 
ATOM     25  C   UNL     1       0.300  13.516  20.278  0.00  0.00    +0.000 A 
ATOM     26  C   UNL     1      -0.329  13.691  19.052  0.00  0.00    +0.000 A 
ATOM     27  C   UNL     1      -0.659  12.590  18.270  0.00  0.00    +0.000 A 
ATOM     28  C   UNL     1      -0.381  11.303  18.706  0.00  0.00    +0.000 A 
BRANCH  26  29
ATOM     29  O   UNL     1      -0.643  14.930  18.568  0.00  0.00    +0.000 OA
ATOM     30  H   UNL     1      -1.609  14.977  18.461  0.00  0.00    +0.000 HD
ENDBRANCH  26  29
BRANCH  27  31
ATOM     31  O   UNL     1      -1.274  12.765  17.063  0.00  0.00    +0.000 OA
ATOM     32  H   UNL     1      -0.556  12.673  16.406  0.00  0.00    +0.000 HD
ENDBRANCH  27  31
ENDBRANCH  22  23
ENDBRANCH  19  21
ENDBRANCH  18  19
ENDBRANCH  11  18
TORSDOF 8
ENDMDL
MODEL 6
REMARK VINA RESULT:      -7.5      1.260      1.471
REMARK  Name = 
REMARK  10 active torsions:
REMARK  status: ('A' for Active; 'I' for Inactive)
REMARK    1  A    between atoms: C_1  and  C_2
REMARK    2  A    between atoms: C_2  and  C_3
REMARK    3  A    between atoms: C_9  and  O_10
REMARK    4  A    between atoms: C_11  and  O_12
REMARK    5  A    between atoms: C_13  and  O_14
REMARK    6  A    between atoms: O_14  and  C_15
REMARK    7  A    between atoms: C_15  and  C_17
REMARK    8  A    between atoms: C_18  and  C_19
REMARK    9  A    between atoms: C_22  and  O_23
REMARK   10  A    between atoms: C_24  and  O_25
REMARK                            x       y       z     vdW  Elec       q    Type
REMARK                         _______ _______ _______ _____ _____    ______ ____
ROOT
ATOM      1  C   UNL     1       2.556   2.857  20.463  0.00  0.00    +0.000 C 
ATOM      2  C   UNL     1       3.444   2.964  19.229  0.00  0.00    +0.000 C 
ATOM      3  C   UNL     1       3.257   1.716  18.364  0.00  0.00    +0.000 C 
ATOM      4  O   UNL     1       4.794   3.059  19.638  0.00  0.00    +0.000 OA
ATOM      5  C   UNL     1       5.356   4.084  18.947  0.00  0.00    +0.000 C 
ATOM      6  O   UNL     1       6.536   4.382  19.036  0.00  0.00    +0.000 OA
ATOM      7  C   UNL     1       4.323   4.739  18.047  0.00  0.00    +0.000 C 
ATOM      8  C   UNL     1       4.526   4.343  16.582  0.00  0.00    +0.000 C 
ATOM      9  C   UNL     1       5.595   5.171  15.883  0.00  0.00    +0.000 C 
ATOM     10  C   UNL     1       5.290   6.673  15.980  0.00  0.00    +0.000 C 
ATOM     11  C   UNL     1       5.211   7.103  17.456  0.00  0.00    +0.000 C 
ATOM     12  C   UNL     1       4.209   6.259  18.258  0.00  0.00    +0.000 C 
ATOM     13  O   UNL     1       3.091   4.139  18.503  0.00  0.00    +0.000 OA
ENDROOT
BRANCH   9  14
ATOM     14  O   UNL     1       5.650   4.761  14.518  0.00  0.00    +0.000 OA
ATOM     15  H   UNL     1       4.726   4.719  14.200  0.00  0.00    +0.000 HD
ENDBRANCH   9  14
BRANCH  10  16
ATOM     16  O   UNL     1       4.098   6.975  15.246  0.00  0.00    +0.000 OA
ATOM     17  H   UNL     1       4.096   6.498  14.399  0.00  0.00    +0.000 HD
ENDBRANCH  10  16
BRANCH  11  18
ATOM     18  O   UNL     1       6.545   6.936  17.961  0.00  0.00    +0.000 OA
BRANCH  18  19
ATOM     19  C   UNL     1       7.547   7.563  17.305  0.00  0.00    +0.000 C 
ATOM     20  O   UNL     1       8.288   7.053  16.481  0.00  0.00    +0.000 OA
BRANCH  19  21
ATOM     21  C   UNL     1       7.773   8.918  17.871  0.00  0.00    +0.000 C 
ATOM     22  C   UNL     1       8.801   9.188  18.695  0.00  0.00    +0.000 C 
BRANCH  22  23
ATOM     23  C   UNL     1       9.278  10.529  19.067  0.00  0.00    +0.000 A 
ATOM     24  C   UNL     1       9.641  10.892  20.371  0.00  0.00    +0.000 A 
ATOM     25  C   UNL     1      10.052  12.206  20.662  0.00  0.00    +0.000 A 
ATOM     26  C   UNL     1      10.100  13.145  19.640  0.00  0.00    +0.000 A 
ATOM     27  C   UNL     1       9.763  12.784  18.340  0.00  0.00    +0.000 A 
ATOM     28  C   UNL     1       9.361  11.490  18.046  0.00  0.00    +0.000 A 
BRANCH  26  29
ATOM     29  O   UNL     1      10.475  14.441  19.861  0.00  0.00    +0.000 OA
ATOM     30  H   UNL     1      10.459  14.910  19.009  0.00  0.00    +0.000 HD
ENDBRANCH  26  29
BRANCH  27  31
ATOM     31  O   UNL     1       9.814  13.708  17.336  0.00  0.00    +0.000 OA
ATOM     32  H   UNL     1      10.392  14.417  17.683  0.00  0.00    +0.000 HD
ENDBRANCH  27  31
ENDBRANCH  22  23
ENDBRANCH  19  21
ENDBRANCH  18  19
ENDBRANCH  11  18
TORSDOF 8
ENDMDL
MODEL 7
REMARK VINA RESULT:      -7.5      1.627      2.044
REMARK  Name = 
REMARK  10 active torsions:
REMARK  status: ('A' for Active; 'I' for Inactive)
REMARK    1  A    between atoms: C_1  and  C_2
REMARK    2  A    between atoms: C_2  and  C_3
REMARK    3  A    between atoms: C_9  and  O_10
REMARK    4  A    between atoms: C_11  and  O_12
REMARK    5  A    between atoms: C_13  and  O_14
REMARK    6  A    between atoms: O_14  and  C_15
REMARK    7  A    between atoms: C_15  and  C_17
REMARK    8  A    between atoms: C_18  and  C_19
REMARK    9  A    between atoms: C_22  and  O_23
REMARK   10  A    between atoms: C_24  and  O_25
REMARK                            x       y       z     vdW  Elec       q    Type
REMARK                         _______ _______ _______ _____ _____    ______ ____
ROOT
ATOM      1  C   UNL     1       1.185   2.915  21.383  0.00  0.00    +0.000 C 
ATOM      2  C   UNL     1       1.957   2.886  20.070  0.00  0.00    +0.000 C 
ATOM      3  C   UNL     1       1.218   1.997  19.069  0.00  0.00    +0.000 C 
ATOM      4  O   UNL     1       3.249   2.363  20.305  0.00  0.00    +0.000 OA
ATOM      5  C   UNL     1       4.139   3.190  19.697  0.00  0.00    +0.000 C 
ATOM      6  O   UNL     1       5.339   2.974  19.669  0.00  0.00    +0.000 OA
ATOM      7  C   UNL     1       3.413   4.353  19.045  0.00  0.00    +0.000 C 
ATOM      8  C   UNL     1       3.342   4.186  17.525  0.00  0.00    +0.000 C 
ATOM      9  C   UNL     1       4.610   4.636  16.814  0.00  0.00    +0.000 C 
ATOM     10  C   UNL     1       4.959   6.090  17.162  0.00  0.00    +0.000 C 
ATOM     11  C   UNL     1       5.159   6.237  18.682  0.00  0.00    +0.000 C 
ATOM     12  C   UNL     1       3.951   5.727  19.482  0.00  0.00    +0.000 C 
ATOM     13  O   UNL     1       2.075   4.217  19.570  0.00  0.00    +0.000 OA
ENDROOT
BRANCH   9  14
ATOM     14  O   UNL     1       4.403   4.496  15.409  0.00  0.00    +0.000 OA
ATOM     15  H   UNL     1       5.250   4.723  14.977  0.00  0.00    +0.000 HD
ENDBRANCH   9  14
BRANCH  10  16
ATOM     16  O   UNL     1       3.954   6.969  16.644  0.00  0.00    +0.000 OA
ATOM     17  H   UNL     1       3.771   7.680  17.282  0.00  0.00    +0.000 HD
ENDBRANCH  10  16
BRANCH  11  18
ATOM     18  O   UNL     1       6.334   5.466  18.975  0.00  0.00    +0.000 OA
BRANCH  18  19
ATOM     19  C   UNL     1       7.461   5.755  18.289  0.00  0.00    +0.000 C 
ATOM     20  O   UNL     1       8.053   4.995  17.539  0.00  0.00    +0.000 OA
BRANCH  19  21
ATOM     21  C   UNL     1       8.018   7.061  18.724  0.00  0.00    +0.000 C 
ATOM     22  C   UNL     1       8.244   8.068  17.862  0.00  0.00    +0.000 C 
BRANCH  22  23
ATOM     23  C   UNL     1       8.508   9.469  18.223  0.00  0.00    +0.000 A 
ATOM     24  C   UNL     1       8.197  10.558  17.395  0.00  0.00    +0.000 A 
ATOM     25  C   UNL     1       8.514  11.870  17.789  0.00  0.00    +0.000 A 
ATOM     26  C   UNL     1       9.135  12.082  19.013  0.00  0.00    +0.000 A 
ATOM     27  C   UNL     1       9.423  11.008  19.848  0.00  0.00    +0.000 A 
ATOM     28  C   UNL     1       9.111   9.712  19.467  0.00  0.00    +0.000 A 
BRANCH  26  29
ATOM     29  O   UNL     1       9.483  13.332  19.444  0.00  0.00    +0.000 OA
ATOM     30  H   UNL     1       8.972  13.527  20.249  0.00  0.00    +0.000 HD
ENDBRANCH  26  29
BRANCH  27  31
ATOM     31  O   UNL     1      10.031  11.219  21.052  0.00  0.00    +0.000 OA
ATOM     32  H   UNL     1      10.891  11.627  20.826  0.00  0.00    +0.000 HD
ENDBRANCH  27  31
ENDBRANCH  22  23
ENDBRANCH  19  21
ENDBRANCH  18  19
ENDBRANCH  11  18
TORSDOF 8
ENDMDL
MODEL 8
REMARK VINA RESULT:      -7.4      1.718      1.939
REMARK  Name = 
REMARK  10 active torsions:
REMARK  status: ('A' for Active; 'I' for Inactive)
REMARK    1  A    between atoms: C_1  and  C_2
REMARK    2  A    between atoms: C_2  and  C_3
REMARK    3  A    between atoms: C_9  and  O_10
REMARK    4  A    between atoms: C_11  and  O_12
REMARK    5  A    between atoms: C_13  and  O_14
REMARK    6  A    between atoms: O_14  and  C_15
REMARK    7  A    between atoms: C_15  and  C_17
REMARK    8  A    between atoms: C_18  and  C_19
REMARK    9  A    between atoms: C_22  and  O_23
REMARK   10  A    between atoms: C_24  and  O_25
REMARK                            x       y       z     vdW  Elec       q    Type
REMARK                         _______ _______ _______ _____ _____    ______ ____
ROOT
ATOM      1  C   UNL     1       1.751   3.541  20.342  0.00  0.00    +0.000 C 
ATOM      2  C   UNL     1       2.924   3.260  19.409  0.00  0.00    +0.000 C 
ATOM      3  C   UNL     1       2.894   1.790  18.990  0.00  0.00    +0.000 C 
ATOM      4  O   UNL     1       4.131   3.535  20.090  0.00  0.00    +0.000 OA
ATOM      5  C   UNL     1       4.901   4.289  19.263  0.00  0.00    +0.000 C 
ATOM      6  O   UNL     1       6.035   4.641  19.542  0.00  0.00    +0.000 OA
ATOM      7  C   UNL     1       4.160   4.568  17.967  0.00  0.00    +0.000 C 
ATOM      8  C   UNL     1       4.702   3.713  16.819  0.00  0.00    +0.000 C 
ATOM      9  C   UNL     1       5.953   4.297  16.178  0.00  0.00    +0.000 C 
ATOM     10  C   UNL     1       5.712   5.733  15.690  0.00  0.00    +0.000 C 
ATOM     11  C   UNL     1       5.290   6.629  16.869  0.00  0.00    +0.000 C 
ATOM     12  C   UNL     1       4.077   6.067  17.625  0.00  0.00    +0.000 C 
ATOM     13  O   UNL     1       2.824   4.111  18.270  0.00  0.00    +0.000 OA
ENDROOT
BRANCH   9  14
ATOM     14  O   UNL     1       6.325   3.456  15.087  0.00  0.00    +0.000 OA
ATOM     15  H   UNL     1       7.140   2.989  15.358  0.00  0.00    +0.000 HD
ENDBRANCH   9  14
BRANCH  10  16
ATOM     16  O   UNL     1       4.758   5.730  14.622  0.00  0.00    +0.000 OA
ATOM     17  H   UNL     1       5.038   6.344  13.921  0.00  0.00    +0.000 HD
ENDBRANCH  10  16
BRANCH  11  18
ATOM     18  O   UNL     1       6.445   6.688  17.719  0.00  0.00    +0.000 OA
BRANCH  18  19
ATOM     19  C   UNL     1       7.513   7.389  17.279  0.00  0.00    +0.000 C 
ATOM     20  O   UNL     1       8.251   7.063  16.364  0.00  0.00    +0.000 OA
BRANCH  19  21
ATOM     21  C   UNL     1       7.807   8.522  18.194  0.00  0.00    +0.000 C 
ATOM     22  C   UNL     1       8.852   9.346  18.003  0.00  0.00    +0.000 C 
BRANCH  22  23
ATOM     23  C   UNL     1       9.058  10.644  18.662  0.00  0.00    +0.000 A 
ATOM     24  C   UNL     1       9.087  11.869  17.979  0.00  0.00    +0.000 A 
ATOM     25  C   UNL     1       9.328  13.070  18.670  0.00  0.00    +0.000 A 
ATOM     26  C   UNL     1       9.533  13.034  20.043  0.00  0.00    +0.000 A 
ATOM     27  C   UNL     1       9.481  11.825  20.729  0.00  0.00    +0.000 A 
ATOM     28  C   UNL     1       9.240  10.638  20.054  0.00  0.00    +0.000 A 
BRANCH  26  29
ATOM     29  O   UNL     1       9.788  14.164  20.769  0.00  0.00    +0.000 OA
ATOM     30  H   UNL     1       9.774  14.924  20.161  0.00  0.00    +0.000 HD
ENDBRANCH  26  29
BRANCH  27  31
ATOM     31  O   UNL     1       9.679  11.794  22.080  0.00  0.00    +0.000 OA
ATOM     32  H   UNL     1       9.387  12.673  22.392  0.00  0.00    +0.000 HD
ENDBRANCH  27  31
ENDBRANCH  22  23
ENDBRANCH  19  21
ENDBRANCH  18  19
ENDBRANCH  11  18
TORSDOF 8
ENDMDL
MODEL 9
REMARK VINA RESULT:      -7.3      5.454      9.840
REMARK  Name = 
REMARK  10 active torsions:
REMARK  status: ('A' for Active; 'I' for Inactive)
REMARK    1  A    between atoms: C_1  and  C_2
REMARK    2  A    between atoms: C_2  and  C_3
REMARK    3  A    between atoms: C_9  and  O_10
REMARK    4  A    between atoms: C_11  and  O_12
REMARK    5  A    between atoms: C_13  and  O_14
REMARK    6  A    between atoms: O_14  and  C_15
REMARK    7  A    between atoms: C_15  and  C_17
REMARK    8  A    between atoms: C_18  and  C_19
REMARK    9  A    between atoms: C_22  and  O_23
REMARK   10  A    between atoms: C_24  and  O_25
REMARK                            x       y       z     vdW  Elec       q    Type
REMARK                         _______ _______ _______ _____ _____    ______ ____
ROOT
ATOM      1  C   UNL     1       3.619  15.022  18.297  0.00  0.00    +0.000 C 
ATOM      2  C   UNL     1       2.258  14.543  18.788  0.00  0.00    +0.000 C 
ATOM      3  C   UNL     1       1.254  15.692  18.693  0.00  0.00    +0.000 C 
ATOM      4  O   UNL     1       2.374  14.123  20.133  0.00  0.00    +0.000 OA
ATOM      5  C   UNL     1       1.762  12.915  20.235  0.00  0.00    +0.000 C 
ATOM      6  O   UNL     1       1.641  12.315  21.291  0.00  0.00    +0.000 OA
ATOM      7  C   UNL     1       1.235  12.477  18.880  0.00  0.00    +0.000 C 
ATOM      8  C   UNL     1      -0.285  12.642  18.793  0.00  0.00    +0.000 C 
ATOM      9  C   UNL     1      -1.047  11.481  19.415  0.00  0.00    +0.000 C 
ATOM     10  C   UNL     1      -0.631  10.141  18.792  0.00  0.00    +0.000 C 
ATOM     11  C   UNL     1       0.878   9.910  18.991  0.00  0.00    +0.000 C 
ATOM     12  C   UNL     1       1.723  11.079  18.461  0.00  0.00    +0.000 C 
ATOM     13  O   UNL     1       1.838  13.439  17.988  0.00  0.00    +0.000 OA
ENDROOT
BRANCH   9  14
ATOM     14  O   UNL     1      -2.442  11.711  19.217  0.00  0.00    +0.000 OA
ATOM     15  H   UNL     1      -2.736  12.293  19.944  0.00  0.00    +0.000 HD
ENDBRANCH   9  14
BRANCH  10  16
ATOM     16  O   UNL     1      -1.024  10.101  17.415  0.00  0.00    +0.000 OA
ATOM     17  H   UNL     1      -1.902  10.505  17.306  0.00  0.00    +0.000 HD
ENDBRANCH  10  16
BRANCH  11  18
ATOM     18  O   UNL     1       1.044   9.757  20.409  0.00  0.00    +0.000 OA
BRANCH  18  19
ATOM     19  C   UNL     1       0.643   8.592  20.964  0.00  0.00    +0.000 C 
ATOM     20  O   UNL     1      -0.319   8.447  21.700  0.00  0.00    +0.000 OA
BRANCH  19  21
ATOM     21  C   UNL     1       1.655   7.528  20.733  0.00  0.00    +0.000 C 
ATOM     22  C   UNL     1       1.314   6.237  20.577  0.00  0.00    +0.000 C 
BRANCH  22  23
ATOM     23  C   UNL     1       2.187   5.172  20.060  0.00  0.00    +0.000 A 
ATOM     24  C   UNL     1       3.530   5.368  19.708  0.00  0.00    +0.000 A 
ATOM     25  C   UNL     1       4.295   4.311  19.183  0.00  0.00    +0.000 A 
ATOM     26  C   UNL     1       3.709   3.063  19.019  0.00  0.00    +0.000 A 
ATOM     27  C   UNL     1       2.384   2.857  19.389  0.00  0.00    +0.000 A 
ATOM     28  C   UNL     1       1.625   3.894  19.911  0.00  0.00    +0.000 A 
BRANCH  26  29
ATOM     29  O   UNL     1       4.394   2.001  18.500  0.00  0.00    +0.000 OA
ATOM     30  H   UNL     1       5.001   2.337  17.817  0.00  0.00    +0.000 HD
ENDBRANCH  26  29
BRANCH  27  31
ATOM     31  O   UNL     1       1.811   1.628  19.231  0.00  0.00    +0.000 OA
ATOM     32  H   UNL     1       1.718   1.523  18.263  0.00  0.00    +0.000 HD
ENDBRANCH  27  31
ENDBRANCH  22  23
ENDBRANCH  19  21
ENDBRANCH  18  19
ENDBRANCH  11  18
TORSDOF 8
ENDMDL
