MODEL 1
REMARK VINA RESULT:      -6.6      0.000      0.000
REMARK  Name = 
REMARK  8 active torsions:
REMARK  status: ('A' for Active; 'I' for Inactive)
REMARK    1  A    between atoms: C_1  and  C_2
REMARK    2  A    between atoms: C_2  and  C_3
REMARK    3  A    between atoms: C_3  and  C_4
REMARK    4  A    between atoms: C_3  and  C_6
REMARK    5  A    between atoms: C_4  and  C_5
REMARK    6  A    between atoms: C_7  and  C_8
REMARK    7  A    between atoms: C_10  and  N_11
REMARK    8  A    between atoms: C_16  and  C_17
REMARK                            x       y       z     vdW  Elec       q    Type
REMARK                         _______ _______ _______ _____ _____    ______ ____
ROOT
ATOM      1  C   UNL     1       3.357   6.177  19.269  0.00  0.00    +0.000 C 
ATOM      2  C   UNL     1       4.485   6.039  18.220  0.00  0.00    +0.000 C 
ATOM      3  C   UNL     1       4.553   6.790  17.087  0.00  0.00    +0.000 C 
ATOM      4  O   UNL     1       3.626   7.795  16.808  0.00  0.00    +0.000 OA
ATOM      5  C   UNL     1       2.741   8.108  17.769  0.00  0.00    +0.000 A 
ATOM      6  N   UNL     1       1.959   9.166  17.615  0.00  0.00    +0.000 NA
ATOM      7  N   UNL     1       1.286   9.196  18.776  0.00  0.00    +0.000 N 
ATOM      8  C   UNL     1       1.668   8.219  19.671  0.00  0.00    +0.000 A 
ATOM      9  C   UNL     1       1.127   8.223  21.050  0.00  0.00    +0.000 C 
ATOM     10  C   UNL     1       2.565   7.417  18.980  0.00  0.00    +0.000 A 
ATOM     11  H   UNL     1       0.594   9.927  18.907  0.00  0.00    +0.000 HD
ENDROOT
BRANCH   3  12
ATOM     12  N   UNL     1       5.501   6.658  16.091  0.00  0.00    +0.000 N 
ATOM     13  H   UNL     1       6.324   6.116  16.341  0.00  0.00    +0.000 HD
ATOM     14  H   UNL     1       5.077   6.357  15.216  0.00  0.00    +0.000 HD
ENDBRANCH   3  12
BRANCH   2  15
ATOM     15  C   UNL     1       5.495   5.061  18.474  0.00  0.00    +0.000 C 
ATOM     16  N   UNL     1       6.338   4.289  18.651  0.00  0.00    +0.000 NA
ENDBRANCH   2  15
BRANCH   1  17
ATOM     17  C   UNL     1       2.527   4.835  19.337  0.00  0.00    +0.000 C 
BRANCH  17  19
ATOM     18  C   UNL     1       2.333   3.256  17.244  0.00  0.00    +0.000 C 
ATOM     19  C   UNL     1       1.792   4.449  18.022  0.00  0.00    +0.000 C 
ENDBRANCH  17  19
BRANCH  17  20
ATOM     20  C   UNL     1       1.624   4.740  20.584  0.00  0.00    +0.000 C 
ATOM     21  C   UNL     1       1.271   3.308  20.984  0.00  0.00    +0.000 C 
ENDBRANCH  17  20
ENDBRANCH   1  17
TORSDOF 5
ENDMDL
MODEL 2
REMARK VINA RESULT:      -6.4      1.838      2.561
REMARK  Name = 
REMARK  8 active torsions:
REMARK  status: ('A' for Active; 'I' for Inactive)
REMARK    1  A    between atoms: C_1  and  C_2
REMARK    2  A    between atoms: C_2  and  C_3
REMARK    3  A    between atoms: C_3  and  C_4
REMARK    4  A    between atoms: C_3  and  C_6
REMARK    5  A    between atoms: C_4  and  C_5
REMARK    6  A    between atoms: C_7  and  C_8
REMARK    7  A    between atoms: C_10  and  N_11
REMARK    8  A    between atoms: C_16  and  C_17
REMARK                            x       y       z     vdW  Elec       q    Type
REMARK                         _______ _______ _______ _____ _____    ______ ____
ROOT
ATOM      1  C   UNL     1       3.844   4.310  18.238  0.00  0.00    +0.000 C 
ATOM      2  C   UNL     1       4.627   5.035  17.118  0.00  0.00    +0.000 C 
ATOM      3  C   UNL     1       4.465   6.353  16.819  0.00  0.00    +0.000 C 
ATOM      4  O   UNL     1       3.606   7.176  17.548  0.00  0.00    +0.000 OA
ATOM      5  C   UNL     1       3.050   6.666  18.659  0.00  0.00    +0.000 A 
ATOM      6  N   UNL     1       2.369   7.461  19.471  0.00  0.00    +0.000 NA
ATOM      7  N   UNL     1       2.041   6.632  20.474  0.00  0.00    +0.000 N 
ATOM      8  C   UNL     1       2.547   5.357  20.337  0.00  0.00    +0.000 A 
ATOM      9  C   UNL     1       2.400   4.377  21.438  0.00  0.00    +0.000 C 
ATOM     10  C   UNL     1       3.136   5.328  19.081  0.00  0.00    +0.000 A 
ATOM     11  H   UNL     1       1.489   7.006  21.239  0.00  0.00    +0.000 HD
ENDROOT
BRANCH   3  12
ATOM     12  N   UNL     1       5.091   7.026  15.789  0.00  0.00    +0.000 N 
ATOM     13  H   UNL     1       5.719   7.772  16.072  0.00  0.00    +0.000 HD
ATOM     14  H   UNL     1       5.517   6.377  15.129  0.00  0.00    +0.000 HD
ENDBRANCH   3  12
BRANCH   2  15
ATOM     15  C   UNL     1       5.562   4.256  16.368  0.00  0.00    +0.000 C 
ATOM     16  N   UNL     1       6.323   3.659  15.734  0.00  0.00    +0.000 NA
ENDBRANCH   2  15
BRANCH   1  17
ATOM     17  C   UNL     1       2.930   3.188  17.606  0.00  0.00    +0.000 C 
BRANCH  17  19
ATOM     18  C   UNL     1       0.634   2.561  18.723  0.00  0.00    +0.000 C 
ATOM     19  C   UNL     1       1.400   3.435  17.738  0.00  0.00    +0.000 C 
ENDBRANCH  17  19
BRANCH  17  20
ATOM     20  C   UNL     1       3.349   1.761  18.015  0.00  0.00    +0.000 C 
ATOM     21  C   UNL     1       4.208   1.707  19.278  0.00  0.00    +0.000 C 
ENDBRANCH  17  20
ENDBRANCH   1  17
TORSDOF 5
ENDMDL
MODEL 3
REMARK VINA RESULT:      -6.2      2.484      4.209
REMARK  Name = 
REMARK  8 active torsions:
REMARK  status: ('A' for Active; 'I' for Inactive)
REMARK    1  A    between atoms: C_1  and  C_2
REMARK    2  A    between atoms: C_2  and  C_3
REMARK    3  A    between atoms: C_3  and  C_4
REMARK    4  A    between atoms: C_3  and  C_6
REMARK    5  A    between atoms: C_4  and  C_5
REMARK    6  A    between atoms: C_7  and  C_8
REMARK    7  A    between atoms: C_10  and  N_11
REMARK    8  A    between atoms: C_16  and  C_17
REMARK                            x       y       z     vdW  Elec       q    Type
REMARK                         _______ _______ _______ _____ _____    ______ ____
ROOT
ATOM      1  C   UNL     1       2.598   5.519  18.219  0.00  0.00    +0.000 C 
ATOM      2  C   UNL     1       2.057   4.217  18.854  0.00  0.00    +0.000 C 
ATOM      3  C   UNL     1       1.522   4.155  20.105  0.00  0.00    +0.000 C 
ATOM      4  O   UNL     1       1.370   5.292  20.901  0.00  0.00    +0.000 OA
ATOM      5  C   UNL     1       1.628   6.483  20.338  0.00  0.00    +0.000 A 
ATOM      6  N   UNL     1       1.333   7.593  20.998  0.00  0.00    +0.000 NA
ATOM      7  N   UNL     1       1.656   8.548  20.113  0.00  0.00    +0.000 N 
ATOM      8  C   UNL     1       2.092   8.062  18.897  0.00  0.00    +0.000 A 
ATOM      9  C   UNL     1       2.335   8.992  17.770  0.00  0.00    +0.000 C 
ATOM     10  C   UNL     1       2.180   6.687  19.062  0.00  0.00    +0.000 A 
ATOM     11  H   UNL     1       1.533   9.516  20.389  0.00  0.00    +0.000 HD
ENDROOT
BRANCH   3  12
ATOM     12  N   UNL     1       1.088   3.007  20.738  0.00  0.00    +0.000 N 
ATOM     13  H   UNL     1       0.569   2.357  20.155  0.00  0.00    +0.000 HD
ATOM     14  H   UNL     1       1.845   2.562  21.254  0.00  0.00    +0.000 HD
ENDBRANCH   3  12
BRANCH   2  15
ATOM     15  C   UNL     1       2.138   3.026  18.068  0.00  0.00    +0.000 C 
ATOM     16  N   UNL     1       2.205   2.087  17.395  0.00  0.00    +0.000 NA
ENDBRANCH   2  15
BRANCH   1  17
ATOM     17  C   UNL     1       4.150   5.380  17.963  0.00  0.00    +0.000 C 
BRANCH  17  19
ATOM     18  C   UNL     1       6.520   5.489  19.095  0.00  0.00    +0.000 C 
ATOM     19  C   UNL     1       5.021   5.264  19.246  0.00  0.00    +0.000 C 
ENDBRANCH  17  19
BRANCH  17  20
ATOM     20  C   UNL     1       4.694   6.413  16.955  0.00  0.00    +0.000 C 
ATOM     21  C   UNL     1       5.236   5.792  15.667  0.00  0.00    +0.000 C 
ENDBRANCH  17  20
ENDBRANCH   1  17
TORSDOF 5
ENDMDL
MODEL 4
REMARK VINA RESULT:      -6.2      2.380      4.592
REMARK  Name = 
REMARK  8 active torsions:
REMARK  status: ('A' for Active; 'I' for Inactive)
REMARK    1  A    between atoms: C_1  and  C_2
REMARK    2  A    between atoms: C_2  and  C_3
REMARK    3  A    between atoms: C_3  and  C_4
REMARK    4  A    between atoms: C_3  and  C_6
REMARK    5  A    between atoms: C_4  and  C_5
REMARK    6  A    between atoms: C_7  and  C_8
REMARK    7  A    between atoms: C_10  and  N_11
REMARK    8  A    between atoms: C_16  and  C_17
REMARK                            x       y       z     vdW  Elec       q    Type
REMARK                         _______ _______ _______ _____ _____    ______ ____
ROOT
ATOM      1  C   UNL     1       3.296   5.118  18.252  0.00  0.00    +0.000 C 
ATOM      2  C   UNL     1       4.766   5.167  17.773  0.00  0.00    +0.000 C 
ATOM      3  C   UNL     1       5.764   4.430  18.332  0.00  0.00    +0.000 C 
ATOM      4  O   UNL     1       5.524   3.519  19.361  0.00  0.00    +0.000 OA
ATOM      5  C   UNL     1       4.244   3.274  19.688  0.00  0.00    +0.000 A 
ATOM      6  N   UNL     1       3.963   2.295  20.534  0.00  0.00    +0.000 NA
ATOM      7  N   UNL     1       2.622   2.309  20.555  0.00  0.00    +0.000 N 
ATOM      8  C   UNL     1       2.058   3.234  19.701  0.00  0.00    +0.000 A 
ATOM      9  C   UNL     1       0.590   3.259  19.499  0.00  0.00    +0.000 C 
ATOM     10  C   UNL     1       3.123   3.960  19.190  0.00  0.00    +0.000 A 
ATOM     11  H   UNL     1       2.147   1.644  21.156  0.00  0.00    +0.000 HD
ENDROOT
BRANCH   3  12
ATOM     12  N   UNL     1       7.099   4.489  17.983  0.00  0.00    +0.000 N 
ATOM     13  H   UNL     1       7.431   5.400  17.680  0.00  0.00    +0.000 HD
ATOM     14  H   UNL     1       7.687   4.071  18.702  0.00  0.00    +0.000 HD
ENDBRANCH   3  12
BRANCH   2  15
ATOM     15  C   UNL     1       5.067   6.045  16.686  0.00  0.00    +0.000 C 
ATOM     16  N   UNL     1       5.295   6.726  15.779  0.00  0.00    +0.000 NA
ENDBRANCH   2  15
BRANCH   1  17
ATOM     17  C   UNL     1       2.876   6.530  18.823  0.00  0.00    +0.000 C 
BRANCH  17  19
ATOM     18  C   UNL     1       1.551   7.742  20.742  0.00  0.00    +0.000 C 
ATOM     19  C   UNL     1       2.320   6.513  20.275  0.00  0.00    +0.000 C 
ENDBRANCH  17  19
BRANCH  17  20
ATOM     20  C   UNL     1       1.998   7.342  17.849  0.00  0.00    +0.000 C 
ATOM     21  C   UNL     1       2.472   8.780  17.642  0.00  0.00    +0.000 C 
ENDBRANCH  17  20
ENDBRANCH   1  17
TORSDOF 5
ENDMDL
MODEL 5
REMARK VINA RESULT:      -6.1      0.538      1.578
REMARK  Name = 
REMARK  8 active torsions:
REMARK  status: ('A' for Active; 'I' for Inactive)
REMARK    1  A    between atoms: C_1  and  C_2
REMARK    2  A    between atoms: C_2  and  C_3
REMARK    3  A    between atoms: C_3  and  C_4
REMARK    4  A    between atoms: C_3  and  C_6
REMARK    5  A    between atoms: C_4  and  C_5
REMARK    6  A    between atoms: C_7  and  C_8
REMARK    7  A    between atoms: C_10  and  N_11
REMARK    8  A    between atoms: C_16  and  C_17
REMARK                            x       y       z     vdW  Elec       q    Type
REMARK                         _______ _______ _______ _____ _____    ______ ____
ROOT
ATOM      1  C   UNL     1       3.018   6.107  19.517  0.00  0.00    +0.000 C 
ATOM      2  C   UNL     1       4.165   5.901  18.501  0.00  0.00    +0.000 C 
ATOM      3  C   UNL     1       4.339   6.675  17.395  0.00  0.00    +0.000 C 
ATOM      4  O   UNL     1       3.512   7.765  17.118  0.00  0.00    +0.000 OA
ATOM      5  C   UNL     1       2.625   8.127  18.060  0.00  0.00    +0.000 A 
ATOM      6  N   UNL     1       1.944   9.254  17.915  0.00  0.00    +0.000 NA
ATOM      7  N   UNL     1       1.236   9.310  19.053  0.00  0.00    +0.000 N 
ATOM      8  C   UNL     1       1.501   8.278  19.929  0.00  0.00    +0.000 A 
ATOM      9  C   UNL     1       0.914   8.290  21.289  0.00  0.00    +0.000 C 
ATOM     10  C   UNL     1       2.347   7.420  19.242  0.00  0.00    +0.000 A 
ATOM     11  H   UNL     1       0.606  10.094  19.185  0.00  0.00    +0.000 HD
ENDROOT
BRANCH   3  12
ATOM     12  N   UNL     1       5.306   6.489  16.427  0.00  0.00    +0.000 N 
ATOM     13  H   UNL     1       6.200   6.933  16.612  0.00  0.00    +0.000 HD
ATOM     14  H   UNL     1       5.394   5.505  16.179  0.00  0.00    +0.000 HD
ENDBRANCH   3  12
BRANCH   2  15
ATOM     15  C   UNL     1       5.077   4.830  18.757  0.00  0.00    +0.000 C 
ATOM     16  N   UNL     1       5.806   3.968  19.006  0.00  0.00    +0.000 NA
ENDBRANCH   2  15
BRANCH   1  17
ATOM     17  C   UNL     1       2.073   4.842  19.516  0.00  0.00    +0.000 C 
BRANCH  17  19
ATOM     18  C   UNL     1       1.465   3.130  21.416  0.00  0.00    +0.000 C 
ATOM     19  C   UNL     1       2.513   3.690  20.464  0.00  0.00    +0.000 C 
ENDBRANCH  17  19
BRANCH  17  20
ATOM     20  C   UNL     1       1.713   4.353  18.098  0.00  0.00    +0.000 C 
ATOM     21  C   UNL     1       2.094   2.896  17.832  0.00  0.00    +0.000 C 
ENDBRANCH  17  20
ENDBRANCH   1  17
TORSDOF 5
ENDMDL
MODEL 6
REMARK VINA RESULT:      -6.0      1.573      2.332
REMARK  Name = 
REMARK  8 active torsions:
REMARK  status: ('A' for Active; 'I' for Inactive)
REMARK    1  A    between atoms: C_1  and  C_2
REMARK    2  A    between atoms: C_2  and  C_3
REMARK    3  A    between atoms: C_3  and  C_4
REMARK    4  A    between atoms: C_3  and  C_6
REMARK    5  A    between atoms: C_4  and  C_5
REMARK    6  A    between atoms: C_7  and  C_8
REMARK    7  A    between atoms: C_10  and  N_11
REMARK    8  A    between atoms: C_16  and  C_17
REMARK                            x       y       z     vdW  Elec       q    Type
REMARK                         _______ _______ _______ _____ _____    ______ ____
ROOT
ATOM      1  C   UNL     1       2.849   5.012  19.671  0.00  0.00    +0.000 C 
ATOM      2  C   UNL     1       4.004   4.256  18.974  0.00  0.00    +0.000 C 
ATOM      3  C   UNL     1       4.637   4.712  17.859  0.00  0.00    +0.000 C 
ATOM      4  O   UNL     1       4.323   5.943  17.282  0.00  0.00    +0.000 OA
ATOM      5  C   UNL     1       3.476   6.744  17.949  0.00  0.00    +0.000 A 
ATOM      6  N   UNL     1       3.284   7.986  17.528  0.00  0.00    +0.000 NA
ATOM      7  N   UNL     1       2.456   8.480  18.460  0.00  0.00    +0.000 N 
ATOM      8  C   UNL     1       2.171   7.598  19.482  0.00  0.00    +0.000 A 
ATOM      9  C   UNL     1       1.398   8.053  20.661  0.00  0.00    +0.000 C 
ATOM     10  C   UNL     1       2.757   6.398  19.106  0.00  0.00    +0.000 A 
ATOM     11  H   UNL     1       2.139   9.438  18.356  0.00  0.00    +0.000 HD
ENDROOT
BRANCH   3  12
ATOM     12  N   UNL     1       5.626   4.043  17.166  0.00  0.00    +0.000 N 
ATOM     13  H   UNL     1       6.527   3.988  17.633  0.00  0.00    +0.000 HD
ATOM     14  H   UNL     1       5.295   3.139  16.833  0.00  0.00    +0.000 HD
ENDBRANCH   3  12
BRANCH   2  15
ATOM     15  C   UNL     1       4.407   3.011  19.549  0.00  0.00    +0.000 C 
ATOM     16  N   UNL     1       4.757   1.995  19.978  0.00  0.00    +0.000 NA
ENDBRANCH   2  15
BRANCH   1  17
ATOM     17  C   UNL     1       1.527   4.152  19.592  0.00  0.00    +0.000 C 
BRANCH  17  19
ATOM     18  C   UNL     1       2.207   3.380  22.011  0.00  0.00    +0.000 C 
ATOM     19  C   UNL     1       1.189   3.345  20.878  0.00  0.00    +0.000 C 
ENDBRANCH  17  19
BRANCH  17  20
ATOM     20  C   UNL     1       1.427   3.307  18.306  0.00  0.00    +0.000 C 
ATOM     21  C   UNL     1       1.072   1.841  18.555  0.00  0.00    +0.000 C 
ENDBRANCH  17  20
ENDBRANCH   1  17
TORSDOF 5
ENDMDL
MODEL 7
REMARK VINA RESULT:      -5.9      1.591      2.087
REMARK  Name = 
REMARK  8 active torsions:
REMARK  status: ('A' for Active; 'I' for Inactive)
REMARK    1  A    between atoms: C_1  and  C_2
REMARK    2  A    between atoms: C_2  and  C_3
REMARK    3  A    between atoms: C_3  and  C_4
REMARK    4  A    between atoms: C_3  and  C_6
REMARK    5  A    between atoms: C_4  and  C_5
REMARK    6  A    between atoms: C_7  and  C_8
REMARK    7  A    between atoms: C_10  and  N_11
REMARK    8  A    between atoms: C_16  and  C_17
REMARK                            x       y       z     vdW  Elec       q    Type
REMARK                         _______ _______ _______ _____ _____    ______ ____
ROOT
ATOM      1  C   UNL     1       3.146   4.585  19.823  0.00  0.00    +0.000 C 
ATOM      2  C   UNL     1       4.481   3.952  19.365  0.00  0.00    +0.000 C 
ATOM      3  C   UNL     1       5.275   4.488  18.398  0.00  0.00    +0.000 C 
ATOM      4  O   UNL     1       4.967   5.698  17.774  0.00  0.00    +0.000 OA
ATOM      5  C   UNL     1       3.934   6.404  18.264  0.00  0.00    +0.000 A 
ATOM      6  N   UNL     1       3.715   7.632  17.817  0.00  0.00    +0.000 NA
ATOM      7  N   UNL     1       2.677   8.029  18.570  0.00  0.00    +0.000 N 
ATOM      8  C   UNL     1       2.281   7.103  19.513  0.00  0.00    +0.000 A 
ATOM      9  C   UNL     1       1.254   7.460  20.518  0.00  0.00    +0.000 C 
ATOM     10  C   UNL     1       3.039   5.970  19.256  0.00  0.00    +0.000 A 
ATOM     11  H   UNL     1       2.299   8.956  18.409  0.00  0.00    +0.000 HD
ENDROOT
BRANCH   3  12
ATOM     12  N   UNL     1       6.438   3.926  17.910  0.00  0.00    +0.000 N 
ATOM     13  H   UNL     1       7.216   4.568  17.788  0.00  0.00    +0.000 HD
ATOM     14  H   UNL     1       6.692   3.090  18.434  0.00  0.00    +0.000 HD
ENDBRANCH   3  12
BRANCH   2  15
ATOM     15  C   UNL     1       4.878   2.736  20.003  0.00  0.00    +0.000 C 
ATOM     16  N   UNL     1       5.171   1.731  20.495  0.00  0.00    +0.000 NA
ENDBRANCH   2  15
BRANCH   1  17
ATOM     17  C   UNL     1       1.951   3.611  19.482  0.00  0.00    +0.000 C 
BRANCH  17  19
ATOM     18  C   UNL     1       2.123   3.374  16.870  0.00  0.00    +0.000 C 
ATOM     19  C   UNL     1       1.312   3.819  18.080  0.00  0.00    +0.000 C 
ENDBRANCH  17  19
BRANCH  17  20
ATOM     20  C   UNL     1       0.907   3.510  20.613  0.00  0.00    +0.000 C 
ATOM     21  C   UNL     1       1.394   2.731  21.836  0.00  0.00    +0.000 C 
ENDBRANCH  17  20
ENDBRANCH   1  17
TORSDOF 5
ENDMDL
MODEL 8
REMARK VINA RESULT:      -5.9      2.815      4.680
REMARK  Name = 
REMARK  8 active torsions:
REMARK  status: ('A' for Active; 'I' for Inactive)
REMARK    1  A    between atoms: C_1  and  C_2
REMARK    2  A    between atoms: C_2  and  C_3
REMARK    3  A    between atoms: C_3  and  C_4
REMARK    4  A    between atoms: C_3  and  C_6
REMARK    5  A    between atoms: C_4  and  C_5
REMARK    6  A    between atoms: C_7  and  C_8
REMARK    7  A    between atoms: C_10  and  N_11
REMARK    8  A    between atoms: C_16  and  C_17
REMARK                            x       y       z     vdW  Elec       q    Type
REMARK                         _______ _______ _______ _____ _____    ______ ____
ROOT
ATOM      1  C   UNL     1       5.448   6.389  16.738  0.00  0.00    +0.000 C 
ATOM      2  C   UNL     1       5.930   5.133  15.975  0.00  0.00    +0.000 C 
ATOM      3  C   UNL     1       5.374   3.900  16.127  0.00  0.00    +0.000 C 
ATOM      4  O   UNL     1       4.273   3.683  16.957  0.00  0.00    +0.000 OA
ATOM      5  C   UNL     1       3.675   4.761  17.491  0.00  0.00    +0.000 A 
ATOM      6  N   UNL     1       2.529   4.616  18.141  0.00  0.00    +0.000 NA
ATOM      7  N   UNL     1       2.216   5.883  18.453  0.00  0.00    +0.000 N 
ATOM      8  C   UNL     1       3.105   6.818  17.967  0.00  0.00    +0.000 A 
ATOM      9  C   UNL     1       2.808   8.263  18.098  0.00  0.00    +0.000 C 
ATOM     10  C   UNL     1       4.143   6.084  17.411  0.00  0.00    +0.000 A 
ATOM     11  H   UNL     1       1.364   6.046  18.980  0.00  0.00    +0.000 HD
ENDROOT
BRANCH   3  12
ATOM     12  N   UNL     1       5.811   2.739  15.520  0.00  0.00    +0.000 N 
ATOM     13  H   UNL     1       5.183   1.944  15.593  0.00  0.00    +0.000 HD
ATOM     14  H   UNL     1       6.119   2.917  14.565  0.00  0.00    +0.000 HD
ENDBRANCH   3  12
BRANCH   2  15
ATOM     15  C   UNL     1       7.024   5.301  15.070  0.00  0.00    +0.000 C 
ATOM     16  N   UNL     1       7.881   5.455  14.309  0.00  0.00    +0.000 NA
ENDBRANCH   2  15
BRANCH   1  17
ATOM     17  C   UNL     1       6.600   6.912  17.682  0.00  0.00    +0.000 C 
BRANCH  17  19
ATOM     18  C   UNL     1       8.290   8.873  18.136  0.00  0.00    +0.000 C 
ATOM     19  C   UNL     1       7.362   8.163  17.160  0.00  0.00    +0.000 C 
ENDBRANCH  17  19
BRANCH  17  20
ATOM     20  C   UNL     1       7.542   5.792  18.171  0.00  0.00    +0.000 C 
ATOM     21  C   UNL     1       7.540   5.601  19.687  0.00  0.00    +0.000 C 
ENDBRANCH  17  20
ENDBRANCH   1  17
TORSDOF 5
ENDMDL
MODEL 9
REMARK VINA RESULT:      -5.9      2.469      3.902
REMARK  Name = 
REMARK  8 active torsions:
REMARK  status: ('A' for Active; 'I' for Inactive)
REMARK    1  A    between atoms: C_1  and  C_2
REMARK    2  A    between atoms: C_2  and  C_3
REMARK    3  A    between atoms: C_3  and  C_4
REMARK    4  A    between atoms: C_3  and  C_6
REMARK    5  A    between atoms: C_4  and  C_5
REMARK    6  A    between atoms: C_7  and  C_8
REMARK    7  A    between atoms: C_10  and  N_11
REMARK    8  A    between atoms: C_16  and  C_17
REMARK                            x       y       z     vdW  Elec       q    Type
REMARK                         _______ _______ _______ _____ _____    ______ ____
ROOT
ATOM      1  C   UNL     1       2.679   5.620  18.236  0.00  0.00    +0.000 C 
ATOM      2  C   UNL     1       2.210   4.292  18.876  0.00  0.00    +0.000 C 
ATOM      3  C   UNL     1       1.695   4.205  20.134  0.00  0.00    +0.000 C 
ATOM      4  O   UNL     1       1.499   5.332  20.933  0.00  0.00    +0.000 OA
ATOM      5  C   UNL     1       1.692   6.535  20.368  0.00  0.00    +0.000 A 
ATOM      6  N   UNL     1       1.352   7.629  21.034  0.00  0.00    +0.000 NA
ATOM      7  N   UNL     1       1.617   8.599  20.145  0.00  0.00    +0.000 N 
ATOM      8  C   UNL     1       2.059   8.135  18.924  0.00  0.00    +0.000 A 
ATOM      9  C   UNL     1       2.243   9.076  17.794  0.00  0.00    +0.000 C 
ATOM     10  C   UNL     1       2.216   6.766  19.085  0.00  0.00    +0.000 A 
ATOM     11  H   UNL     1       1.451   9.560  20.425  0.00  0.00    +0.000 HD
ENDROOT
BRANCH   3  12
ATOM     12  N   UNL     1       1.325   3.037  20.771  0.00  0.00    +0.000 N 
ATOM     13  H   UNL     1       2.087   2.407  21.006  0.00  0.00    +0.000 HD
ATOM     14  H   UNL     1       0.709   3.226  21.560  0.00  0.00    +0.000 HD
ENDBRANCH   3  12
BRANCH   2  15
ATOM     15  C   UNL     1       2.337   3.108  18.087  0.00  0.00    +0.000 C 
ATOM     16  N   UNL     1       2.410   2.164  17.422  0.00  0.00    +0.000 NA
ENDBRANCH   2  15
BRANCH   1  17
ATOM     17  C   UNL     1       4.232   5.556  17.959  0.00  0.00    +0.000 C 
BRANCH  17  19
ATOM     18  C   UNL     1       5.352   5.829  15.596  0.00  0.00    +0.000 C 
ATOM     19  C   UNL     1       4.631   4.930  16.592  0.00  0.00    +0.000 C 
ENDBRANCH  17  19
BRANCH  17  20
ATOM     20  C   UNL     1       5.038   4.985  19.143  0.00  0.00    +0.000 C 
ATOM     21  C   UNL     1       6.503   5.423  19.162  0.00  0.00    +0.000 C 
ENDBRANCH  17  20
ENDBRANCH   1  17
TORSDOF 5
ENDMDL
