MODEL 1
REMARK VINA RESULT:      -7.6      0.000      0.000
REMARK  Name = 
REMARK  4 active torsions:
REMARK  status: ('A' for Active; 'I' for Inactive)
REMARK    1  A    between atoms: C_1  and  S_2
REMARK    2  A    between atoms: S_2  and  C_5
REMARK    3  A    between atoms: C_5  and  C_6
REMARK    4  A    between atoms: C_8  and  C_9
REMARK                            x       y       z     vdW  Elec       q    Type
REMARK                         _______ _______ _______ _____ _____    ______ ____
ROOT
ATOM      1  C   UNL     1      -5.062  13.473  22.554  0.00  0.00    +0.000 A 
ATOM      2  N   UNL     1      -4.076  12.604  22.254  0.00  0.00    +0.000 NA
ATOM      3  C   UNL     1      -2.781  12.944  22.516  0.00  0.00    +0.000 A 
ATOM      4  N   UNL     1      -2.400  14.118  23.081  0.00  0.00    +0.000 NA
ATOM      5  C   UNL     1      -3.376  15.018  23.355  0.00  0.00    +0.000 A 
ATOM      6  C   UNL     1      -4.733  14.695  23.120  0.00  0.00    +0.000 A 
ATOM      7  O   UNL     1      -5.773  15.530  23.416  0.00  0.00    +0.000 OA
ATOM      8  C   UNL     1      -5.422  16.607  24.275  0.00  0.00    +0.000 C 
ATOM      9  C   UNL     1      -4.192  17.274  23.684  0.00  0.00    +0.000 C 
ATOM     10  C   UNL     1      -3.963  18.629  24.334  0.00  0.00    +0.000 C 
ATOM     11  O   UNL     1      -3.417  18.488  25.637  0.00  0.00    +0.000 OA
ATOM     12  C   UNL     1      -2.132  17.863  25.614  0.00  0.00    +0.000 C 
ATOM     13  C   UNL     1      -1.980  16.580  24.745  0.00  0.00    +0.000 C 
ATOM     14  N   UNL     1      -3.067  16.329  23.798  0.00  0.00    +0.000 N 
ENDROOT
BRANCH   3  15
ATOM     15  C   UNL     1      -1.795  11.915  22.088  0.00  0.00    +0.000 A 
ATOM     16  C   UNL     1      -1.241  11.014  23.042  0.00  0.00    +0.000 A 
ATOM     17  C   UNL     1      -0.382   9.980  22.698  0.00  0.00    +0.000 A 
ATOM     18  F   UNL     1       0.081   9.164  23.655  0.00  0.00    +0.000 F 
ATOM     19  C   UNL     1      -0.005   9.768  21.385  0.00  0.00    +0.000 A 
ATOM     20  C   UNL     1      -0.517  10.634  20.432  0.00  0.00    +0.000 A 
ATOM     21  N   UNL     1      -0.312  10.637  19.064  0.00  0.00    +0.000 N 
ATOM     22  C   UNL     1      -1.024  11.650  18.484  0.00  0.00    +0.000 A 
ATOM     23  C   UNL     1      -1.695  12.319  19.483  0.00  0.00    +0.000 A 
ATOM     24  C   UNL     1      -1.401  11.706  20.731  0.00  0.00    +0.000 A 
ATOM     25  H   UNL     1       0.271   9.971  18.573  0.00  0.00    +0.000 HD
ENDBRANCH   3  15
BRANCH   1  26
ATOM     26  C   UNL     1      -6.510  13.038  22.246  0.00  0.00    +0.000 C 
ATOM     27  C   UNL     1      -7.367  14.220  21.731  0.00  0.00    +0.000 C 
ATOM     28  C   UNL     1      -6.981  14.589  20.299  0.00  0.00    +0.000 C 
ATOM     29  O   UNL     1      -7.091  13.472  19.418  0.00  0.00    +0.000 OA
ATOM     30  C   UNL     1      -6.282  12.369  19.817  0.00  0.00    +0.000 C 
ATOM     31  C   UNL     1      -6.724  11.907  21.195  0.00  0.00    +0.000 C 
BRANCH  26  33
ATOM     32  C   UNL     1      -5.794  12.068  24.904  0.00  0.00    +0.000 C 
ATOM     33  S   UNL     1      -7.176  12.401  23.835  0.00  0.00    +0.000 S 
ATOM     34  O   UNL     1      -7.855  11.138  23.605  0.00  0.00    +0.000 OA
ATOM     35  O   UNL     1      -7.911  13.481  24.474  0.00  0.00    +0.000 OA
ENDBRANCH  26  33
ENDBRANCH   1  26
TORSDOF 3
ENDMDL
MODEL 2
REMARK VINA RESULT:      -7.5      0.995      1.120
REMARK  Name = 
REMARK  4 active torsions:
REMARK  status: ('A' for Active; 'I' for Inactive)
REMARK    1  A    between atoms: C_1  and  S_2
REMARK    2  A    between atoms: S_2  and  C_5
REMARK    3  A    between atoms: C_5  and  C_6
REMARK    4  A    between atoms: C_8  and  C_9
REMARK                            x       y       z     vdW  Elec       q    Type
REMARK                         _______ _______ _______ _____ _____    ______ ____
ROOT
ATOM      1  C   UNL     1      -4.430  13.773  22.532  0.00  0.00    +0.000 A 
ATOM      2  N   UNL     1      -3.557  12.791  22.227  0.00  0.00    +0.000 NA
ATOM      3  C   UNL     1      -2.243  12.935  22.565  0.00  0.00    +0.000 A 
ATOM      4  N   UNL     1      -1.735  14.015  23.213  0.00  0.00    +0.000 NA
ATOM      5  C   UNL     1      -2.592  15.027  23.494  0.00  0.00    +0.000 A 
ATOM      6  C   UNL     1      -3.966  14.908  23.180  0.00  0.00    +0.000 A 
ATOM      7  O   UNL     1      -4.897  15.863  23.477  0.00  0.00    +0.000 OA
ATOM      8  C   UNL     1      -4.447  16.836  24.410  0.00  0.00    +0.000 C 
ATOM      9  C   UNL     1      -3.109  17.354  23.913  0.00  0.00    +0.000 C 
ATOM     10  C   UNL     1      -2.731  18.631  24.648  0.00  0.00    +0.000 C 
ATOM     11  O   UNL     1      -2.278  18.351  25.964  0.00  0.00    +0.000 OA
ATOM     12  C   UNL     1      -1.091  17.554  25.962  0.00  0.00    +0.000 C 
ATOM     13  C   UNL     1      -1.070  16.308  25.030  0.00  0.00    +0.000 C 
ATOM     14  N   UNL     1      -2.131  16.259  24.023  0.00  0.00    +0.000 N 
ENDROOT
BRANCH   3  15
ATOM     15  C   UNL     1      -1.386  11.801  22.124  0.00  0.00    +0.000 A 
ATOM     16  C   UNL     1      -0.858  10.888  23.081  0.00  0.00    +0.000 A 
ATOM     17  C   UNL     1      -0.123   9.764  22.731  0.00  0.00    +0.000 A 
ATOM     18  F   UNL     1       0.322   8.943  23.693  0.00  0.00    +0.000 F 
ATOM     19  C   UNL     1       0.149   9.469  21.409  0.00  0.00    +0.000 A 
ATOM     20  C   UNL     1      -0.339  10.344  20.451  0.00  0.00    +0.000 A 
ATOM     21  N   UNL     1      -0.220  10.277  19.075  0.00  0.00    +0.000 N 
ATOM     22  C   UNL     1      -0.870  11.332  18.495  0.00  0.00    +0.000 A 
ATOM     23  C   UNL     1      -1.413  12.098  19.503  0.00  0.00    +0.000 A 
ATOM     24  C   UNL     1      -1.099  11.506  20.756  0.00  0.00    +0.000 A 
ATOM     25  H   UNL     1       0.266   9.542  18.578  0.00  0.00    +0.000 HD
ENDBRANCH   3  15
BRANCH   1  26
ATOM     26  C   UNL     1      -5.906  13.560  22.136  0.00  0.00    +0.000 C 
ATOM     27  C   UNL     1      -6.565  14.873  21.648  0.00  0.00    +0.000 C 
ATOM     28  C   UNL     1      -6.058  15.253  20.258  0.00  0.00    +0.000 C 
ATOM     29  O   UNL     1      -6.273  14.206  19.312  0.00  0.00    +0.000 OA
ATOM     30  C   UNL     1      -5.644  12.983  19.686  0.00  0.00    +0.000 C 
ATOM     31  C   UNL     1      -6.216  12.521  21.015  0.00  0.00    +0.000 C 
BRANCH  26  33
ATOM     32  C   UNL     1      -7.916  11.711  23.164  0.00  0.00    +0.000 C 
ATOM     33  S   UNL     1      -6.734  12.946  23.656  0.00  0.00    +0.000 S 
ATOM     34  O   UNL     1      -7.478  14.030  24.274  0.00  0.00    +0.000 OA
ATOM     35  O   UNL     1      -5.742  12.241  24.449  0.00  0.00    +0.000 OA
ENDBRANCH  26  33
ENDBRANCH   1  26
TORSDOF 3
ENDMDL
MODEL 3
REMARK VINA RESULT:      -7.4     10.967     13.635
REMARK  Name = 
REMARK  4 active torsions:
REMARK  status: ('A' for Active; 'I' for Inactive)
REMARK    1  A    between atoms: C_1  and  S_2
REMARK    2  A    between atoms: S_2  and  C_5
REMARK    3  A    between atoms: C_5  and  C_6
REMARK    4  A    between atoms: C_8  and  C_9
REMARK                            x       y       z     vdW  Elec       q    Type
REMARK                         _______ _______ _______ _____ _____    ______ ____
ROOT
ATOM      1  C   UNL     1       8.843  14.314  20.082  0.00  0.00    +0.000 A 
ATOM      2  N   UNL     1       9.039  14.231  21.414  0.00  0.00    +0.000 NA
ATOM      3  C   UNL     1       7.982  14.405  22.258  0.00  0.00    +0.000 A 
ATOM      4  N   UNL     1       6.711  14.653  21.850  0.00  0.00    +0.000 NA
ATOM      5  C   UNL     1       6.504  14.777  20.515  0.00  0.00    +0.000 A 
ATOM      6  C   UNL     1       7.568  14.581  19.605  0.00  0.00    +0.000 A 
ATOM      7  O   UNL     1       7.425  14.641  18.248  0.00  0.00    +0.000 OA
ATOM      8  C   UNL     1       6.076  14.589  17.807  0.00  0.00    +0.000 C 
ATOM      9  C   UNL     1       5.303  15.632  18.595  0.00  0.00    +0.000 C 
ATOM     10  C   UNL     1       3.951  15.888  17.949  0.00  0.00    +0.000 C 
ATOM     11  O   UNL     1       3.044  14.829  18.217  0.00  0.00    +0.000 OA
ATOM     12  C   UNL     1       2.772  14.700  19.615  0.00  0.00    +0.000 C 
ATOM     13  C   UNL     1       3.991  14.723  20.583  0.00  0.00    +0.000 C 
ATOM     14  N   UNL     1       5.249  15.189  19.999  0.00  0.00    +0.000 N 
ENDROOT
BRANCH   3  15
ATOM     15  C   UNL     1       8.350  14.337  23.699  0.00  0.00    +0.000 A 
ATOM     16  C   UNL     1       9.104  15.387  24.296  0.00  0.00    +0.000 A 
ATOM     17  C   UNL     1       9.409  15.426  25.649  0.00  0.00    +0.000 A 
ATOM     18  F   UNL     1      10.107  16.462  26.136  0.00  0.00    +0.000 F 
ATOM     19  C   UNL     1       8.995  14.425  26.506  0.00  0.00    +0.000 A 
ATOM     20  C   UNL     1       8.269  13.380  25.956  0.00  0.00    +0.000 A 
ATOM     21  N   UNL     1       7.733  12.271  26.585  0.00  0.00    +0.000 N 
ATOM     22  C   UNL     1       7.067  11.493  25.679  0.00  0.00    +0.000 A 
ATOM     23  C   UNL     1       7.175  12.096  24.445  0.00  0.00    +0.000 A 
ATOM     24  C   UNL     1       7.929  13.294  24.579  0.00  0.00    +0.000 A 
ATOM     25  H   UNL     1       7.815  12.081  27.576  0.00  0.00    +0.000 HD
ENDBRANCH   3  15
BRANCH   1  26
ATOM     26  C   UNL     1      10.068  14.101  19.169  0.00  0.00    +0.000 C 
ATOM     27  C   UNL     1      11.233  13.415  19.923  0.00  0.00    +0.000 C 
ATOM     28  C   UNL     1      10.929  11.937  20.165  0.00  0.00    +0.000 C 
ATOM     29  O   UNL     1      10.649  11.248  18.947  0.00  0.00    +0.000 OA
ATOM     30  C   UNL     1       9.550  11.808  18.234  0.00  0.00    +0.000 C 
ATOM     31  C   UNL     1       9.875  13.248  17.878  0.00  0.00    +0.000 C 
BRANCH  26  33
ATOM     32  C   UNL     1      12.333  15.876  18.685  0.00  0.00    +0.000 C 
ATOM     33  S   UNL     1      10.559  15.781  18.612  0.00  0.00    +0.000 S 
ATOM     34  O   UNL     1      10.038  16.771  19.540  0.00  0.00    +0.000 OA
ATOM     35  O   UNL     1      10.220  15.900  17.204  0.00  0.00    +0.000 OA
ENDBRANCH  26  33
ENDBRANCH   1  26
TORSDOF 3
ENDMDL
MODEL 4
REMARK VINA RESULT:      -7.4     10.180     12.887
REMARK  Name = 
REMARK  4 active torsions:
REMARK  status: ('A' for Active; 'I' for Inactive)
REMARK    1  A    between atoms: C_1  and  S_2
REMARK    2  A    between atoms: S_2  and  C_5
REMARK    3  A    between atoms: C_5  and  C_6
REMARK    4  A    between atoms: C_8  and  C_9
REMARK                            x       y       z     vdW  Elec       q    Type
REMARK                         _______ _______ _______ _____ _____    ______ ____
ROOT
ATOM      1  C   UNL     1       6.898  14.799  20.594  0.00  0.00    +0.000 A 
ATOM      2  N   UNL     1       6.684  14.286  21.823  0.00  0.00    +0.000 NA
ATOM      3  C   UNL     1       7.541  13.346  22.314  0.00  0.00    +0.000 A 
ATOM      4  N   UNL     1       8.629  12.881  21.648  0.00  0.00    +0.000 NA
ATOM      5  C   UNL     1       8.837  13.359  20.396  0.00  0.00    +0.000 A 
ATOM      6  C   UNL     1       7.984  14.352  19.859  0.00  0.00    +0.000 A 
ATOM      7  O   UNL     1       8.160  14.916  18.627  0.00  0.00    +0.000 OA
ATOM      8  C   UNL     1       9.440  14.675  18.059  0.00  0.00    +0.000 C 
ATOM      9  C   UNL     1       9.695  13.179  18.140  0.00  0.00    +0.000 C 
ATOM     10  C   UNL     1      10.866  12.795  17.250  0.00  0.00    +0.000 C 
ATOM     11  O   UNL     1      12.104  13.167  17.839  0.00  0.00    +0.000 OA
ATOM     12  C   UNL     1      12.333  12.485  19.074  0.00  0.00    +0.000 C 
ATOM     13  C   UNL     1      11.158  12.443  20.093  0.00  0.00    +0.000 C 
ATOM     14  N   UNL     1       9.850  12.823  19.561  0.00  0.00    +0.000 N 
ENDROOT
BRANCH   3  15
ATOM     15  C   UNL     1       7.157  12.831  23.658  0.00  0.00    +0.000 A 
ATOM     16  C   UNL     1       6.174  11.808  23.778  0.00  0.00    +0.000 A 
ATOM     17  C   UNL     1       5.832  11.226  24.991  0.00  0.00    +0.000 A 
ATOM     18  F   UNL     1       4.908  10.253  25.016  0.00  0.00    +0.000 F 
ATOM     19  C   UNL     1       6.432  11.621  26.171  0.00  0.00    +0.000 A 
ATOM     20  C   UNL     1       7.386  12.624  26.091  0.00  0.00    +0.000 A 
ATOM     21  N   UNL     1       8.136  13.190  27.106  0.00  0.00    +0.000 N 
ATOM     22  C   UNL     1       8.982  14.135  26.595  0.00  0.00    +0.000 A 
ATOM     23  C   UNL     1       8.777  14.191  25.234  0.00  0.00    +0.000 A 
ATOM     24  C   UNL     1       7.774  13.250  24.876  0.00  0.00    +0.000 A 
ATOM     25  H   UNL     1       8.071  12.924  28.080  0.00  0.00    +0.000 HD
ENDBRANCH   3  15
BRANCH   1  26
ATOM     26  C   UNL     1       5.905  15.866  20.087  0.00  0.00    +0.000 C 
ATOM     27  C   UNL     1       5.564  15.667  18.590  0.00  0.00    +0.000 C 
ATOM     28  C   UNL     1       4.647  14.460  18.396  0.00  0.00    +0.000 C 
ATOM     29  O   UNL     1       3.452  14.575  19.169  0.00  0.00    +0.000 OA
ATOM     30  C   UNL     1       3.705  14.710  20.565  0.00  0.00    +0.000 C 
ATOM     31  C   UNL     1       4.521  15.970  20.798  0.00  0.00    +0.000 C 
BRANCH  26  33
ATOM     32  C   UNL     1       5.533  18.623  20.966  0.00  0.00    +0.000 C 
ATOM     33  S   UNL     1       6.745  17.478  20.351  0.00  0.00    +0.000 S 
ATOM     34  O   UNL     1       7.215  17.994  19.076  0.00  0.00    +0.000 OA
ATOM     35  O   UNL     1       7.704  17.308  21.430  0.00  0.00    +0.000 OA
ENDBRANCH  26  33
ENDBRANCH   1  26
TORSDOF 3
ENDMDL
MODEL 5
REMARK VINA RESULT:      -7.4      9.915     12.287
REMARK  Name = 
REMARK  4 active torsions:
REMARK  status: ('A' for Active; 'I' for Inactive)
REMARK    1  A    between atoms: C_1  and  S_2
REMARK    2  A    between atoms: S_2  and  C_5
REMARK    3  A    between atoms: C_5  and  C_6
REMARK    4  A    between atoms: C_8  and  C_9
REMARK                            x       y       z     vdW  Elec       q    Type
REMARK                         _______ _______ _______ _____ _____    ______ ____
ROOT
ATOM      1  C   UNL     1       7.024  14.429  21.687  0.00  0.00    +0.000 A 
ATOM      2  N   UNL     1       8.041  14.222  20.826  0.00  0.00    +0.000 NA
ATOM      3  C   UNL     1       7.836  14.411  19.490  0.00  0.00    +0.000 A 
ATOM      4  N   UNL     1       6.658  14.813  18.948  0.00  0.00    +0.000 NA
ATOM      5  C   UNL     1       5.615  14.990  19.797  0.00  0.00    +0.000 A 
ATOM      6  C   UNL     1       5.792  14.826  21.191  0.00  0.00    +0.000 A 
ATOM      7  O   UNL     1       4.803  15.035  22.110  0.00  0.00    +0.000 OA
ATOM      8  C   UNL     1       3.681  15.741  21.599  0.00  0.00    +0.000 C 
ATOM      9  C   UNL     1       3.252  15.043  20.320  0.00  0.00    +0.000 C 
ATOM     10  C   UNL     1       1.866  15.509  19.903  0.00  0.00    +0.000 C 
ATOM     11  O   UNL     1       1.910  16.808  19.331  0.00  0.00    +0.000 OA
ATOM     12  C   UNL     1       2.690  16.838  18.134  0.00  0.00    +0.000 C 
ATOM     13  C   UNL     1       4.080  16.138  18.171  0.00  0.00    +0.000 C 
ATOM     14  N   UNL     1       4.308  15.254  19.314  0.00  0.00    +0.000 N 
ENDROOT
BRANCH   3  15
ATOM     15  C   UNL     1       9.026  14.098  18.653  0.00  0.00    +0.000 A 
ATOM     16  C   UNL     1       9.393  12.744  18.407  0.00  0.00    +0.000 A 
ATOM     17  C   UNL     1      10.438  12.383  17.569  0.00  0.00    +0.000 A 
ATOM     18  F   UNL     1      10.707  11.083  17.376  0.00  0.00    +0.000 F 
ATOM     19  C   UNL     1      11.200  13.336  16.921  0.00  0.00    +0.000 A 
ATOM     20  C   UNL     1      10.878  14.665  17.148  0.00  0.00    +0.000 A 
ATOM     21  N   UNL     1      11.466  15.801  16.622  0.00  0.00    +0.000 N 
ATOM     22  C   UNL     1      10.828  16.918  17.085  0.00  0.00    +0.000 A 
ATOM     23  C   UNL     1       9.818  16.507  17.928  0.00  0.00    +0.000 A 
ATOM     24  C   UNL     1       9.817  15.088  17.993  0.00  0.00    +0.000 A 
ATOM     25  H   UNL     1      12.245  15.794  15.976  0.00  0.00    +0.000 HD
ENDBRANCH   3  15
BRANCH   1  26
ATOM     26  C   UNL     1       7.309  14.210  23.188  0.00  0.00    +0.000 C 
ATOM     27  C   UNL     1       6.145  13.469  23.891  0.00  0.00    +0.000 C 
ATOM     28  C   UNL     1       6.121  11.994  23.494  0.00  0.00    +0.000 C 
ATOM     29  O   UNL     1       7.363  11.350  23.775  0.00  0.00    +0.000 OA
ATOM     30  C   UNL     1       8.466  11.961  23.111  0.00  0.00    +0.000 C 
ATOM     31  C   UNL     1       8.585  13.402  23.577  0.00  0.00    +0.000 C 
BRANCH  26  33
ATOM     32  C   UNL     1       8.855  15.816  25.071  0.00  0.00    +0.000 C 
ATOM     33  S   UNL     1       7.525  15.892  23.893  0.00  0.00    +0.000 S 
ATOM     34  O   UNL     1       6.326  16.269  24.623  0.00  0.00    +0.000 OA
ATOM     35  O   UNL     1       7.996  16.763  22.830  0.00  0.00    +0.000 OA
ENDBRANCH  26  33
ENDBRANCH   1  26
TORSDOF 3
ENDMDL
MODEL 6
REMARK VINA RESULT:      -7.3     10.071     12.353
REMARK  Name = 
REMARK  4 active torsions:
REMARK  status: ('A' for Active; 'I' for Inactive)
REMARK    1  A    between atoms: C_1  and  S_2
REMARK    2  A    between atoms: S_2  and  C_5
REMARK    3  A    between atoms: C_5  and  C_6
REMARK    4  A    between atoms: C_8  and  C_9
REMARK                            x       y       z     vdW  Elec       q    Type
REMARK                         _______ _______ _______ _____ _____    ______ ____
ROOT
ATOM      1  C   UNL     1       7.134  14.639  21.672  0.00  0.00    +0.000 A 
ATOM      2  N   UNL     1       8.141  14.372  20.815  0.00  0.00    +0.000 NA
ATOM      3  C   UNL     1       7.914  14.447  19.472  0.00  0.00    +0.000 A 
ATOM      4  N   UNL     1       6.723  14.791  18.916  0.00  0.00    +0.000 NA
ATOM      5  C   UNL     1       5.691  15.026  19.764  0.00  0.00    +0.000 A 
ATOM      6  C   UNL     1       5.890  14.980  21.163  0.00  0.00    +0.000 A 
ATOM      7  O   UNL     1       4.912  15.254  22.077  0.00  0.00    +0.000 OA
ATOM      8  C   UNL     1       3.774  15.903  21.527  0.00  0.00    +0.000 C 
ATOM      9  C   UNL     1       3.336  15.098  20.316  0.00  0.00    +0.000 C 
ATOM     10  C   UNL     1       1.938  15.513  19.884  0.00  0.00    +0.000 C 
ATOM     11  O   UNL     1       1.959  16.760  19.206  0.00  0.00    +0.000 OA
ATOM     12  C   UNL     1       2.721  16.699  17.998  0.00  0.00    +0.000 C 
ATOM     13  C   UNL     1       4.119  16.019  18.072  0.00  0.00    +0.000 C 
ATOM     14  N   UNL     1       4.374  15.236  19.281  0.00  0.00    +0.000 N 
ENDROOT
BRANCH   3  15
ATOM     15  C   UNL     1       9.096  14.079  18.645  0.00  0.00    +0.000 A 
ATOM     16  C   UNL     1       9.410  12.709  18.416  0.00  0.00    +0.000 A 
ATOM     17  C   UNL     1      10.445  12.297  17.588  0.00  0.00    +0.000 A 
ATOM     18  F   UNL     1      10.663  10.986  17.410  0.00  0.00    +0.000 F 
ATOM     19  C   UNL     1      11.247  13.213  16.935  0.00  0.00    +0.000 A 
ATOM     20  C   UNL     1      10.977  14.556  17.145  0.00  0.00    +0.000 A 
ATOM     21  N   UNL     1      11.612  15.662  16.611  0.00  0.00    +0.000 N 
ATOM     22  C   UNL     1      11.017  16.808  17.059  0.00  0.00    +0.000 A 
ATOM     23  C   UNL     1       9.986  16.447  17.899  0.00  0.00    +0.000 A 
ATOM     24  C   UNL     1       9.928  15.029  17.980  0.00  0.00    +0.000 A 
ATOM     25  H   UNL     1      12.394  15.618  15.970  0.00  0.00    +0.000 HD
ENDBRANCH   3  15
BRANCH   1  26
ATOM     26  C   UNL     1       7.443  14.548  23.181  0.00  0.00    +0.000 C 
ATOM     27  C   UNL     1       8.957  14.697  23.467  0.00  0.00    +0.000 C 
ATOM     28  C   UNL     1       9.408  16.144  23.277  0.00  0.00    +0.000 C 
ATOM     29  O   UNL     1       8.656  17.043  24.092  0.00  0.00    +0.000 OA
ATOM     30  C   UNL     1       7.256  16.985  23.835  0.00  0.00    +0.000 C 
ATOM     31  C   UNL     1       6.759  15.580  24.128  0.00  0.00    +0.000 C 
BRANCH  26  33
ATOM     32  C   UNL     1       7.717  12.446  25.186  0.00  0.00    +0.000 C 
ATOM     33  S   UNL     1       6.846  12.891  23.701  0.00  0.00    +0.000 S 
ATOM     34  O   UNL     1       7.195  11.909  22.688  0.00  0.00    +0.000 OA
ATOM     35  O   UNL     1       5.452  13.023  24.092  0.00  0.00    +0.000 OA
ENDBRANCH  26  33
ENDBRANCH   1  26
TORSDOF 3
ENDMDL
MODEL 7
REMARK VINA RESULT:      -7.2      1.985      2.566
REMARK  Name = 
REMARK  4 active torsions:
REMARK  status: ('A' for Active; 'I' for Inactive)
REMARK    1  A    between atoms: C_1  and  S_2
REMARK    2  A    between atoms: S_2  and  C_5
REMARK    3  A    between atoms: C_5  and  C_6
REMARK    4  A    between atoms: C_8  and  C_9
REMARK                            x       y       z     vdW  Elec       q    Type
REMARK                         _______ _______ _______ _____ _____    ______ ____
ROOT
ATOM      1  C   UNL     1      -5.017  13.456  21.401  0.00  0.00    +0.000 A 
ATOM      2  N   UNL     1      -4.244  12.598  20.702  0.00  0.00    +0.000 NA
ATOM      3  C   UNL     1      -2.917  12.872  20.543  0.00  0.00    +0.000 A 
ATOM      4  N   UNL     1      -2.295  13.963  21.058  0.00  0.00    +0.000 NA
ATOM      5  C   UNL     1      -3.065  14.854  21.731  0.00  0.00    +0.000 A 
ATOM      6  C   UNL     1      -4.440  14.597  21.937  0.00  0.00    +0.000 A 
ATOM      7  O   UNL     1      -5.267  15.421  22.647  0.00  0.00    +0.000 OA
ATOM      8  C   UNL     1      -4.583  16.384  23.436  0.00  0.00    +0.000 C 
ATOM      9  C   UNL     1      -3.579  17.079  22.532  0.00  0.00    +0.000 C 
ATOM     10  C   UNL     1      -3.061  18.346  23.194  0.00  0.00    +0.000 C 
ATOM     11  O   UNL     1      -2.123  18.045  24.217  0.00  0.00    +0.000 OA
ATOM     12  C   UNL     1      -0.962  17.390  23.701  0.00  0.00    +0.000 C 
ATOM     13  C   UNL     1      -1.190  16.210  22.712  0.00  0.00    +0.000 C 
ATOM     14  N   UNL     1      -2.543  16.097  22.168  0.00  0.00    +0.000 N 
ENDROOT
BRANCH   3  15
ATOM     15  C   UNL     1      -2.197  11.870  19.710  0.00  0.00    +0.000 A 
ATOM     16  C   UNL     1      -2.589  11.648  18.359  0.00  0.00    +0.000 A 
ATOM     17  C   UNL     1      -1.909  10.792  17.504  0.00  0.00    +0.000 A 
ATOM     18  F   UNL     1      -2.332  10.653  16.239  0.00  0.00    +0.000 F 
ATOM     19  C   UNL     1      -0.797  10.089  17.928  0.00  0.00    +0.000 A 
ATOM     20  C   UNL     1      -0.395  10.273  19.242  0.00  0.00    +0.000 A 
ATOM     21  N   UNL     1       0.677   9.707  19.907  0.00  0.00    +0.000 N 
ATOM     22  C   UNL     1       0.734  10.174  21.191  0.00  0.00    +0.000 A 
ATOM     23  C   UNL     1      -0.316  11.049  21.367  0.00  0.00    +0.000 A 
ATOM     24  C   UNL     1      -1.054  11.139  20.156  0.00  0.00    +0.000 A 
ATOM     25  H   UNL     1       1.329   9.055  19.490  0.00  0.00    +0.000 HD
ENDBRANCH   3  15
BRANCH   1  26
ATOM     26  C   UNL     1      -6.509  13.098  21.559  0.00  0.00    +0.000 C 
ATOM     27  C   UNL     1      -7.423  14.322  21.304  0.00  0.00    +0.000 C 
ATOM     28  C   UNL     1      -7.475  14.662  19.816  0.00  0.00    +0.000 C 
ATOM     29  O   UNL     1      -7.905  13.547  19.034  0.00  0.00    +0.000 OA
ATOM     30  C   UNL     1      -7.069  12.404  19.191  0.00  0.00    +0.000 C 
ATOM     31  C   UNL     1      -7.090  11.974  20.648  0.00  0.00    +0.000 C 
BRANCH  26  33
ATOM     32  C   UNL     1      -7.554  13.763  24.201  0.00  0.00    +0.000 C 
ATOM     33  S   UNL     1      -6.687  12.507  23.289  0.00  0.00    +0.000 S 
ATOM     34  O   UNL     1      -5.373  12.368  23.892  0.00  0.00    +0.000 OA
ATOM     35  O   UNL     1      -7.573  11.355  23.276  0.00  0.00    +0.000 OA
ENDBRANCH  26  33
ENDBRANCH   1  26
TORSDOF 3
ENDMDL
MODEL 8
REMARK VINA RESULT:      -7.2     10.383     13.162
REMARK  Name = 
REMARK  4 active torsions:
REMARK  status: ('A' for Active; 'I' for Inactive)
REMARK    1  A    between atoms: C_1  and  S_2
REMARK    2  A    between atoms: S_2  and  C_5
REMARK    3  A    between atoms: C_5  and  C_6
REMARK    4  A    between atoms: C_8  and  C_9
REMARK                            x       y       z     vdW  Elec       q    Type
REMARK                         _______ _______ _______ _____ _____    ______ ____
ROOT
ATOM      1  C   UNL     1       7.236  14.823  20.846  0.00  0.00    +0.000 A 
ATOM      2  N   UNL     1       6.958  14.316  22.064  0.00  0.00    +0.000 NA
ATOM      3  C   UNL     1       7.678  13.253  22.526  0.00  0.00    +0.000 A 
ATOM      4  N   UNL     1       8.686  12.657  21.840  0.00  0.00    +0.000 NA
ATOM      5  C   UNL     1       8.953  13.131  20.598  0.00  0.00    +0.000 A 
ATOM      6  C   UNL     1       8.246  14.246  20.091  0.00  0.00    +0.000 A 
ATOM      7  O   UNL     1       8.493  14.808  18.871  0.00  0.00    +0.000 OA
ATOM      8  C   UNL     1       9.723  14.404  18.287  0.00  0.00    +0.000 C 
ATOM      9  C   UNL     1       9.767  12.886  18.331  0.00  0.00    +0.000 C 
ATOM     10  C   UNL     1      10.868  12.363  17.423  0.00  0.00    +0.000 C 
ATOM     11  O   UNL     1      12.148  12.543  18.010  0.00  0.00    +0.000 OA
ATOM     12  C   UNL     1      12.286  11.807  19.227  0.00  0.00    +0.000 C 
ATOM     13  C   UNL     1      11.121  11.906  20.256  0.00  0.00    +0.000 C 
ATOM     14  N   UNL     1       9.877  12.478  19.743  0.00  0.00    +0.000 N 
ENDROOT
BRANCH   3  15
ATOM     15  C   UNL     1       7.232  12.766  23.861  0.00  0.00    +0.000 A 
ATOM     16  C   UNL     1       6.239  11.750  23.957  0.00  0.00    +0.000 A 
ATOM     17  C   UNL     1       5.840  11.192  25.164  0.00  0.00    +0.000 A 
ATOM     18  F   UNL     1       4.911  10.225  25.166  0.00  0.00    +0.000 F 
ATOM     19  C   UNL     1       6.391  11.606  26.361  0.00  0.00    +0.000 A 
ATOM     20  C   UNL     1       7.353  12.603  26.305  0.00  0.00    +0.000 A 
ATOM     21  N   UNL     1       8.060  13.184  27.342  0.00  0.00    +0.000 N 
ATOM     22  C   UNL     1       8.934  14.115  26.851  0.00  0.00    +0.000 A 
ATOM     23  C   UNL     1       8.789  14.147  25.482  0.00  0.00    +0.000 A 
ATOM     24  C   UNL     1       7.797  13.204  25.097  0.00  0.00    +0.000 A 
ATOM     25  H   UNL     1       7.952  12.936  28.317  0.00  0.00    +0.000 HD
ENDBRANCH   3  15
BRANCH   1  26
ATOM     26  C   UNL     1       6.400  16.030  20.371  0.00  0.00    +0.000 C 
ATOM     27  C   UNL     1       5.875  16.868  21.562  0.00  0.00    +0.000 C 
ATOM     28  C   UNL     1       7.006  17.672  22.203  0.00  0.00    +0.000 C 
ATOM     29  O   UNL     1       7.661  18.512  21.252  0.00  0.00    +0.000 OA
ATOM     30  C   UNL     1       8.210  17.785  20.156  0.00  0.00    +0.000 C 
ATOM     31  C   UNL     1       7.086  17.067  19.430  0.00  0.00    +0.000 C 
BRANCH  26  33
ATOM     32  C   UNL     1       3.921  16.646  18.960  0.00  0.00    +0.000 C 
ATOM     33  S   UNL     1       5.003  15.311  19.421  0.00  0.00    +0.000 S 
ATOM     34  O   UNL     1       4.241  14.418  20.278  0.00  0.00    +0.000 OA
ATOM     35  O   UNL     1       5.534  14.792  18.172  0.00  0.00    +0.000 OA
ENDBRANCH  26  33
ENDBRANCH   1  26
TORSDOF 3
ENDMDL
MODEL 9
REMARK VINA RESULT:      -7.2      2.140      3.215
REMARK  Name = 
REMARK  4 active torsions:
REMARK  status: ('A' for Active; 'I' for Inactive)
REMARK    1  A    between atoms: C_1  and  S_2
REMARK    2  A    between atoms: S_2  and  C_5
REMARK    3  A    between atoms: C_5  and  C_6
REMARK    4  A    between atoms: C_8  and  C_9
REMARK                            x       y       z     vdW  Elec       q    Type
REMARK                         _______ _______ _______ _____ _____    ______ ____
ROOT
ATOM      1  C   UNL     1      -5.110  13.529  20.997  0.00  0.00    +0.000 A 
ATOM      2  N   UNL     1      -4.325  12.754  20.219  0.00  0.00    +0.000 NA
ATOM      3  C   UNL     1      -2.985  12.700  20.466  0.00  0.00    +0.000 A 
ATOM      4  N   UNL     1      -2.364  13.375  21.468  0.00  0.00    +0.000 NA
ATOM      5  C   UNL     1      -3.133  14.186  22.235  0.00  0.00    +0.000 A 
ATOM      6  C   UNL     1      -4.531  14.253  22.027  0.00  0.00    +0.000 A 
ATOM      7  O   UNL     1      -5.375  15.009  22.791  0.00  0.00    +0.000 OA
ATOM      8  C   UNL     1      -4.800  15.464  24.008  0.00  0.00    +0.000 C 
ATOM      9  C   UNL     1      -3.469  16.111  23.665  0.00  0.00    +0.000 C 
ATOM     10  C   UNL     1      -2.959  16.927  24.842  0.00  0.00    +0.000 C 
ATOM     11  O   UNL     1      -2.435  16.088  25.861  0.00  0.00    +0.000 OA
ATOM     12  C   UNL     1      -1.305  15.341  25.407  0.00  0.00    +0.000 C 
ATOM     13  C   UNL     1      -1.429  14.626  24.030  0.00  0.00    +0.000 C 
ATOM     14  N   UNL     1      -2.558  15.050  23.201  0.00  0.00    +0.000 N 
ENDROOT
BRANCH   3  15
ATOM     15  C   UNL     1      -2.235  11.849  19.502  0.00  0.00    +0.000 A 
ATOM     16  C   UNL     1      -0.934  11.372  19.831  0.00  0.00    +0.000 A 
ATOM     17  C   UNL     1      -0.216  10.508  19.015  0.00  0.00    +0.000 A 
ATOM     18  F   UNL     1       0.996  10.089  19.408  0.00  0.00    +0.000 F 
ATOM     19  C   UNL     1      -0.731  10.062  17.813  0.00  0.00    +0.000 A 
ATOM     20  C   UNL     1      -1.991  10.517  17.457  0.00  0.00    +0.000 A 
ATOM     21  N   UNL     1      -2.732  10.220  16.328  0.00  0.00    +0.000 N 
ATOM     22  C   UNL     1      -3.938  10.863  16.374  0.00  0.00    +0.000 A 
ATOM     23  C   UNL     1      -3.982  11.592  17.543  0.00  0.00    +0.000 A 
ATOM     24  C   UNL     1      -2.768  11.399  18.256  0.00  0.00    +0.000 A 
ATOM     25  H   UNL     1      -2.423   9.603  15.588  0.00  0.00    +0.000 HD
ENDBRANCH   3  15
BRANCH   1  26
ATOM     26  C   UNL     1      -6.621  13.550  20.683  0.00  0.00    +0.000 C 
ATOM     27  C   UNL     1      -7.051  12.319  19.848  0.00  0.00    +0.000 C 
ATOM     28  C   UNL     1      -7.063  11.055  20.707  0.00  0.00    +0.000 C 
ATOM     29  O   UNL     1      -7.905  11.201  21.850  0.00  0.00    +0.000 OA
ATOM     30  C   UNL     1      -7.523  12.291  22.684  0.00  0.00    +0.000 C 
ATOM     31  C   UNL     1      -7.614  13.579  21.884  0.00  0.00    +0.000 C 
BRANCH  26  33
ATOM     32  C   UNL     1      -7.917  16.164  20.740  0.00  0.00    +0.000 C 
ATOM     33  S   UNL     1      -6.900  15.101  19.741  0.00  0.00    +0.000 S 
ATOM     34  O   UNL     1      -7.648  14.805  18.530  0.00  0.00    +0.000 OA
ATOM     35  O   UNL     1      -5.623  15.785  19.620  0.00  0.00    +0.000 OA
ENDBRANCH  26  33
ENDBRANCH   1  26
TORSDOF 3
ENDMDL
