MODEL 1
REMARK VINA RESULT:      -8.2      0.000      0.000
REMARK  Name = 
REMARK  8 active torsions:
REMARK  status: ('A' for Active; 'I' for Inactive)
REMARK    1  A    between atoms: C_1  and  O_2
REMARK    2  A    between atoms: O_2  and  C_3
REMARK    3  A    between atoms: C_7  and  C_8
REMARK    4  A    between atoms: C_8  and  N_9
REMARK    5  A    between atoms: N_9  and  C_10
REMARK    6  A    between atoms: N_9  and  S_17
REMARK    7  A    between atoms: S_17  and  C_20
REMARK    8  A    between atoms: C_26  and  C_27
REMARK                            x       y       z     vdW  Elec       q    Type
REMARK                         _______ _______ _______ _____ _____    ______ ____
ROOT
ATOM      1  N   UNL     1       4.237   5.732  18.266  0.00  0.00    +0.000 N 
ENDROOT
BRANCH   1   2
ATOM      2  C   UNL     1       3.448   4.615  18.691  0.00  0.00    +0.000 A 
ATOM      3  C   UNL     1       2.456   4.137  17.831  0.00  0.00    +0.000 A 
ATOM      4  C   UNL     1       1.635   3.077  18.217  0.00  0.00    +0.000 A 
ATOM      5  C   UNL     1       1.803   2.498  19.471  0.00  0.00    +0.000 A 
ATOM      6  C   UNL     1       2.790   2.981  20.325  0.00  0.00    +0.000 A 
ATOM      7  F   UNL     1       2.948   2.422  21.530  0.00  0.00    +0.000 F 
ATOM      8  C   UNL     1       3.614   4.039  19.951  0.00  0.00    +0.000 A 
ENDBRANCH   1   2
BRANCH   1   9
ATOM      9  S   UNL     1       5.873   5.429  17.862  0.00  0.00    +0.000 S 
ATOM     10  O   UNL     1       6.562   6.700  17.887  0.00  0.00    +0.000 OA
ATOM     11  O   UNL     1       6.331   4.360  18.738  0.00  0.00    +0.000 OA
BRANCH   9  12
ATOM     12  C   UNL     1       5.929   4.831  16.206  0.00  0.00    +0.000 A 
ATOM     13  C   UNL     1       4.825   4.037  15.658  0.00  0.00    +0.000 A 
ATOM     14  C   UNL     1       4.858   3.559  14.400  0.00  0.00    +0.000 A 
ATOM     15  C   UNL     1       5.970   3.855  13.569  0.00  0.00    +0.000 A 
ATOM     16  N   UNL     1       6.291   3.478  12.354  0.00  0.00    +0.000 NA
ATOM     17  N   UNL     1       7.402   4.191  11.978  0.00  0.00    +0.000 NA
ATOM     18  C   UNL     1       7.734   4.997  12.968  0.00  0.00    +0.000 A 
ATOM     19  C   UNL     1       8.736   6.084  12.891  0.00  0.00    +0.000 C 
ATOM     20  N   UNL     1       6.925   4.736  14.056  0.00  0.00    +0.000 N 
ATOM     21  C   UNL     1       6.932   5.204  15.375  0.00  0.00    +0.000 A 
ENDBRANCH   9  12
ENDBRANCH   1   9
BRANCH   1  22
ATOM     22  C   UNL     1       3.530   6.875  17.627  0.00  0.00    +0.000 C 
BRANCH  22  27
ATOM     23  C   UNL     1       1.147   9.613  18.811  0.00  0.00    +0.000 A 
ATOM     24  C   UNL     1       0.919   9.248  20.136  0.00  0.00    +0.000 A 
ATOM     25  C   UNL     1       1.481   8.081  20.649  0.00  0.00    +0.000 A 
ATOM     26  C   UNL     1       2.301   7.286  19.844  0.00  0.00    +0.000 A 
ATOM     27  C   UNL     1       2.568   7.645  18.516  0.00  0.00    +0.000 A 
ATOM     28  C   UNL     1       1.929   8.788  17.993  0.00  0.00    +0.000 A 
BRANCH  23  30
ATOM     29  C   UNL     1      -0.648  11.138  19.081  0.00  0.00    +0.000 C 
ATOM     30  O   UNL     1       0.565  10.785  18.420  0.00  0.00    +0.000 OA
ENDBRANCH  23  30
ENDBRANCH  22  27
ENDBRANCH   1  22
TORSDOF 6
ENDMDL
MODEL 2
REMARK VINA RESULT:      -8.1      1.503      2.302
REMARK  Name = 
REMARK  8 active torsions:
REMARK  status: ('A' for Active; 'I' for Inactive)
REMARK    1  A    between atoms: C_1  and  O_2
REMARK    2  A    between atoms: O_2  and  C_3
REMARK    3  A    between atoms: C_7  and  C_8
REMARK    4  A    between atoms: C_8  and  N_9
REMARK    5  A    between atoms: N_9  and  C_10
REMARK    6  A    between atoms: N_9  and  S_17
REMARK    7  A    between atoms: S_17  and  C_20
REMARK    8  A    between atoms: C_26  and  C_27
REMARK                            x       y       z     vdW  Elec       q    Type
REMARK                         _______ _______ _______ _____ _____    ______ ____
ROOT
ATOM      1  N   UNL     1       3.598   5.088  18.864  0.00  0.00    +0.000 N 
ENDROOT
BRANCH   1   2
ATOM      2  C   UNL     1       2.569   4.152  19.207  0.00  0.00    +0.000 A 
ATOM      3  C   UNL     1       1.802   3.602  18.177  0.00  0.00    +0.000 A 
ATOM      4  C   UNL     1       0.762   2.717  18.465  0.00  0.00    +0.000 A 
ATOM      5  C   UNL     1       0.486   2.386  19.789  0.00  0.00    +0.000 A 
ATOM      6  C   UNL     1       1.251   2.941  20.809  0.00  0.00    +0.000 A 
ATOM      7  F   UNL     1       0.982   2.621  22.081  0.00  0.00    +0.000 F 
ATOM      8  C   UNL     1       2.289   3.827  20.535  0.00  0.00    +0.000 A 
ENDBRANCH   1   2
BRANCH   1   9
ATOM      9  S   UNL     1       5.219   4.555  18.995  0.00  0.00    +0.000 S 
ATOM     10  O   UNL     1       5.862   5.384  19.991  0.00  0.00    +0.000 OA
ATOM     11  O   UNL     1       5.173   3.114  19.198  0.00  0.00    +0.000 OA
BRANCH   9  12
ATOM     12  C   UNL     1       6.024   4.858  17.457  0.00  0.00    +0.000 A 
ATOM     13  C   UNL     1       7.298   5.581  17.408  0.00  0.00    +0.000 A 
ATOM     14  C   UNL     1       7.919   5.834  16.240  0.00  0.00    +0.000 A 
ATOM     15  C   UNL     1       7.348   5.366  15.029  0.00  0.00    +0.000 A 
ATOM     16  N   UNL     1       7.692   5.518  13.772  0.00  0.00    +0.000 NA
ATOM     17  N   UNL     1       6.872   4.717  13.017  0.00  0.00    +0.000 NA
ATOM     18  C   UNL     1       6.048   4.083  13.829  0.00  0.00    +0.000 A 
ATOM     19  C   UNL     1       5.153   2.968  13.444  0.00  0.00    +0.000 C 
ATOM     20  N   UNL     1       6.228   4.552  15.114  0.00  0.00    +0.000 N 
ATOM     21  C   UNL     1       5.543   4.317  16.312  0.00  0.00    +0.000 A 
ENDBRANCH   9  12
ENDBRANCH   1   9
BRANCH   1  22
ATOM     22  C   UNL     1       3.260   6.158  17.886  0.00  0.00    +0.000 C 
BRANCH  22  27
ATOM     23  C   UNL     1       1.416   8.415  20.352  0.00  0.00    +0.000 A 
ATOM     24  C   UNL     1       1.063   9.497  19.549  0.00  0.00    +0.000 A 
ATOM     25  C   UNL     1       1.467   9.543  18.217  0.00  0.00    +0.000 A 
ATOM     26  C   UNL     1       2.203   8.489  17.672  0.00  0.00    +0.000 A 
ATOM     27  C   UNL     1       2.549   7.376  18.450  0.00  0.00    +0.000 A 
ATOM     28  C   UNL     1       2.197   7.383  19.816  0.00  0.00    +0.000 A 
BRANCH  23  30
ATOM     29  C   UNL     1       0.219   9.633  21.997  0.00  0.00    +0.000 C 
ATOM     30  O   UNL     1       0.950   8.465  21.636  0.00  0.00    +0.000 OA
ENDBRANCH  23  30
ENDBRANCH  22  27
ENDBRANCH   1  22
TORSDOF 6
ENDMDL
MODEL 3
REMARK VINA RESULT:      -8.1      3.018      7.602
REMARK  Name = 
REMARK  8 active torsions:
REMARK  status: ('A' for Active; 'I' for Inactive)
REMARK    1  A    between atoms: C_1  and  O_2
REMARK    2  A    between atoms: O_2  and  C_3
REMARK    3  A    between atoms: C_7  and  C_8
REMARK    4  A    between atoms: C_8  and  N_9
REMARK    5  A    between atoms: N_9  and  C_10
REMARK    6  A    between atoms: N_9  and  S_17
REMARK    7  A    between atoms: S_17  and  C_20
REMARK    8  A    between atoms: C_26  and  C_27
REMARK                            x       y       z     vdW  Elec       q    Type
REMARK                         _______ _______ _______ _____ _____    ______ ____
ROOT
ATOM      1  N   UNL     1       5.279   4.968  16.755  0.00  0.00    +0.000 N 
ENDROOT
BRANCH   1   2
ATOM      2  C   UNL     1       6.285   5.684  17.482  0.00  0.00    +0.000 A 
ATOM      3  C   UNL     1       6.551   7.006  17.119  0.00  0.00    +0.000 A 
ATOM      4  C   UNL     1       7.550   7.731  17.771  0.00  0.00    +0.000 A 
ATOM      5  C   UNL     1       8.289   7.128  18.785  0.00  0.00    +0.000 A 
ATOM      6  C   UNL     1       8.021   5.809  19.138  0.00  0.00    +0.000 A 
ATOM      7  F   UNL     1       8.733   5.233  20.113  0.00  0.00    +0.000 F 
ATOM      8  C   UNL     1       7.028   5.076  18.494  0.00  0.00    +0.000 A 
ENDBRANCH   1   2
BRANCH   1   9
ATOM      9  S   UNL     1       4.134   4.081  17.668  0.00  0.00    +0.000 S 
ATOM     10  O   UNL     1       3.181   3.524  16.732  0.00  0.00    +0.000 OA
ATOM     11  O   UNL     1       4.888   3.180  18.528  0.00  0.00    +0.000 OA
BRANCH   9  12
ATOM     12  C   UNL     1       3.261   5.209  18.701  0.00  0.00    +0.000 A 
ATOM     13  C   UNL     1       3.047   4.914  20.121  0.00  0.00    +0.000 A 
ATOM     14  C   UNL     1       2.369   5.758  20.922  0.00  0.00    +0.000 A 
ATOM     15  C   UNL     1       1.876   6.979  20.393  0.00  0.00    +0.000 A 
ATOM     16  N   UNL     1       1.145   7.936  20.912  0.00  0.00    +0.000 NA
ATOM     17  N   UNL     1       1.094   8.962  20.000  0.00  0.00    +0.000 NA
ATOM     18  C   UNL     1       1.805   8.614  18.944  0.00  0.00    +0.000 A 
ATOM     19  C   UNL     1       2.185   9.514  17.831  0.00  0.00    +0.000 C 
ATOM     20  N   UNL     1       2.226   7.308  19.091  0.00  0.00    +0.000 N 
ATOM     21  C   UNL     1       2.888   6.424  18.231  0.00  0.00    +0.000 A 
ENDBRANCH   9  12
ENDBRANCH   1   9
BRANCH   1  22
ATOM     22  C   UNL     1       4.897   5.484  15.413  0.00  0.00    +0.000 C 
BRANCH  22  27
ATOM     23  C   UNL     1       5.530   3.363  12.302  0.00  0.00    +0.000 A 
ATOM     24  C   UNL     1       6.902   3.516  12.118  0.00  0.00    +0.000 A 
ATOM     25  C   UNL     1       7.633   4.354  12.957  0.00  0.00    +0.000 A 
ATOM     26  C   UNL     1       6.996   5.022  14.007  0.00  0.00    +0.000 A 
ATOM     27  C   UNL     1       5.622   4.864  14.230  0.00  0.00    +0.000 A 
ATOM     28  C   UNL     1       4.886   4.072  13.324  0.00  0.00    +0.000 A 
BRANCH  23  30
ATOM     29  C   UNL     1       3.711   2.964  10.835  0.00  0.00    +0.000 C 
ATOM     30  O   UNL     1       4.918   2.502  11.435  0.00  0.00    +0.000 OA
ENDBRANCH  23  30
ENDBRANCH  22  27
ENDBRANCH   1  22
TORSDOF 6
ENDMDL
MODEL 4
REMARK VINA RESULT:      -8.1      0.927      1.384
REMARK  Name = 
REMARK  8 active torsions:
REMARK  status: ('A' for Active; 'I' for Inactive)
REMARK    1  A    between atoms: C_1  and  O_2
REMARK    2  A    between atoms: O_2  and  C_3
REMARK    3  A    between atoms: C_7  and  C_8
REMARK    4  A    between atoms: C_8  and  N_9
REMARK    5  A    between atoms: N_9  and  C_10
REMARK    6  A    between atoms: N_9  and  S_17
REMARK    7  A    between atoms: S_17  and  C_20
REMARK    8  A    between atoms: C_26  and  C_27
REMARK                            x       y       z     vdW  Elec       q    Type
REMARK                         _______ _______ _______ _____ _____    ______ ____
ROOT
ATOM      1  N   UNL     1       4.102   5.696  18.225  0.00  0.00    +0.000 N 
ENDROOT
BRANCH   1   2
ATOM      2  C   UNL     1       3.285   4.654  18.771  0.00  0.00    +0.000 A 
ATOM      3  C   UNL     1       2.361   4.027  17.931  0.00  0.00    +0.000 A 
ATOM      4  C   UNL     1       1.514   3.034  18.427  0.00  0.00    +0.000 A 
ATOM      5  C   UNL     1       1.589   2.673  19.769  0.00  0.00    +0.000 A 
ATOM      6  C   UNL     1       2.508   3.305  20.601  0.00  0.00    +0.000 A 
ATOM      7  F   UNL     1       2.576   2.955  21.891  0.00  0.00    +0.000 F 
ATOM      8  C   UNL     1       3.356   4.297  20.118  0.00  0.00    +0.000 A 
ENDBRANCH   1   2
BRANCH   1   9
ATOM      9  S   UNL     1       5.743   5.322  17.910  0.00  0.00    +0.000 S 
ATOM     10  O   UNL     1       6.491   6.555  18.022  0.00  0.00    +0.000 OA
ATOM     11  O   UNL     1       6.092   4.203  18.773  0.00  0.00    +0.000 OA
BRANCH   9  12
ATOM     12  C   UNL     1       5.871   4.776  16.240  0.00  0.00    +0.000 A 
ATOM     13  C   UNL     1       4.792   4.003  15.619  0.00  0.00    +0.000 A 
ATOM     14  C   UNL     1       4.879   3.565  14.349  0.00  0.00    +0.000 A 
ATOM     15  C   UNL     1       6.027   3.883  13.578  0.00  0.00    +0.000 A 
ATOM     16  N   UNL     1       6.401   3.544  12.367  0.00  0.00    +0.000 NA
ATOM     17  N   UNL     1       7.530   4.265  12.063  0.00  0.00    +0.000 NA
ATOM     18  C   UNL     1       7.818   5.039  13.092  0.00  0.00    +0.000 A 
ATOM     19  C   UNL     1       8.824   6.125  13.093  0.00  0.00    +0.000 C 
ATOM     20  N   UNL     1       6.962   4.746  14.134  0.00  0.00    +0.000 N 
ATOM     21  C   UNL     1       6.910   5.173  15.466  0.00  0.00    +0.000 A 
ENDBRANCH   9  12
ENDBRANCH   1   9
BRANCH   1  22
ATOM     22  C   UNL     1       3.430   6.753  17.423  0.00  0.00    +0.000 C 
BRANCH  22  27
ATOM     23  C   UNL     1       1.494   8.380  20.284  0.00  0.00    +0.000 A 
ATOM     24  C   UNL     1       1.048   9.562  19.699  0.00  0.00    +0.000 A 
ATOM     25  C   UNL     1       1.416   9.882  18.395  0.00  0.00    +0.000 A 
ATOM     26  C   UNL     1       2.210   9.001  17.655  0.00  0.00    +0.000 A 
ATOM     27  C   UNL     1       2.650   7.793  18.211  0.00  0.00    +0.000 A 
ATOM     28  C   UNL     1       2.331   7.523  19.558  0.00  0.00    +0.000 A 
BRANCH  23  30
ATOM     29  C   UNL     1      -0.262   8.606  21.861  0.00  0.00    +0.000 C 
ATOM     30  O   UNL     1       1.057   8.158  21.560  0.00  0.00    +0.000 OA
ENDBRANCH  23  30
ENDBRANCH  22  27
ENDBRANCH   1  22
TORSDOF 6
ENDMDL
MODEL 5
REMARK VINA RESULT:      -8.0      5.123      7.980
REMARK  Name = 
REMARK  8 active torsions:
REMARK  status: ('A' for Active; 'I' for Inactive)
REMARK    1  A    between atoms: C_1  and  O_2
REMARK    2  A    between atoms: O_2  and  C_3
REMARK    3  A    between atoms: C_7  and  C_8
REMARK    4  A    between atoms: C_8  and  N_9
REMARK    5  A    between atoms: N_9  and  C_10
REMARK    6  A    between atoms: N_9  and  S_17
REMARK    7  A    between atoms: S_17  and  C_20
REMARK    8  A    between atoms: C_26  and  C_27
REMARK                            x       y       z     vdW  Elec       q    Type
REMARK                         _______ _______ _______ _____ _____    ______ ____
ROOT
ATOM      1  N   UNL     1       0.078  11.121  20.241  0.00  0.00    +0.000 N 
ENDROOT
BRANCH   1   2
ATOM      2  C   UNL     1       0.975  12.232  20.124  0.00  0.00    +0.000 A 
ATOM      3  C   UNL     1       0.858  13.279  21.042  0.00  0.00    +0.000 A 
ATOM      4  C   UNL     1       1.682  14.401  20.944  0.00  0.00    +0.000 A 
ATOM      5  C   UNL     1       2.621  14.478  19.920  0.00  0.00    +0.000 A 
ATOM      6  C   UNL     1       2.729  13.434  19.007  0.00  0.00    +0.000 A 
ATOM      7  F   UNL     1       3.633  13.512  18.024  0.00  0.00    +0.000 F 
ATOM      8  C   UNL     1       1.912  12.311  19.093  0.00  0.00    +0.000 A 
ENDBRANCH   1   2
BRANCH   1   9
ATOM      9  S   UNL     1       0.580   9.807  21.216  0.00  0.00    +0.000 S 
ATOM     10  O   UNL     1       1.632  10.294  22.080  0.00  0.00    +0.000 OA
ATOM     11  O   UNL     1      -0.622   9.243  21.814  0.00  0.00    +0.000 OA
BRANCH   9  12
ATOM     12  C   UNL     1       1.285   8.581  20.165  0.00  0.00    +0.000 A 
ATOM     13  C   UNL     1       1.838   8.943  18.856  0.00  0.00    +0.000 A 
ATOM     14  C   UNL     1       2.367   8.017  18.035  0.00  0.00    +0.000 A 
ATOM     15  C   UNL     1       2.424   6.663  18.452  0.00  0.00    +0.000 A 
ATOM     16  N   UNL     1       2.816   5.566  17.848  0.00  0.00    +0.000 NA
ATOM     17  N   UNL     1       2.803   4.553  18.775  0.00  0.00    +0.000 NA
ATOM     18  C   UNL     1       2.413   5.053  19.932  0.00  0.00    +0.000 A 
ATOM     19  C   UNL     1       2.469   4.350  21.233  0.00  0.00    +0.000 C 
ATOM     20  N   UNL     1       2.040   6.370  19.754  0.00  0.00    +0.000 N 
ATOM     21  C   UNL     1       1.445   7.309  20.605  0.00  0.00    +0.000 A 
ENDBRANCH   9  12
ENDBRANCH   1   9
BRANCH   1  22
ATOM     22  C   UNL     1      -1.376  11.386  20.070  0.00  0.00    +0.000 C 
BRANCH  22  27
ATOM     23  C   UNL     1      -3.853  11.193  17.170  0.00  0.00    +0.000 A 
ATOM     24  C   UNL     1      -3.227  10.294  16.311  0.00  0.00    +0.000 A 
ATOM     25  C   UNL     1      -1.969   9.784  16.624  0.00  0.00    +0.000 A 
ATOM     26  C   UNL     1      -1.343  10.150  17.819  0.00  0.00    +0.000 A 
ATOM     27  C   UNL     1      -1.963  11.032  18.713  0.00  0.00    +0.000 A 
ATOM     28  C   UNL     1      -3.202  11.597  18.342  0.00  0.00    +0.000 A 
BRANCH  23  30
ATOM     29  C   UNL     1      -5.794  12.454  17.685  0.00  0.00    +0.000 C 
ATOM     30  O   UNL     1      -5.092  11.614  16.774  0.00  0.00    +0.000 OA
ENDBRANCH  23  30
ENDBRANCH  22  27
ENDBRANCH   1  22
TORSDOF 6
ENDMDL
MODEL 6
REMARK VINA RESULT:      -8.0      6.794      9.763
REMARK  Name = 
REMARK  8 active torsions:
REMARK  status: ('A' for Active; 'I' for Inactive)
REMARK    1  A    between atoms: C_1  and  O_2
REMARK    2  A    between atoms: O_2  and  C_3
REMARK    3  A    between atoms: C_7  and  C_8
REMARK    4  A    between atoms: C_8  and  N_9
REMARK    5  A    between atoms: N_9  and  C_10
REMARK    6  A    between atoms: N_9  and  S_17
REMARK    7  A    between atoms: S_17  and  C_20
REMARK    8  A    between atoms: C_26  and  C_27
REMARK                            x       y       z     vdW  Elec       q    Type
REMARK                         _______ _______ _______ _____ _____    ______ ____
ROOT
ATOM      1  N   UNL     1       0.139  11.871  19.558  0.00  0.00    +0.000 N 
ENDROOT
BRANCH   1   2
ATOM      2  C   UNL     1       0.667  10.542  19.638  0.00  0.00    +0.000 A 
ATOM      3  C   UNL     1       0.513   9.837  20.834  0.00  0.00    +0.000 A 
ATOM      4  C   UNL     1       1.046   8.555  20.973  0.00  0.00    +0.000 A 
ATOM      5  C   UNL     1       1.742   7.979  19.913  0.00  0.00    +0.000 A 
ATOM      6  C   UNL     1       1.896   8.689  18.727  0.00  0.00    +0.000 A 
ATOM      7  F   UNL     1       2.566   8.133  17.711  0.00  0.00    +0.000 F 
ATOM      8  C   UNL     1       1.370   9.969  18.577  0.00  0.00    +0.000 A 
ENDBRANCH   1   2
BRANCH   1   9
ATOM      9  S   UNL     1       0.860  13.062  20.555  0.00  0.00    +0.000 S 
ATOM     10  O   UNL     1      -0.195  13.648  21.352  0.00  0.00    +0.000 OA
ATOM     11  O   UNL     1       1.983  12.424  21.227  0.00  0.00    +0.000 OA
BRANCH   9  12
ATOM     12  C   UNL     1       1.504  14.332  19.517  0.00  0.00    +0.000 A 
ATOM     13  C   UNL     1       2.758  14.136  18.783  0.00  0.00    +0.000 A 
ATOM     14  C   UNL     1       3.272  15.101  17.997  0.00  0.00    +0.000 A 
ATOM     15  C   UNL     1       2.572  16.326  17.846  0.00  0.00    +0.000 A 
ATOM     16  N   UNL     1       2.861  17.438  17.211  0.00  0.00    +0.000 NA
ATOM     17  N   UNL     1       1.753  18.247  17.265  0.00  0.00    +0.000 NA
ATOM     18  C   UNL     1       0.804  17.609  17.924  0.00  0.00    +0.000 A 
ATOM     19  C   UNL     1      -0.610  18.037  18.019  0.00  0.00    +0.000 C 
ATOM     20  N   UNL     1       1.314  16.428  18.423  0.00  0.00    +0.000 N 
ATOM     21  C   UNL     1       0.785  15.455  19.279  0.00  0.00    +0.000 A 
ENDBRANCH   9  12
ENDBRANCH   1   9
BRANCH   1  22
ATOM     22  C   UNL     1      -0.507  12.284  18.283  0.00  0.00    +0.000 C 
BRANCH  22  27
ATOM     23  C   UNL     1      -3.667  10.935  16.619  0.00  0.00    +0.000 A 
ATOM     24  C   UNL     1      -4.639  11.198  17.582  0.00  0.00    +0.000 A 
ATOM     25  C   UNL     1      -4.280  11.759  18.805  0.00  0.00    +0.000 A 
ATOM     26  C   UNL     1      -2.946  12.087  19.061  0.00  0.00    +0.000 A 
ATOM     27  C   UNL     1      -1.953  11.856  18.100  0.00  0.00    +0.000 A 
ATOM     28  C   UNL     1      -2.325  11.218  16.898  0.00  0.00    +0.000 A 
BRANCH  23  30
ATOM     29  C   UNL     1      -3.165  10.174  14.431  0.00  0.00    +0.000 C 
ATOM     30  O   UNL     1      -4.134  10.403  15.450  0.00  0.00    +0.000 OA
ENDBRANCH  23  30
ENDBRANCH  22  27
ENDBRANCH   1  22
TORSDOF 6
ENDMDL
MODEL 7
REMARK VINA RESULT:      -8.0      3.223      7.699
REMARK  Name = 
REMARK  8 active torsions:
REMARK  status: ('A' for Active; 'I' for Inactive)
REMARK    1  A    between atoms: C_1  and  O_2
REMARK    2  A    between atoms: O_2  and  C_3
REMARK    3  A    between atoms: C_7  and  C_8
REMARK    4  A    between atoms: C_8  and  N_9
REMARK    5  A    between atoms: N_9  and  C_10
REMARK    6  A    between atoms: N_9  and  S_17
REMARK    7  A    between atoms: S_17  and  C_20
REMARK    8  A    between atoms: C_26  and  C_27
REMARK                            x       y       z     vdW  Elec       q    Type
REMARK                         _______ _______ _______ _____ _____    ______ ____
ROOT
ATOM      1  N   UNL     1       5.288   4.894  16.762  0.00  0.00    +0.000 N 
ENDROOT
BRANCH   1   2
ATOM      2  C   UNL     1       6.318   5.599  17.464  0.00  0.00    +0.000 A 
ATOM      3  C   UNL     1       6.931   4.971  18.551  0.00  0.00    +0.000 A 
ATOM      4  C   UNL     1       7.910   5.634  19.291  0.00  0.00    +0.000 A 
ATOM      5  C   UNL     1       8.273   6.933  18.947  0.00  0.00    +0.000 A 
ATOM      6  C   UNL     1       7.655   7.555  17.867  0.00  0.00    +0.000 A 
ATOM      7  F   UNL     1       8.005   8.804  17.539  0.00  0.00    +0.000 F 
ATOM      8  C   UNL     1       6.675   6.904  17.122  0.00  0.00    +0.000 A 
ENDBRANCH   1   2
BRANCH   1   9
ATOM      9  S   UNL     1       4.156   4.018  17.701  0.00  0.00    +0.000 S 
ATOM     10  O   UNL     1       3.199   3.438  16.786  0.00  0.00    +0.000 OA
ATOM     11  O   UNL     1       4.924   3.139  18.572  0.00  0.00    +0.000 OA
BRANCH   9  12
ATOM     12  C   UNL     1       3.286   5.161  18.721  0.00  0.00    +0.000 A 
ATOM     13  C   UNL     1       3.078   4.887  20.146  0.00  0.00    +0.000 A 
ATOM     14  C   UNL     1       2.402   5.742  20.936  0.00  0.00    +0.000 A 
ATOM     15  C   UNL     1       1.905   6.954  20.391  0.00  0.00    +0.000 A 
ATOM     16  N   UNL     1       1.175   7.919  20.898  0.00  0.00    +0.000 NA
ATOM     17  N   UNL     1       1.120   8.930  19.971  0.00  0.00    +0.000 NA
ATOM     18  C   UNL     1       1.827   8.567  18.918  0.00  0.00    +0.000 A 
ATOM     19  C   UNL     1       2.201   9.450  17.790  0.00  0.00    +0.000 C 
ATOM     20  N   UNL     1       2.249   7.264  19.082  0.00  0.00    +0.000 N 
ATOM     21  C   UNL     1       2.910   6.368  18.233  0.00  0.00    +0.000 A 
ENDBRANCH   9  12
ENDBRANCH   1   9
BRANCH   1  22
ATOM     22  C   UNL     1       4.879   5.414  15.429  0.00  0.00    +0.000 C 
BRANCH  22  27
ATOM     23  C   UNL     1       5.498   3.339  12.284  0.00  0.00    +0.000 A 
ATOM     24  C   UNL     1       6.867   3.507  12.089  0.00  0.00    +0.000 A 
ATOM     25  C   UNL     1       7.599   4.339  12.932  0.00  0.00    +0.000 A 
ATOM     26  C   UNL     1       6.968   4.988  13.997  0.00  0.00    +0.000 A 
ATOM     27  C   UNL     1       5.597   4.816  14.231  0.00  0.00    +0.000 A 
ATOM     28  C   UNL     1       4.859   4.029  13.322  0.00  0.00    +0.000 A 
BRANCH  23  30
ATOM     29  C   UNL     1       3.714   2.977  10.766  0.00  0.00    +0.000 C 
ATOM     30  O   UNL     1       4.884   2.485  11.412  0.00  0.00    +0.000 OA
ENDBRANCH  23  30
ENDBRANCH  22  27
ENDBRANCH   1  22
TORSDOF 6
ENDMDL
MODEL 8
REMARK VINA RESULT:      -7.9      5.653     10.088
REMARK  Name = 
REMARK  8 active torsions:
REMARK  status: ('A' for Active; 'I' for Inactive)
REMARK    1  A    between atoms: C_1  and  O_2
REMARK    2  A    between atoms: O_2  and  C_3
REMARK    3  A    between atoms: C_7  and  C_8
REMARK    4  A    between atoms: C_8  and  N_9
REMARK    5  A    between atoms: N_9  and  C_10
REMARK    6  A    between atoms: N_9  and  S_17
REMARK    7  A    between atoms: S_17  and  C_20
REMARK    8  A    between atoms: C_26  and  C_27
REMARK                            x       y       z     vdW  Elec       q    Type
REMARK                         _______ _______ _______ _____ _____    ______ ____
ROOT
ATOM      1  N   UNL     1       0.371   9.718  20.090  0.00  0.00    +0.000 N 
ENDROOT
BRANCH   1   2
ATOM      2  C   UNL     1       1.312   8.789  19.540  0.00  0.00    +0.000 A 
ATOM      3  C   UNL     1       1.867   9.068  18.289  0.00  0.00    +0.000 A 
ATOM      4  C   UNL     1       2.757   8.173  17.694  0.00  0.00    +0.000 A 
ATOM      5  C   UNL     1       3.086   6.991  18.351  0.00  0.00    +0.000 A 
ATOM      6  C   UNL     1       2.526   6.716  19.594  0.00  0.00    +0.000 A 
ATOM      7  F   UNL     1       2.845   5.579  20.222  0.00  0.00    +0.000 F 
ATOM      8  C   UNL     1       1.636   7.601  20.197  0.00  0.00    +0.000 A 
ENDBRANCH   1   2
BRANCH   1   9
ATOM      9  S   UNL     1       0.275   9.820  21.796  0.00  0.00    +0.000 S 
ATOM     10  O   UNL     1      -0.670   8.815  22.231  0.00  0.00    +0.000 OA
ATOM     11  O   UNL     1       1.641   9.769  22.298  0.00  0.00    +0.000 OA
BRANCH   9  12
ATOM     12  C   UNL     1      -0.397  11.393  22.217  0.00  0.00    +0.000 A 
ATOM     13  C   UNL     1       0.160  12.623  21.646  0.00  0.00    +0.000 A 
ATOM     14  C   UNL     1      -0.331  13.834  21.969  0.00  0.00    +0.000 A 
ATOM     15  C   UNL     1      -1.434  13.928  22.855  0.00  0.00    +0.000 A 
ATOM     16  N   UNL     1      -2.062  14.953  23.381  0.00  0.00    +0.000 NA
ATOM     17  N   UNL     1      -3.161  14.470  24.047  0.00  0.00    +0.000 NA
ATOM     18  C   UNL     1      -3.189  13.158  23.907  0.00  0.00    +0.000 A 
ATOM     19  C   UNL     1      -4.319  12.279  24.285  0.00  0.00    +0.000 C 
ATOM     20  N   UNL     1      -2.043  12.747  23.257  0.00  0.00    +0.000 N 
ATOM     21  C   UNL     1      -1.519  11.481  22.971  0.00  0.00    +0.000 A 
ENDBRANCH   9  12
ENDBRANCH   1   9
BRANCH   1  22
ATOM     22  C   UNL     1       0.012  10.906  19.270  0.00  0.00    +0.000 C 
BRANCH  22  27
ATOM     23  C   UNL     1      -3.685  11.585  18.601  0.00  0.00    +0.000 A 
ATOM     24  C   UNL     1      -3.953  10.722  17.541  0.00  0.00    +0.000 A 
ATOM     25  C   UNL     1      -2.932   9.954  16.987  0.00  0.00    +0.000 A 
ATOM     26  C   UNL     1      -1.639  10.024  17.511  0.00  0.00    +0.000 A 
ATOM     27  C   UNL     1      -1.349  10.864  18.594  0.00  0.00    +0.000 A 
ATOM     28  C   UNL     1      -2.378  11.690  19.093  0.00  0.00    +0.000 A 
BRANCH  23  30
ATOM     29  C   UNL     1      -4.589  12.928  20.333  0.00  0.00    +0.000 C 
ATOM     30  O   UNL     1      -4.764  12.274  19.080  0.00  0.00    +0.000 OA
ENDBRANCH  23  30
ENDBRANCH  22  27
ENDBRANCH   1  22
TORSDOF 6
ENDMDL
MODEL 9
REMARK VINA RESULT:      -7.9      6.613      9.677
REMARK  Name = 
REMARK  8 active torsions:
REMARK  status: ('A' for Active; 'I' for Inactive)
REMARK    1  A    between atoms: C_1  and  O_2
REMARK    2  A    between atoms: O_2  and  C_3
REMARK    3  A    between atoms: C_7  and  C_8
REMARK    4  A    between atoms: C_8  and  N_9
REMARK    5  A    between atoms: N_9  and  C_10
REMARK    6  A    between atoms: N_9  and  S_17
REMARK    7  A    between atoms: S_17  and  C_20
REMARK    8  A    between atoms: C_26  and  C_27
REMARK                            x       y       z     vdW  Elec       q    Type
REMARK                         _______ _______ _______ _____ _____    ______ ____
ROOT
ATOM      1  N   UNL     1       0.151  11.830  19.418  0.00  0.00    +0.000 N 
ENDROOT
BRANCH   1   2
ATOM      2  C   UNL     1       0.811  10.561  19.348  0.00  0.00    +0.000 A 
ATOM      3  C   UNL     1       1.544  10.256  18.198  0.00  0.00    +0.000 A 
ATOM      4  C   UNL     1       2.170   9.016  18.067  0.00  0.00    +0.000 A 
ATOM      5  C   UNL     1       2.057   8.075  19.086  0.00  0.00    +0.000 A 
ATOM      6  C   UNL     1       1.321   8.383  20.226  0.00  0.00    +0.000 A 
ATOM      7  F   UNL     1       1.214   7.476  21.204  0.00  0.00    +0.000 F 
ATOM      8  C   UNL     1       0.691   9.616  20.368  0.00  0.00    +0.000 A 
ENDBRANCH   1   2
BRANCH   1   9
ATOM      9  S   UNL     1       0.826  13.008  20.461  0.00  0.00    +0.000 S 
ATOM     10  O   UNL     1      -0.261  13.567  21.234  0.00  0.00    +0.000 OA
ATOM     11  O   UNL     1       1.932  12.367  21.159  0.00  0.00    +0.000 OA
BRANCH   9  12
ATOM     12  C   UNL     1       1.491  14.304  19.471  0.00  0.00    +0.000 A 
ATOM     13  C   UNL     1       2.771  14.135  18.776  0.00  0.00    +0.000 A 
ATOM     14  C   UNL     1       3.301  15.120  18.027  0.00  0.00    +0.000 A 
ATOM     15  C   UNL     1       2.594  16.341  17.876  0.00  0.00    +0.000 A 
ATOM     16  N   UNL     1       2.893  17.468  17.274  0.00  0.00    +0.000 NA
ATOM     17  N   UNL     1       1.776  18.265  17.307  0.00  0.00    +0.000 NA
ATOM     18  C   UNL     1       0.812  17.606  17.920  0.00  0.00    +0.000 A 
ATOM     19  C   UNL     1      -0.609  18.018  17.976  0.00  0.00    +0.000 C 
ATOM     20  N   UNL     1       1.317  16.420  18.412  0.00  0.00    +0.000 N 
ATOM     21  C   UNL     1       0.769  15.425  19.232  0.00  0.00    +0.000 A 
ENDBRANCH   9  12
ENDBRANCH   1   9
BRANCH   1  22
ATOM     22  C   UNL     1      -0.626  12.272  18.229  0.00  0.00    +0.000 C 
BRANCH  22  27
ATOM     23  C   UNL     1      -4.304  11.275  18.467  0.00  0.00    +0.000 A 
ATOM     24  C   UNL     1      -4.341  10.112  17.702  0.00  0.00    +0.000 A 
ATOM     25  C   UNL     1      -3.195   9.665  17.048  0.00  0.00    +0.000 A 
ATOM     26  C   UNL     1      -1.995  10.367  17.182  0.00  0.00    +0.000 A 
ATOM     27  C   UNL     1      -1.924  11.525  17.967  0.00  0.00    +0.000 A 
ATOM     28  C   UNL     1      -3.112  12.003  18.559  0.00  0.00    +0.000 A 
BRANCH  23  30
ATOM     29  C   UNL     1      -6.533  10.654  18.983  0.00  0.00    +0.000 C 
ATOM     30  O   UNL     1      -5.480  11.608  19.080  0.00  0.00    +0.000 OA
ENDBRANCH  23  30
ENDBRANCH  22  27
ENDBRANCH   1  22
TORSDOF 6
ENDMDL
