MODEL 1
REMARK VINA RESULT:      -8.7      0.000      0.000
REMARK  Name = 
REMARK  7 active torsions:
REMARK  status: ('A' for Active; 'I' for Inactive)
REMARK    1  A    between atoms: C_2  and  C_3
REMARK    2  A    between atoms: C_6  and  S_7
REMARK    3  A    between atoms: S_7  and  N_10
REMARK    4  A    between atoms: N_10  and  C_11
REMARK    5  A    between atoms: C_11  and  C_12
REMARK    6  A    between atoms: N_22  and  C_23
REMARK    7  A    between atoms: C_23  and  C_24
REMARK                            x       y       z     vdW  Elec       q    Type
REMARK                         _______ _______ _______ _____ _____    ______ ____
ROOT
ATOM      1  C   UNL     1       2.073   7.447  19.765  0.00  0.00    +0.000 A 
ATOM      2  C   UNL     1       2.070   8.298  18.659  0.00  0.00    +0.000 A 
ATOM      3  C   UNL     1       1.395   9.516  18.712  0.00  0.00    +0.000 A 
ATOM      4  C   UNL     1       0.845   9.952  19.921  0.00  0.00    +0.000 A 
ATOM      5  C   UNL     1       0.988   9.178  21.075  0.00  0.00    +0.000 A 
ATOM      6  C   UNL     1       1.579   7.914  20.990  0.00  0.00    +0.000 A 
ENDROOT
BRANCH   1   8
ATOM      7  O   UNL     1       2.177   5.262  20.531  0.00  0.00    +0.000 OA
ATOM      8  C   UNL     1       2.607   6.063  19.702  0.00  0.00    +0.000 C 
ATOM      9  N   UNL     1       3.519   5.699  18.707  0.00  0.00    +0.000 N 
ATOM     10  C   UNL     1       3.865   6.467  17.501  0.00  0.00    +0.000 C 
ATOM     11  C   UNL     1       5.346   6.252  17.116  0.00  0.00    +0.000 C 
ATOM     12  N   UNL     1       5.704   4.830  16.919  0.00  0.00    +0.000 NA
ATOM     13  C   UNL     1       5.340   4.092  18.154  0.00  0.00    +0.000 C 
ATOM     14  C   UNL     1       3.885   4.278  18.620  0.00  0.00    +0.000 C 
BRANCH  12  15
ATOM     15  C   UNL     1       5.035   4.326  15.706  0.00  0.00    +0.000 C 
BRANCH  15  16
ATOM     16  C   UNL     1       5.875   4.312  14.454  0.00  0.00    +0.000 A 
ATOM     17  C   UNL     1       5.460   3.556  13.348  0.00  0.00    +0.000 A 
ATOM     18  C   UNL     1       6.207   3.567  12.164  0.00  0.00    +0.000 A 
ATOM     19  C   UNL     1       7.363   4.327  12.085  0.00  0.00    +0.000 A 
ATOM     20  C   UNL     1       7.783   5.083  13.180  0.00  0.00    +0.000 A 
ATOM     21  C   UNL     1       7.041   5.079  14.359  0.00  0.00    +0.000 A 
ENDBRANCH  15  16
ENDBRANCH  12  15
ENDBRANCH   1   8
BRANCH   4  22
ATOM     22  S   UNL     1       0.046  11.543  19.955  0.00  0.00    +0.000 S 
ATOM     23  O   UNL     1      -1.154  11.393  20.743  0.00  0.00    +0.000 OA
ATOM     24  O   UNL     1       1.069  12.512  20.287  0.00  0.00    +0.000 OA
BRANCH  22  25
ATOM     25  N   UNL     1      -0.375  11.844  18.348  0.00  0.00    +0.000 NA
ATOM     26  H   UNL     1       0.008  11.161  17.694  0.00  0.00    +0.000 HD
BRANCH  25  27
ATOM     27  C   UNL     1      -1.794  12.142  18.128  0.00  0.00    +0.000 C 
BRANCH  27  28
ATOM     28  C   UNL     1      -2.376  11.166  17.177  0.00  0.00    +0.000 A 
ATOM     29  C   UNL     1      -2.012   9.889  16.803  0.00  0.00    +0.000 A 
ATOM     30  C   UNL     1      -2.855   9.539  15.721  0.00  0.00    +0.000 A 
ATOM     31  C   UNL     1      -3.701  10.606  15.531  0.00  0.00    +0.000 A 
ATOM     32  O   UNL     1      -3.428  11.595  16.422  0.00  0.00    +0.000 OA
ENDBRANCH  27  28
ENDBRANCH  25  27
ENDBRANCH  22  25
ENDBRANCH   4  22
TORSDOF 7
ENDMDL
MODEL 2
REMARK VINA RESULT:      -8.7      0.417      1.294
REMARK  Name = 
REMARK  7 active torsions:
REMARK  status: ('A' for Active; 'I' for Inactive)
REMARK    1  A    between atoms: C_2  and  C_3
REMARK    2  A    between atoms: C_6  and  S_7
REMARK    3  A    between atoms: S_7  and  N_10
REMARK    4  A    between atoms: N_10  and  C_11
REMARK    5  A    between atoms: C_11  and  C_12
REMARK    6  A    between atoms: N_22  and  C_23
REMARK    7  A    between atoms: C_23  and  C_24
REMARK                            x       y       z     vdW  Elec       q    Type
REMARK                         _______ _______ _______ _____ _____    ______ ____
ROOT
ATOM      1  C   UNL     1       2.002   7.638  19.628  0.00  0.00    +0.000 A 
ATOM      2  C   UNL     1       1.406   8.222  20.747  0.00  0.00    +0.000 A 
ATOM      3  C   UNL     1       1.014   9.558  20.717  0.00  0.00    +0.000 A 
ATOM      4  C   UNL     1       1.082  10.274  19.518  0.00  0.00    +0.000 A 
ATOM      5  C   UNL     1       1.524   9.646  18.351  0.00  0.00    +0.000 A 
ATOM      6  C   UNL     1       2.008   8.336  18.413  0.00  0.00    +0.000 A 
ENDROOT
BRANCH   1   8
ATOM      7  O   UNL     1       2.248   5.535  20.572  0.00  0.00    +0.000 OA
ATOM      8  C   UNL     1       2.612   6.285  19.666  0.00  0.00    +0.000 C 
ATOM      9  N   UNL     1       3.520   5.888  18.681  0.00  0.00    +0.000 N 
ATOM     10  C   UNL     1       3.794   6.568  17.405  0.00  0.00    +0.000 C 
ATOM     11  C   UNL     1       5.275   6.402  16.999  0.00  0.00    +0.000 C 
ATOM     12  N   UNL     1       5.709   4.990  16.912  0.00  0.00    +0.000 NA
ATOM     13  C   UNL     1       5.417   4.342  18.215  0.00  0.00    +0.000 C 
ATOM     14  C   UNL     1       3.965   4.487  18.704  0.00  0.00    +0.000 C 
BRANCH  12  15
ATOM     15  C   UNL     1       5.043   4.349  15.765  0.00  0.00    +0.000 C 
BRANCH  15  16
ATOM     16  C   UNL     1       5.823   4.344  14.475  0.00  0.00    +0.000 A 
ATOM     17  C   UNL     1       7.011   5.085  14.380  0.00  0.00    +0.000 A 
ATOM     18  C   UNL     1       7.769   5.057  13.204  0.00  0.00    +0.000 A 
ATOM     19  C   UNL     1       7.343   4.296  12.127  0.00  0.00    +0.000 A 
ATOM     20  C   UNL     1       6.164   3.556  12.212  0.00  0.00    +0.000 A 
ATOM     21  C   UNL     1       5.408   3.576  13.383  0.00  0.00    +0.000 A 
ENDBRANCH  15  16
ENDBRANCH  12  15
ENDBRANCH   1   8
BRANCH   4  22
ATOM     22  S   UNL     1       0.511  11.961  19.513  0.00  0.00    +0.000 S 
ATOM     23  O   UNL     1      -0.300  12.133  20.695  0.00  0.00    +0.000 OA
ATOM     24  O   UNL     1       1.670  12.788  19.248  0.00  0.00    +0.000 OA
BRANCH  22  25
ATOM     25  N   UNL     1      -0.466  12.078  18.142  0.00  0.00    +0.000 NA
ATOM     26  H   UNL     1      -0.100  11.565  17.339  0.00  0.00    +0.000 HD
BRANCH  25  27
ATOM     27  C   UNL     1      -1.895  11.858  18.383  0.00  0.00    +0.000 C 
BRANCH  27  28
ATOM     28  C   UNL     1      -2.477  11.050  17.286  0.00  0.00    +0.000 A 
ATOM     29  C   UNL     1      -2.069   9.895  16.652  0.00  0.00    +0.000 A 
ATOM     30  C   UNL     1      -2.950   9.710  15.561  0.00  0.00    +0.000 A 
ATOM     31  C   UNL     1      -3.860  10.740  15.621  0.00  0.00    +0.000 A 
ATOM     32  O   UNL     1      -3.590  11.553  16.676  0.00  0.00    +0.000 OA
ENDBRANCH  27  28
ENDBRANCH  25  27
ENDBRANCH  22  25
ENDBRANCH   4  22
TORSDOF 7
ENDMDL
MODEL 3
REMARK VINA RESULT:      -8.5      1.146      1.359
REMARK  Name = 
REMARK  7 active torsions:
REMARK  status: ('A' for Active; 'I' for Inactive)
REMARK    1  A    between atoms: C_2  and  C_3
REMARK    2  A    between atoms: C_6  and  S_7
REMARK    3  A    between atoms: S_7  and  N_10
REMARK    4  A    between atoms: N_10  and  C_11
REMARK    5  A    between atoms: C_11  and  C_12
REMARK    6  A    between atoms: N_22  and  C_23
REMARK    7  A    between atoms: C_23  and  C_24
REMARK                            x       y       z     vdW  Elec       q    Type
REMARK                         _______ _______ _______ _____ _____    ______ ____
ROOT
ATOM      1  C   UNL     1       2.155   7.607  19.377  0.00  0.00    +0.000 A 
ATOM      2  C   UNL     1       2.118   8.309  18.172  0.00  0.00    +0.000 A 
ATOM      3  C   UNL     1       1.282   9.414  18.027  0.00  0.00    +0.000 A 
ATOM      4  C   UNL     1       0.590   9.909  19.137  0.00  0.00    +0.000 A 
ATOM      5  C   UNL     1       0.751   9.308  20.388  0.00  0.00    +0.000 A 
ATOM      6  C   UNL     1       1.513   8.142  20.501  0.00  0.00    +0.000 A 
ENDROOT
BRANCH   1   8
ATOM      7  O   UNL     1       2.594   5.631  20.507  0.00  0.00    +0.000 OA
ATOM      8  C   UNL     1       2.875   6.316  19.524  0.00  0.00    +0.000 C 
ATOM      9  N   UNL     1       3.791   5.900  18.554  0.00  0.00    +0.000 N 
ATOM     10  C   UNL     1       3.980   6.474  17.212  0.00  0.00    +0.000 C 
ATOM     11  C   UNL     1       5.461   6.389  16.780  0.00  0.00    +0.000 C 
ATOM     12  N   UNL     1       6.007   5.014  16.813  0.00  0.00    +0.000 NA
ATOM     13  C   UNL     1       5.797   4.473  18.179  0.00  0.00    +0.000 C 
ATOM     14  C   UNL     1       4.350   4.548  18.695  0.00  0.00    +0.000 C 
BRANCH  12  15
ATOM     15  C   UNL     1       5.370   4.214  15.751  0.00  0.00    +0.000 C 
BRANCH  15  16
ATOM     16  C   UNL     1       6.067   4.229  14.415  0.00  0.00    +0.000 A 
ATOM     17  C   UNL     1       5.553   3.466  13.356  0.00  0.00    +0.000 A 
ATOM     18  C   UNL     1       6.164   3.502  12.096  0.00  0.00    +0.000 A 
ATOM     19  C   UNL     1       7.283   4.296  11.896  0.00  0.00    +0.000 A 
ATOM     20  C   UNL     1       7.800   5.058  12.943  0.00  0.00    +0.000 A 
ATOM     21  C   UNL     1       7.194   5.029  14.197  0.00  0.00    +0.000 A 
ENDBRANCH  15  16
ENDBRANCH  12  15
ENDBRANCH   1   8
BRANCH   4  22
ATOM     22  S   UNL     1      -0.419  11.360  18.919  0.00  0.00    +0.000 S 
ATOM     23  O   UNL     1      -1.355  11.389  20.017  0.00  0.00    +0.000 OA
ATOM     24  O   UNL     1       0.488  12.457  18.651  0.00  0.00    +0.000 OA
BRANCH  22  25
ATOM     25  N   UNL     1      -1.254  11.088  17.478  0.00  0.00    +0.000 NA
ATOM     26  H   UNL     1      -0.644  11.027  16.661  0.00  0.00    +0.000 HD
BRANCH  25  27
ATOM     27  C   UNL     1      -2.263  10.026  17.541  0.00  0.00    +0.000 C 
BRANCH  27  28
ATOM     28  C   UNL     1      -3.620  10.607  17.418  0.00  0.00    +0.000 A 
ATOM     29  C   UNL     1      -4.161  11.559  16.579  0.00  0.00    +0.000 A 
ATOM     30  C   UNL     1      -5.463  11.822  17.066  0.00  0.00    +0.000 A 
ATOM     31  C   UNL     1      -5.646  10.989  18.145  0.00  0.00    +0.000 A 
ATOM     32  O   UNL     1      -4.537  10.235  18.358  0.00  0.00    +0.000 OA
ENDBRANCH  27  28
ENDBRANCH  25  27
ENDBRANCH  22  25
ENDBRANCH   4  22
TORSDOF 7
ENDMDL
MODEL 4
REMARK VINA RESULT:      -8.5      0.521      1.065
REMARK  Name = 
REMARK  7 active torsions:
REMARK  status: ('A' for Active; 'I' for Inactive)
REMARK    1  A    between atoms: C_2  and  C_3
REMARK    2  A    between atoms: C_6  and  S_7
REMARK    3  A    between atoms: S_7  and  N_10
REMARK    4  A    between atoms: N_10  and  C_11
REMARK    5  A    between atoms: C_11  and  C_12
REMARK    6  A    between atoms: N_22  and  C_23
REMARK    7  A    between atoms: C_23  and  C_24
REMARK                            x       y       z     vdW  Elec       q    Type
REMARK                         _______ _______ _______ _____ _____    ______ ____
ROOT
ATOM      1  C   UNL     1       2.153   7.462  19.683  0.00  0.00    +0.000 A 
ATOM      2  C   UNL     1       2.221   8.307  18.576  0.00  0.00    +0.000 A 
ATOM      3  C   UNL     1       1.488   9.492  18.549  0.00  0.00    +0.000 A 
ATOM      4  C   UNL     1       0.799   9.906  19.693  0.00  0.00    +0.000 A 
ATOM      5  C   UNL     1       0.861   9.144  20.862  0.00  0.00    +0.000 A 
ATOM      6  C   UNL     1       1.517   7.910  20.849  0.00  0.00    +0.000 A 
ENDROOT
BRANCH   1   8
ATOM      7  O   UNL     1       2.400   5.340  20.583  0.00  0.00    +0.000 OA
ATOM      8  C   UNL     1       2.755   6.104  19.687  0.00  0.00    +0.000 C 
ATOM      9  N   UNL     1       3.644   5.720  18.679  0.00  0.00    +0.000 N 
ATOM     10  C   UNL     1       3.902   6.422  17.412  0.00  0.00    +0.000 C 
ATOM     11  C   UNL     1       5.375   6.255  16.979  0.00  0.00    +0.000 C 
ATOM     12  N   UNL     1       5.798   4.842  16.858  0.00  0.00    +0.000 NA
ATOM     13  C   UNL     1       5.523   4.171  18.153  0.00  0.00    +0.000 C 
ATOM     14  C   UNL     1       4.080   4.316  18.669  0.00  0.00    +0.000 C 
BRANCH  12  15
ATOM     15  C   UNL     1       5.109   4.227  15.710  0.00  0.00    +0.000 C 
BRANCH  15  16
ATOM     16  C   UNL     1       5.867   4.244  14.407  0.00  0.00    +0.000 A 
ATOM     17  C   UNL     1       7.035   5.013  14.295  0.00  0.00    +0.000 A 
ATOM     18  C   UNL     1       7.774   5.007  13.106  0.00  0.00    +0.000 A 
ATOM     19  C   UNL     1       7.347   4.239  12.033  0.00  0.00    +0.000 A 
ATOM     20  C   UNL     1       6.187   3.471  12.136  0.00  0.00    +0.000 A 
ATOM     21  C   UNL     1       5.451   3.470  13.319  0.00  0.00    +0.000 A 
ENDBRANCH  15  16
ENDBRANCH  12  15
ENDBRANCH   1   8
BRANCH   4  22
ATOM     22  S   UNL     1      -0.073  11.457  19.632  0.00  0.00    +0.000 S 
ATOM     23  O   UNL     1      -0.966  11.481  20.767  0.00  0.00    +0.000 OA
ATOM     24  O   UNL     1       0.924  12.484  19.415  0.00  0.00    +0.000 OA
BRANCH  22  25
ATOM     25  N   UNL     1      -0.979  11.383  18.210  0.00  0.00    +0.000 NA
ATOM     26  H   UNL     1      -0.434  11.587  17.371  0.00  0.00    +0.000 HD
BRANCH  25  27
ATOM     27  C   UNL     1      -1.834  10.198  18.084  0.00  0.00    +0.000 C 
BRANCH  27  28
ATOM     28  C   UNL     1      -2.696  10.318  16.886  0.00  0.00    +0.000 A 
ATOM     29  C   UNL     1      -2.662   9.724  15.642  0.00  0.00    +0.000 A 
ATOM     30  C   UNL     1      -3.646  10.378  14.864  0.00  0.00    +0.000 A 
ATOM     31  C   UNL     1      -4.243  11.299  15.693  0.00  0.00    +0.000 A 
ATOM     32  O   UNL     1      -3.682  11.261  16.929  0.00  0.00    +0.000 OA
ENDBRANCH  27  28
ENDBRANCH  25  27
ENDBRANCH  22  25
ENDBRANCH   4  22
TORSDOF 7
ENDMDL
MODEL 5
REMARK VINA RESULT:      -8.4      1.104      1.569
REMARK  Name = 
REMARK  7 active torsions:
REMARK  status: ('A' for Active; 'I' for Inactive)
REMARK    1  A    between atoms: C_2  and  C_3
REMARK    2  A    between atoms: C_6  and  S_7
REMARK    3  A    between atoms: S_7  and  N_10
REMARK    4  A    between atoms: N_10  and  C_11
REMARK    5  A    between atoms: C_11  and  C_12
REMARK    6  A    between atoms: N_22  and  C_23
REMARK    7  A    between atoms: C_23  and  C_24
REMARK                            x       y       z     vdW  Elec       q    Type
REMARK                         _______ _______ _______ _____ _____    ______ ____
ROOT
ATOM      1  C   UNL     1       2.092   7.657  19.365  0.00  0.00    +0.000 A 
ATOM      2  C   UNL     1       1.394   8.237  20.425  0.00  0.00    +0.000 A 
ATOM      3  C   UNL     1       0.892   9.532  20.310  0.00  0.00    +0.000 A 
ATOM      4  C   UNL     1       0.959  10.195  19.081  0.00  0.00    +0.000 A 
ATOM      5  C   UNL     1       1.512   9.555  17.969  0.00  0.00    +0.000 A 
ATOM      6  C   UNL     1       2.101   8.296  18.118  0.00  0.00    +0.000 A 
ENDROOT
BRANCH   1   8
ATOM      7  O   UNL     1       2.528   5.667  20.473  0.00  0.00    +0.000 OA
ATOM      8  C   UNL     1       2.812   6.365  19.500  0.00  0.00    +0.000 C 
ATOM      9  N   UNL     1       3.731   5.960  18.527  0.00  0.00    +0.000 N 
ATOM     10  C   UNL     1       3.924   6.550  17.193  0.00  0.00    +0.000 C 
ATOM     11  C   UNL     1       5.406   6.470  16.764  0.00  0.00    +0.000 C 
ATOM     12  N   UNL     1       5.952   5.095  16.783  0.00  0.00    +0.000 NA
ATOM     13  C   UNL     1       5.739   4.537  18.142  0.00  0.00    +0.000 C 
ATOM     14  C   UNL     1       4.289   4.606  18.655  0.00  0.00    +0.000 C 
BRANCH  12  15
ATOM     15  C   UNL     1       5.319   4.307  15.710  0.00  0.00    +0.000 C 
BRANCH  15  16
ATOM     16  C   UNL     1       6.050   4.292  14.392  0.00  0.00    +0.000 A 
ATOM     17  C   UNL     1       5.539   3.540  13.324  0.00  0.00    +0.000 A 
ATOM     18  C   UNL     1       6.183   3.548  12.081  0.00  0.00    +0.000 A 
ATOM     19  C   UNL     1       7.333   4.303  11.906  0.00  0.00    +0.000 A 
ATOM     20  C   UNL     1       7.848   5.054  12.962  0.00  0.00    +0.000 A 
ATOM     21  C   UNL     1       7.208   5.052  14.200  0.00  0.00    +0.000 A 
ENDBRANCH  15  16
ENDBRANCH  12  15
ENDBRANCH   1   8
BRANCH   4  22
ATOM     22  S   UNL     1       0.250  11.824  18.966  0.00  0.00    +0.000 S 
ATOM     23  O   UNL     1      -0.389  12.094  20.232  0.00  0.00    +0.000 OA
ATOM     24  O   UNL     1       1.279  12.686  18.424  0.00  0.00    +0.000 OA
BRANCH  22  25
ATOM     25  N   UNL     1      -0.926  11.693  17.762  0.00  0.00    +0.000 NA
ATOM     26  H   UNL     1      -0.551  11.780  16.817  0.00  0.00    +0.000 HD
BRANCH  25  27
ATOM     27  C   UNL     1      -1.856  10.571  17.927  0.00  0.00    +0.000 C 
BRANCH  27  28
ATOM     28  C   UNL     1      -3.253  11.045  17.794  0.00  0.00    +0.000 A 
ATOM     29  C   UNL     1      -4.141  11.063  16.739  0.00  0.00    +0.000 A 
ATOM     30  C   UNL     1      -5.262  11.806  17.178  0.00  0.00    +0.000 A 
ATOM     31  C   UNL     1      -5.003  12.159  18.481  0.00  0.00    +0.000 A 
ATOM     32  O   UNL     1      -3.790  11.689  18.871  0.00  0.00    +0.000 OA
ENDBRANCH  27  28
ENDBRANCH  25  27
ENDBRANCH  22  25
ENDBRANCH   4  22
TORSDOF 7
ENDMDL
MODEL 6
REMARK VINA RESULT:      -8.3      3.798     10.379
REMARK  Name = 
REMARK  7 active torsions:
REMARK  status: ('A' for Active; 'I' for Inactive)
REMARK    1  A    between atoms: C_2  and  C_3
REMARK    2  A    between atoms: C_6  and  S_7
REMARK    3  A    between atoms: S_7  and  N_10
REMARK    4  A    between atoms: N_10  and  C_11
REMARK    5  A    between atoms: C_11  and  C_12
REMARK    6  A    between atoms: N_22  and  C_23
REMARK    7  A    between atoms: C_23  and  C_24
REMARK                            x       y       z     vdW  Elec       q    Type
REMARK                         _______ _______ _______ _____ _____    ______ ____
ROOT
ATOM      1  C   UNL     1       2.011   7.376  18.692  0.00  0.00    +0.000 A 
ATOM      2  C   UNL     1       1.636   6.483  17.688  0.00  0.00    +0.000 A 
ATOM      3  C   UNL     1       1.996   5.140  17.772  0.00  0.00    +0.000 A 
ATOM      4  C   UNL     1       2.606   4.657  18.933  0.00  0.00    +0.000 A 
ATOM      5  C   UNL     1       2.837   5.514  20.012  0.00  0.00    +0.000 A 
ATOM      6  C   UNL     1       2.563   6.879  19.880  0.00  0.00    +0.000 A 
ENDROOT
BRANCH   1   8
ATOM      7  O   UNL     1       2.148   9.353  17.489  0.00  0.00    +0.000 OA
ATOM      8  C   UNL     1       1.825   8.844  18.562  0.00  0.00    +0.000 C 
ATOM      9  N   UNL     1       1.262   9.583  19.606  0.00  0.00    +0.000 N 
ATOM     10  C   UNL     1       0.569   9.053  20.791  0.00  0.00    +0.000 C 
ATOM     11  C   UNL     1       0.817   9.952  22.022  0.00  0.00    +0.000 C 
ATOM     12  N   UNL     1       0.429  11.364  21.810  0.00  0.00    +0.000 NA
ATOM     13  C   UNL     1       1.148  11.859  20.610  0.00  0.00    +0.000 C 
ATOM     14  C   UNL     1       0.974  11.000  19.345  0.00  0.00    +0.000 C 
BRANCH  12  15
ATOM     15  C   UNL     1      -1.038  11.453  21.704  0.00  0.00    +0.000 C 
BRANCH  15  16
ATOM     16  C   UNL     1      -1.705  12.417  22.652  0.00  0.00    +0.000 A 
ATOM     17  C   UNL     1      -2.956  12.098  23.200  0.00  0.00    +0.000 A 
ATOM     18  C   UNL     1      -3.569  12.963  24.114  0.00  0.00    +0.000 A 
ATOM     19  C   UNL     1      -2.937  14.142  24.478  0.00  0.00    +0.000 A 
ATOM     20  C   UNL     1      -1.692  14.467  23.939  0.00  0.00    +0.000 A 
ATOM     21  C   UNL     1      -1.076  13.607  23.032  0.00  0.00    +0.000 A 
ENDBRANCH  15  16
ENDBRANCH  12  15
ENDBRANCH   1   8
BRANCH   4  22
ATOM     22  S   UNL     1       2.993   2.921  19.020  0.00  0.00    +0.000 S 
ATOM     23  O   UNL     1       2.804   2.516  20.393  0.00  0.00    +0.000 OA
ATOM     24  O   UNL     1       2.288   2.286  17.927  0.00  0.00    +0.000 OA
BRANCH  22  25
ATOM     25  N   UNL     1       4.633   2.828  18.630  0.00  0.00    +0.000 NA
ATOM     26  H   UNL     1       5.018   1.887  18.718  0.00  0.00    +0.000 HD
BRANCH  25  27
ATOM     27  C   UNL     1       5.010   3.506  17.385  0.00  0.00    +0.000 C 
BRANCH  27  28
ATOM     28  C   UNL     1       5.853   4.687  17.686  0.00  0.00    +0.000 A 
ATOM     29  C   UNL     1       5.794   6.007  17.291  0.00  0.00    +0.000 A 
ATOM     30  C   UNL     1       6.981   6.614  17.762  0.00  0.00    +0.000 A 
ATOM     31  C   UNL     1       7.668   5.638  18.446  0.00  0.00    +0.000 A 
ATOM     32  O   UNL     1       6.983   4.466  18.418  0.00  0.00    +0.000 OA
ENDBRANCH  27  28
ENDBRANCH  25  27
ENDBRANCH  22  25
ENDBRANCH   4  22
TORSDOF 7
ENDMDL
MODEL 7
REMARK VINA RESULT:      -8.3      3.806     10.593
REMARK  Name = 
REMARK  7 active torsions:
REMARK  status: ('A' for Active; 'I' for Inactive)
REMARK    1  A    between atoms: C_2  and  C_3
REMARK    2  A    between atoms: C_6  and  S_7
REMARK    3  A    between atoms: S_7  and  N_10
REMARK    4  A    between atoms: N_10  and  C_11
REMARK    5  A    between atoms: C_11  and  C_12
REMARK    6  A    between atoms: N_22  and  C_23
REMARK    7  A    between atoms: C_23  and  C_24
REMARK                            x       y       z     vdW  Elec       q    Type
REMARK                         _______ _______ _______ _____ _____    ______ ____
ROOT
ATOM      1  C   UNL     1       2.212   7.855  18.559  0.00  0.00    +0.000 A 
ATOM      2  C   UNL     1       2.083   6.931  19.596  0.00  0.00    +0.000 A 
ATOM      3  C   UNL     1       2.969   5.860  19.697  0.00  0.00    +0.000 A 
ATOM      4  C   UNL     1       4.077   5.795  18.847  0.00  0.00    +0.000 A 
ATOM      5  C   UNL     1       4.303   6.807  17.912  0.00  0.00    +0.000 A 
ATOM      6  C   UNL     1       3.356   7.823  17.751  0.00  0.00    +0.000 A 
ENDROOT
BRANCH   1   8
ATOM      7  O   UNL     1       0.695   8.916  17.163  0.00  0.00    +0.000 OA
ATOM      8  C   UNL     1       1.188   8.897  18.290  0.00  0.00    +0.000 C 
ATOM      9  N   UNL     1       0.786   9.774  19.301  0.00  0.00    +0.000 N 
ATOM     10  C   UNL     1       1.071   9.655  20.740  0.00  0.00    +0.000 C 
ATOM     11  C   UNL     1       1.233  11.049  21.387  0.00  0.00    +0.000 C 
ATOM     12  N   UNL     1       0.063  11.933  21.184  0.00  0.00    +0.000 NA
ATOM     13  C   UNL     1      -0.190  12.026  19.724  0.00  0.00    +0.000 C 
ATOM     14  C   UNL     1      -0.335  10.676  19.000  0.00  0.00    +0.000 C 
BRANCH  12  15
ATOM     15  C   UNL     1      -1.079  11.410  21.955  0.00  0.00    +0.000 C 
BRANCH  15  16
ATOM     16  C   UNL     1      -1.754  12.396  22.873  0.00  0.00    +0.000 A 
ATOM     17  C   UNL     1      -1.086  13.575  23.236  0.00  0.00    +0.000 A 
ATOM     18  C   UNL     1      -1.716  14.521  24.053  0.00  0.00    +0.000 A 
ATOM     19  C   UNL     1      -3.005  14.291  24.508  0.00  0.00    +0.000 A 
ATOM     20  C   UNL     1      -3.677  13.122  24.151  0.00  0.00    +0.000 A 
ATOM     21  C   UNL     1      -3.057  12.179  23.334  0.00  0.00    +0.000 A 
ENDBRANCH  15  16
ENDBRANCH  12  15
ENDBRANCH   1   8
BRANCH   4  22
ATOM     22  S   UNL     1       5.216   4.441  19.054  0.00  0.00    +0.000 S 
ATOM     23  O   UNL     1       6.397   4.980  19.686  0.00  0.00    +0.000 OA
ATOM     24  O   UNL     1       4.460   3.351  19.635  0.00  0.00    +0.000 OA
BRANCH  22  25
ATOM     25  N   UNL     1       5.594   3.957  17.482  0.00  0.00    +0.000 NA
ATOM     26  H   UNL     1       4.790   3.956  16.854  0.00  0.00    +0.000 HD
BRANCH  25  27
ATOM     27  C   UNL     1       6.787   4.591  16.912  0.00  0.00    +0.000 C 
BRANCH  27  28
ATOM     28  C   UNL     1       6.718   4.566  15.432  0.00  0.00    +0.000 A 
ATOM     29  C   UNL     1       5.927   3.872  14.541  0.00  0.00    +0.000 A 
ATOM     30  C   UNL     1       6.454   4.135  13.255  0.00  0.00    +0.000 A 
ATOM     31  C   UNL     1       7.507   5.000  13.440  0.00  0.00    +0.000 A 
ATOM     32  O   UNL     1       7.667   5.281  14.760  0.00  0.00    +0.000 OA
ENDBRANCH  27  28
ENDBRANCH  25  27
ENDBRANCH  22  25
ENDBRANCH   4  22
TORSDOF 7
ENDMDL
MODEL 8
REMARK VINA RESULT:      -8.3      3.700     10.484
REMARK  Name = 
REMARK  7 active torsions:
REMARK  status: ('A' for Active; 'I' for Inactive)
REMARK    1  A    between atoms: C_2  and  C_3
REMARK    2  A    between atoms: C_6  and  S_7
REMARK    3  A    between atoms: S_7  and  N_10
REMARK    4  A    between atoms: N_10  and  C_11
REMARK    5  A    between atoms: C_11  and  C_12
REMARK    6  A    between atoms: N_22  and  C_23
REMARK    7  A    between atoms: C_23  and  C_24
REMARK                            x       y       z     vdW  Elec       q    Type
REMARK                         _______ _______ _______ _____ _____    ______ ____
ROOT
ATOM      1  C   UNL     1       2.056   7.465  18.853  0.00  0.00    +0.000 A 
ATOM      2  C   UNL     1       2.313   6.907  20.106  0.00  0.00    +0.000 A 
ATOM      3  C   UNL     1       2.492   5.532  20.240  0.00  0.00    +0.000 A 
ATOM      4  C   UNL     1       2.560   4.728  19.099  0.00  0.00    +0.000 A 
ATOM      5  C   UNL     1       2.467   5.304  17.829  0.00  0.00    +0.000 A 
ATOM      6  C   UNL     1       2.190   6.668  17.708  0.00  0.00    +0.000 A 
ENDROOT
BRANCH   1   8
ATOM      7  O   UNL     1       1.800   9.369  17.555  0.00  0.00    +0.000 OA
ATOM      8  C   UNL     1       1.667   8.888  18.680  0.00  0.00    +0.000 C 
ATOM      9  N   UNL     1       1.133   9.612  19.749  0.00  0.00    +0.000 N 
ATOM     10  C   UNL     1       0.650   9.072  21.030  0.00  0.00    +0.000 C 
ATOM     11  C   UNL     1       0.915  10.066  22.182  0.00  0.00    +0.000 C 
ATOM     12  N   UNL     1       0.326  11.405  21.954  0.00  0.00    +0.000 NA
ATOM     13  C   UNL     1       0.837  11.913  20.656  0.00  0.00    +0.000 C 
ATOM     14  C   UNL     1       0.636  10.965  19.461  0.00  0.00    +0.000 C 
BRANCH  12  15
ATOM     15  C   UNL     1      -1.144  11.305  22.018  0.00  0.00    +0.000 C 
BRANCH  15  16
ATOM     16  C   UNL     1      -1.829  12.306  22.912  0.00  0.00    +0.000 A 
ATOM     17  C   UNL     1      -1.202  13.531  23.189  0.00  0.00    +0.000 A 
ATOM     18  C   UNL     1      -1.843  14.489  23.983  0.00  0.00    +0.000 A 
ATOM     19  C   UNL     1      -3.103  14.225  24.499  0.00  0.00    +0.000 A 
ATOM     20  C   UNL     1      -3.734  13.011  24.227  0.00  0.00    +0.000 A 
ATOM     21  C   UNL     1      -3.101  12.056  23.434  0.00  0.00    +0.000 A 
ENDBRANCH  15  16
ENDBRANCH  12  15
ENDBRANCH   1   8
BRANCH   4  22
ATOM     22  S   UNL     1       2.851   2.984  19.316  0.00  0.00    +0.000 S 
ATOM     23  O   UNL     1       2.714   2.708  20.726  0.00  0.00    +0.000 OA
ATOM     24  O   UNL     1       2.053   2.305  18.317  0.00  0.00    +0.000 OA
BRANCH  22  25
ATOM     25  N   UNL     1       4.460   2.759  18.856  0.00  0.00    +0.000 NA
ATOM     26  H   UNL     1       4.565   2.190  18.015  0.00  0.00    +0.000 HD
BRANCH  25  27
ATOM     27  C   UNL     1       5.276   3.977  18.850  0.00  0.00    +0.000 C 
BRANCH  27  28
ATOM     28  C   UNL     1       5.920   4.151  17.528  0.00  0.00    +0.000 A 
ATOM     29  C   UNL     1       7.100   4.744  17.129  0.00  0.00    +0.000 A 
ATOM     30  C   UNL     1       7.080   4.753  15.715  0.00  0.00    +0.000 A 
ATOM     31  C   UNL     1       5.912   4.131  15.342  0.00  0.00    +0.000 A 
ATOM     32  O   UNL     1       5.205   3.748  16.437  0.00  0.00    +0.000 OA
ENDBRANCH  27  28
ENDBRANCH  25  27
ENDBRANCH  22  25
ENDBRANCH   4  22
TORSDOF 7
ENDMDL
MODEL 9
REMARK VINA RESULT:      -8.2      3.853     10.332
REMARK  Name = 
REMARK  7 active torsions:
REMARK  status: ('A' for Active; 'I' for Inactive)
REMARK    1  A    between atoms: C_2  and  C_3
REMARK    2  A    between atoms: C_6  and  S_7
REMARK    3  A    between atoms: S_7  and  N_10
REMARK    4  A    between atoms: N_10  and  C_11
REMARK    5  A    between atoms: C_11  and  C_12
REMARK    6  A    between atoms: N_22  and  C_23
REMARK    7  A    between atoms: C_23  and  C_24
REMARK                            x       y       z     vdW  Elec       q    Type
REMARK                         _______ _______ _______ _____ _____    ______ ____
ROOT
ATOM      1  C   UNL     1       2.205   7.967  18.389  0.00  0.00    +0.000 A 
ATOM      2  C   UNL     1       2.270   7.047  19.436  0.00  0.00    +0.000 A 
ATOM      3  C   UNL     1       3.237   6.044  19.430  0.00  0.00    +0.000 A 
ATOM      4  C   UNL     1       4.236   6.049  18.452  0.00  0.00    +0.000 A 
ATOM      5  C   UNL     1       4.273   7.066  17.494  0.00  0.00    +0.000 A 
ATOM      6  C   UNL     1       3.243   8.009  17.448  0.00  0.00    +0.000 A 
ENDROOT
BRANCH   1   8
ATOM      7  O   UNL     1       0.456   8.899  17.187  0.00  0.00    +0.000 OA
ATOM      8  C   UNL     1       1.083   8.930  18.245  0.00  0.00    +0.000 C 
ATOM      9  N   UNL     1       0.745   9.787  19.295  0.00  0.00    +0.000 N 
ATOM     10  C   UNL     1       1.212   9.707  20.688  0.00  0.00    +0.000 C 
ATOM     11  C   UNL     1       1.350  11.116  21.306  0.00  0.00    +0.000 C 
ATOM     12  N   UNL     1       0.104  11.912  21.245  0.00  0.00    +0.000 NA
ATOM     13  C   UNL     1      -0.332  11.969  19.828  0.00  0.00    +0.000 C 
ATOM     14  C   UNL     1      -0.466  10.604  19.131  0.00  0.00    +0.000 C 
BRANCH  12  15
ATOM     15  C   UNL     1      -0.895  11.318  22.152  0.00  0.00    +0.000 C 
BRANCH  15  16
ATOM     16  C   UNL     1      -1.689  12.295  22.979  0.00  0.00    +0.000 A 
ATOM     17  C   UNL     1      -1.143  13.552  23.282  0.00  0.00    +0.000 A 
ATOM     18  C   UNL     1      -1.885  14.487  24.014  0.00  0.00    +0.000 A 
ATOM     19  C   UNL     1      -3.165  14.169  24.442  0.00  0.00    +0.000 A 
ATOM     20  C   UNL     1      -3.716  12.923  24.144  0.00  0.00    +0.000 A 
ATOM     21  C   UNL     1      -2.983  11.990  23.413  0.00  0.00    +0.000 A 
ENDBRANCH  15  16
ENDBRANCH  12  15
ENDBRANCH   1   8
BRANCH   4  22
ATOM     22  S   UNL     1       5.487   4.783  18.521  0.00  0.00    +0.000 S 
ATOM     23  O   UNL     1       6.312   4.944  17.347  0.00  0.00    +0.000 OA
ATOM     24  O   UNL     1       6.037   4.820  19.860  0.00  0.00    +0.000 OA
BRANCH  22  25
ATOM     25  N   UNL     1       4.633   3.332  18.410  0.00  0.00    +0.000 NA
ATOM     26  H   UNL     1       4.923   2.750  17.624  0.00  0.00    +0.000 HD
BRANCH  25  27
ATOM     27  C   UNL     1       4.500   2.597  19.672  0.00  0.00    +0.000 C 
BRANCH  27  28
ATOM     28  C   UNL     1       3.130   2.754  20.211  0.00  0.00    +0.000 A 
ATOM     29  C   UNL     1       2.625   2.803  21.493  0.00  0.00    +0.000 A 
ATOM     30  C   UNL     1       1.216   2.786  21.365  0.00  0.00    +0.000 A 
ATOM     31  C   UNL     1       0.952   2.767  20.016  0.00  0.00    +0.000 A 
ATOM     32  O   UNL     1       2.110   2.763  19.304  0.00  0.00    +0.000 OA
ENDBRANCH  27  28
ENDBRANCH  25  27
ENDBRANCH  22  25
ENDBRANCH   4  22
TORSDOF 7
ENDMDL
