MODEL 1
REMARK VINA RESULT:      -7.7      0.000      0.000
REMARK  Name = 
REMARK  3 active torsions:
REMARK  status: ('A' for Active; 'I' for Inactive)
REMARK    1  A    between atoms: O_1  and  C_2
REMARK    2  A    between atoms: N_7  and  C_8
REMARK    3  A    between atoms: C_11  and  O_12
REMARK                            x       y       z     vdW  Elec       q    Type
REMARK                         _______ _______ _______ _____ _____    ______ ____
ROOT
ATOM      1  C   UNL     1       1.784   2.760  21.095  0.00  0.00    +0.000 A 
ATOM      2  C   UNL     1       0.759   3.047  20.142  0.00  0.00    +0.000 A 
ATOM      3  C   UNL     1       1.030   3.537  18.844  0.00  0.00    +0.000 A 
ATOM      4  C   UNL     1       2.401   3.707  18.578  0.00  0.00    +0.000 A 
ATOM      5  N   UNL     1       3.018   4.146  17.472  0.00  0.00    +0.000 NA
ATOM      6  N   UNL     1       4.353   4.068  17.737  0.00  0.00    +0.000 N 
ATOM      7  C   UNL     1       4.605   3.635  19.020  0.00  0.00    +0.000 A 
ATOM      8  C   UNL     1       3.382   3.391  19.575  0.00  0.00    +0.000 A 
ATOM      9  C   UNL     1       3.160   2.917  20.861  0.00  0.00    +0.000 A 
ENDROOT
BRANCH   6  10
ATOM     10  C   UNL     1       5.307   4.400  16.732  0.00  0.00    +0.000 A 
ATOM     11  C   UNL     1       6.338   5.309  17.024  0.00  0.00    +0.000 A 
ATOM     12  C   UNL     1       7.268   5.667  16.045  0.00  0.00    +0.000 A 
ATOM     13  C   UNL     1       7.168   5.126  14.764  0.00  0.00    +0.000 A 
ATOM     14  C   UNL     1       6.149   4.219  14.464  0.00  0.00    +0.000 A 
ATOM     15 CL   UNL     1       5.986   3.538  12.885  0.00  0.00    +0.000 Cl
ATOM     16  C   UNL     1       5.222   3.849  15.445  0.00  0.00    +0.000 A 
BRANCH  13  17
ATOM     17  O   UNL     1       8.066   5.489  13.799  0.00  0.00    +0.000 OA
ATOM     18  H   UNL     1       8.909   5.034  13.955  0.00  0.00    +0.000 HD
ENDBRANCH  13  17
ENDBRANCH   6  10
BRANCH   1  19
ATOM     19  O   UNL     1       1.440   2.294  22.340  0.00  0.00    +0.000 OA
ATOM     20  H   UNL     1       2.218   2.337  22.919  0.00  0.00    +0.000 HD
ENDBRANCH   1  19
TORSDOF 3
ENDMDL
MODEL 2
REMARK VINA RESULT:      -7.1      5.420      6.289
REMARK  Name = 
REMARK  3 active torsions:
REMARK  status: ('A' for Active; 'I' for Inactive)
REMARK    1  A    between atoms: O_1  and  C_2
REMARK    2  A    between atoms: N_7  and  C_8
REMARK    3  A    between atoms: C_11  and  O_12
REMARK                            x       y       z     vdW  Elec       q    Type
REMARK                         _______ _______ _______ _____ _____    ______ ____
ROOT
ATOM      1  C   UNL     1       4.193   2.635  20.124  0.00  0.00    +0.000 A 
ATOM      2  C   UNL     1       3.109   2.503  21.045  0.00  0.00    +0.000 A 
ATOM      3  C   UNL     1       2.194   3.548  21.311  0.00  0.00    +0.000 A 
ATOM      4  C   UNL     1       2.448   4.723  20.580  0.00  0.00    +0.000 A 
ATOM      5  N   UNL     1       1.798   5.895  20.578  0.00  0.00    +0.000 NA
ATOM      6  N   UNL     1       2.435   6.669  19.653  0.00  0.00    +0.000 N 
ATOM      7  C   UNL     1       3.521   6.030  19.097  0.00  0.00    +0.000 A 
ATOM      8  C   UNL     1       3.549   4.788  19.663  0.00  0.00    +0.000 A 
ATOM      9  C   UNL     1       4.473   3.793  19.378  0.00  0.00    +0.000 A 
ENDROOT
BRANCH   6  10
ATOM     10  C   UNL     1       1.948   7.973  19.348  0.00  0.00    +0.000 A 
ATOM     11  C   UNL     1       2.229   8.545  18.096  0.00  0.00    +0.000 A 
ATOM     12  C   UNL     1       1.783   9.833  17.786  0.00  0.00    +0.000 A 
ATOM     13  C   UNL     1       1.061  10.561  18.731  0.00  0.00    +0.000 A 
ATOM     14  C   UNL     1       0.773  10.000  19.977  0.00  0.00    +0.000 A 
ATOM     15 CL   UNL     1      -0.108  10.877  21.176  0.00  0.00    +0.000 Cl
ATOM     16  C   UNL     1       1.208   8.707  20.286  0.00  0.00    +0.000 A 
BRANCH  13  17
ATOM     17  O   UNL     1       0.639  11.828  18.437  0.00  0.00    +0.000 OA
ATOM     18  H   UNL     1      -0.129  11.783  17.846  0.00  0.00    +0.000 HD
ENDBRANCH  13  17
ENDBRANCH   6  10
BRANCH   1  19
ATOM     19  O   UNL     1       5.045   1.577  19.925  0.00  0.00    +0.000 OA
ATOM     20  H   UNL     1       4.567   0.869  19.464  0.00  0.00    +0.000 HD
ENDBRANCH   1  19
TORSDOF 3
ENDMDL
MODEL 3
REMARK VINA RESULT:      -7.0      1.480      1.855
REMARK  Name = 
REMARK  3 active torsions:
REMARK  status: ('A' for Active; 'I' for Inactive)
REMARK    1  A    between atoms: O_1  and  C_2
REMARK    2  A    between atoms: N_7  and  C_8
REMARK    3  A    between atoms: C_11  and  O_12
REMARK                            x       y       z     vdW  Elec       q    Type
REMARK                         _______ _______ _______ _____ _____    ______ ____
ROOT
ATOM      1  C   UNL     1       1.464   2.633  21.393  0.00  0.00    +0.000 A 
ATOM      2  C   UNL     1       0.473   2.835  20.385  0.00  0.00    +0.000 A 
ATOM      3  C   UNL     1       0.776   3.345  19.101  0.00  0.00    +0.000 A 
ATOM      4  C   UNL     1       2.140   3.626  18.910  0.00  0.00    +0.000 A 
ATOM      5  N   UNL     1       2.780   4.114  17.838  0.00  0.00    +0.000 NA
ATOM      6  N   UNL     1       4.100   4.146  18.176  0.00  0.00    +0.000 N 
ATOM      7  C   UNL     1       4.316   3.735  19.473  0.00  0.00    +0.000 A 
ATOM      8  C   UNL     1       3.088   3.392  19.961  0.00  0.00    +0.000 A 
ATOM      9  C   UNL     1       2.834   2.902  21.235  0.00  0.00    +0.000 A 
ENDROOT
BRANCH   6  10
ATOM     10  C   UNL     1       5.078   4.554  17.223  0.00  0.00    +0.000 A 
ATOM     11  C   UNL     1       5.266   3.798  16.053  0.00  0.00    +0.000 A 
ATOM     12  C   UNL     1       6.238   4.166  15.119  0.00  0.00    +0.000 A 
ATOM     13  C   UNL     1       7.035   5.286  15.353  0.00  0.00    +0.000 A 
ATOM     14  C   UNL     1       6.853   6.046  16.511  0.00  0.00    +0.000 A 
ATOM     15 CL   UNL     1       7.830   7.432  16.841  0.00  0.00    +0.000 Cl
ATOM     16  C   UNL     1       5.874   5.687  17.444  0.00  0.00    +0.000 A 
BRANCH  13  17
ATOM     17  O   UNL     1       7.998   5.638  14.449  0.00  0.00    +0.000 OA
ATOM     18  H   UNL     1       7.989   5.011  13.708  0.00  0.00    +0.000 HD
ENDBRANCH  13  17
ENDBRANCH   6  10
BRANCH   1  19
ATOM     19  O   UNL     1       1.091   2.141  22.620  0.00  0.00    +0.000 OA
ATOM     20  H   UNL     1       1.530   2.658  23.314  0.00  0.00    +0.000 HD
ENDBRANCH   1  19
TORSDOF 3
ENDMDL
MODEL 4
REMARK VINA RESULT:      -6.8      4.976      5.423
REMARK  Name = 
REMARK  3 active torsions:
REMARK  status: ('A' for Active; 'I' for Inactive)
REMARK    1  A    between atoms: O_1  and  C_2
REMARK    2  A    between atoms: N_7  and  C_8
REMARK    3  A    between atoms: C_11  and  O_12
REMARK                            x       y       z     vdW  Elec       q    Type
REMARK                         _______ _______ _______ _____ _____    ______ ____
ROOT
ATOM      1  C   UNL     1       0.323  10.708  19.839  0.00  0.00    +0.000 A 
ATOM      2  C   UNL     1       0.379   9.981  21.067  0.00  0.00    +0.000 A 
ATOM      3  C   UNL     1       1.026   8.730  21.190  0.00  0.00    +0.000 A 
ATOM      4  C   UNL     1       1.613   8.275  19.996  0.00  0.00    +0.000 A 
ATOM      5  N   UNL     1       2.296   7.150  19.744  0.00  0.00    +0.000 NA
ATOM      6  N   UNL     1       2.678   7.234  18.437  0.00  0.00    +0.000 N 
ATOM      7  C   UNL     1       2.203   8.374  17.828  0.00  0.00    +0.000 A 
ATOM      8  C   UNL     1       1.529   9.058  18.797  0.00  0.00    +0.000 A 
ATOM      9  C   UNL     1       0.899  10.283  18.630  0.00  0.00    +0.000 A 
ENDROOT
BRANCH   6  10
ATOM     10  C   UNL     1       3.492   6.217  17.858  0.00  0.00    +0.000 A 
ATOM     11  C   UNL     1       4.555   6.576  17.012  0.00  0.00    +0.000 A 
ATOM     12  C   UNL     1       5.350   5.594  16.414  0.00  0.00    +0.000 A 
ATOM     13  C   UNL     1       5.080   4.247  16.650  0.00  0.00    +0.000 A 
ATOM     14  C   UNL     1       4.028   3.880  17.493  0.00  0.00    +0.000 A 
ATOM     15 CL   UNL     1       3.656   2.221  17.798  0.00  0.00    +0.000 Cl
ATOM     16  C   UNL     1       3.237   4.860  18.102  0.00  0.00    +0.000 A 
BRANCH  13  17
ATOM     17  O   UNL     1       5.844   3.284  16.052  0.00  0.00    +0.000 OA
ATOM     18  H   UNL     1       5.598   3.213  15.115  0.00  0.00    +0.000 HD
ENDBRANCH  13  17
ENDBRANCH   6  10
BRANCH   1  19
ATOM     19  O   UNL     1      -0.333  11.915  19.796  0.00  0.00    +0.000 OA
ATOM     20  H   UNL     1      -0.126  12.415  20.602  0.00  0.00    +0.000 HD
ENDBRANCH   1  19
TORSDOF 3
ENDMDL
MODEL 5
REMARK VINA RESULT:      -6.7      5.511      6.612
REMARK  Name = 
REMARK  3 active torsions:
REMARK  status: ('A' for Active; 'I' for Inactive)
REMARK    1  A    between atoms: O_1  and  C_2
REMARK    2  A    between atoms: N_7  and  C_8
REMARK    3  A    between atoms: C_11  and  O_12
REMARK                            x       y       z     vdW  Elec       q    Type
REMARK                         _______ _______ _______ _____ _____    ______ ____
ROOT
ATOM      1  C   UNL     1       0.847  11.080  18.708  0.00  0.00    +0.000 A 
ATOM      2  C   UNL     1       0.360  10.902  20.039  0.00  0.00    +0.000 A 
ATOM      3  C   UNL     1       0.572   9.719  20.784  0.00  0.00    +0.000 A 
ATOM      4  C   UNL     1       1.313   8.742  20.096  0.00  0.00    +0.000 A 
ATOM      5  N   UNL     1       1.697   7.518  20.483  0.00  0.00    +0.000 NA
ATOM      6  N   UNL     1       2.429   7.014  19.449  0.00  0.00    +0.000 N 
ATOM      7  C   UNL     1       2.477   7.877  18.376  0.00  0.00    +0.000 A 
ATOM      8  C   UNL     1       1.782   8.986  18.762  0.00  0.00    +0.000 A 
ATOM      9  C   UNL     1       1.589  10.125  17.993  0.00  0.00    +0.000 A 
ENDROOT
BRANCH   6  10
ATOM     10  C   UNL     1       3.054   5.738  19.563  0.00  0.00    +0.000 A 
ATOM     11  C   UNL     1       4.163   5.433  18.756  0.00  0.00    +0.000 A 
ATOM     12  C   UNL     1       4.774   4.178  18.833  0.00  0.00    +0.000 A 
ATOM     13  C   UNL     1       4.273   3.217  19.711  0.00  0.00    +0.000 A 
ATOM     14  C   UNL     1       3.173   3.513  20.519  0.00  0.00    +0.000 A 
ATOM     15 CL   UNL     1       2.517   2.343  21.609  0.00  0.00    +0.000 Cl
ATOM     16  C   UNL     1       2.565   4.771  20.453  0.00  0.00    +0.000 A 
BRANCH  13  17
ATOM     17  O   UNL     1       4.857   1.983  19.775  0.00  0.00    +0.000 OA
ATOM     18  H   UNL     1       5.732   2.018  19.357  0.00  0.00    +0.000 HD
ENDBRANCH  13  17
ENDBRANCH   6  10
BRANCH   1  19
ATOM     19  O   UNL     1       0.592  12.256  18.046  0.00  0.00    +0.000 OA
ATOM     20  H   UNL     1       1.430  12.721  17.896  0.00  0.00    +0.000 HD
ENDBRANCH   1  19
TORSDOF 3
ENDMDL
MODEL 6
REMARK VINA RESULT:      -6.6      4.710      5.847
REMARK  Name = 
REMARK  3 active torsions:
REMARK  status: ('A' for Active; 'I' for Inactive)
REMARK    1  A    between atoms: O_1  and  C_2
REMARK    2  A    between atoms: N_7  and  C_8
REMARK    3  A    between atoms: C_11  and  O_12
REMARK                            x       y       z     vdW  Elec       q    Type
REMARK                         _______ _______ _______ _____ _____    ______ ____
ROOT
ATOM      1  C   UNL     1       0.974  10.049  20.113  0.00  0.00    +0.000 A 
ATOM      2  C   UNL     1       1.302  10.304  18.746  0.00  0.00    +0.000 A 
ATOM      3  C   UNL     1       1.862   9.324  17.894  0.00  0.00    +0.000 A 
ATOM      4  C   UNL     1       2.058   8.078  18.516  0.00  0.00    +0.000 A 
ATOM      5  N   UNL     1       2.560   6.937  18.024  0.00  0.00    +0.000 NA
ATOM      6  N   UNL     1       2.480   6.029  19.038  0.00  0.00    +0.000 N 
ATOM      7  C   UNL     1       1.981   6.584  20.196  0.00  0.00    +0.000 A 
ATOM      8  C   UNL     1       1.698   7.884  19.891  0.00  0.00    +0.000 A 
ATOM      9  C   UNL     1       1.155   8.817  20.763  0.00  0.00    +0.000 A 
ENDROOT
BRANCH   6  10
ATOM     10  C   UNL     1       2.872   4.675  18.825  0.00  0.00    +0.000 A 
ATOM     11  C   UNL     1       2.487   4.017  17.645  0.00  0.00    +0.000 A 
ATOM     12  C   UNL     1       2.839   2.682  17.429  0.00  0.00    +0.000 A 
ATOM     13  C   UNL     1       3.570   1.994  18.396  0.00  0.00    +0.000 A 
ATOM     14  C   UNL     1       3.960   2.641  19.571  0.00  0.00    +0.000 A 
ATOM     15 CL   UNL     1       4.855   1.816  20.797  0.00  0.00    +0.000 Cl
ATOM     16  C   UNL     1       3.619   3.980  19.786  0.00  0.00    +0.000 A 
BRANCH  13  17
ATOM     17  O   UNL     1       3.900   0.682  18.195  0.00  0.00    +0.000 OA
ATOM     18  H   UNL     1       4.185   0.289  19.035  0.00  0.00    +0.000 HD
ENDBRANCH  13  17
ENDBRANCH   6  10
BRANCH   1  19
ATOM     19  O   UNL     1       0.440  11.056  20.880  0.00  0.00    +0.000 OA
ATOM     20  H   UNL     1      -0.048  10.663  21.621  0.00  0.00    +0.000 HD
ENDBRANCH   1  19
TORSDOF 3
ENDMDL
MODEL 7
REMARK VINA RESULT:      -6.6      4.699      5.066
REMARK  Name = 
REMARK  3 active torsions:
REMARK  status: ('A' for Active; 'I' for Inactive)
REMARK    1  A    between atoms: O_1  and  C_2
REMARK    2  A    between atoms: N_7  and  C_8
REMARK    3  A    between atoms: C_11  and  O_12
REMARK                            x       y       z     vdW  Elec       q    Type
REMARK                         _______ _______ _______ _____ _____    ______ ____
ROOT
ATOM      1  C   UNL     1       0.141   9.829  20.995  0.00  0.00    +0.000 A 
ATOM      2  C   UNL     1       0.193  10.591  19.788  0.00  0.00    +0.000 A 
ATOM      3  C   UNL     1       0.933  10.185  18.653  0.00  0.00    +0.000 A 
ATOM      4  C   UNL     1       1.604   8.961  18.823  0.00  0.00    +0.000 A 
ATOM      5  N   UNL     1       2.387   8.280  17.975  0.00  0.00    +0.000 NA
ATOM      6  N   UNL     1       2.738   7.137  18.630  0.00  0.00    +0.000 N 
ATOM      7  C   UNL     1       2.234   7.096  19.912  0.00  0.00    +0.000 A 
ATOM      8  C   UNL     1       1.503   8.239  20.059  0.00  0.00    +0.000 A 
ATOM      9  C   UNL     1       0.797   8.604  21.197  0.00  0.00    +0.000 A 
ENDROOT
BRANCH   6  10
ATOM     10  C   UNL     1       3.524   6.144  17.976  0.00  0.00    +0.000 A 
ATOM     11  C   UNL     1       4.544   6.536  17.093  0.00  0.00    +0.000 A 
ATOM     12  C   UNL     1       5.309   5.579  16.421  0.00  0.00    +0.000 A 
ATOM     13  C   UNL     1       5.052   4.223  16.621  0.00  0.00    +0.000 A 
ATOM     14  C   UNL     1       4.042   3.824  17.500  0.00  0.00    +0.000 A 
ATOM     15 CL   UNL     1       3.687   2.154  17.762  0.00  0.00    +0.000 Cl
ATOM     16  C   UNL     1       3.282   4.779  18.182  0.00  0.00    +0.000 A 
BRANCH  13  17
ATOM     17  O   UNL     1       5.787   3.285  15.951  0.00  0.00    +0.000 OA
ATOM     18  H   UNL     1       6.397   3.728  15.341  0.00  0.00    +0.000 HD
ENDBRANCH  13  17
ENDBRANCH   6  10
BRANCH   1  19
ATOM     19  O   UNL     1      -0.594  10.295  22.058  0.00  0.00    +0.000 OA
ATOM     20  H   UNL     1      -0.625  11.264  22.019  0.00  0.00    +0.000 HD
ENDBRANCH   1  19
TORSDOF 3
ENDMDL
MODEL 8
REMARK VINA RESULT:      -6.6      4.954      5.483
REMARK  Name = 
REMARK  3 active torsions:
REMARK  status: ('A' for Active; 'I' for Inactive)
REMARK    1  A    between atoms: O_1  and  C_2
REMARK    2  A    between atoms: N_7  and  C_8
REMARK    3  A    between atoms: C_11  and  O_12
REMARK                            x       y       z     vdW  Elec       q    Type
REMARK                         _______ _______ _______ _____ _____    ______ ____
ROOT
ATOM      1  C   UNL     1       0.313  10.744  20.025  0.00  0.00    +0.000 A 
ATOM      2  C   UNL     1       0.373   9.995  21.239  0.00  0.00    +0.000 A 
ATOM      3  C   UNL     1       1.006   8.734  21.334  0.00  0.00    +0.000 A 
ATOM      4  C   UNL     1       1.576   8.294  20.127  0.00  0.00    +0.000 A 
ATOM      5  N   UNL     1       2.244   7.166  19.848  0.00  0.00    +0.000 NA
ATOM      6  N   UNL     1       2.614   7.268  18.539  0.00  0.00    +0.000 N 
ATOM      7  C   UNL     1       2.147   8.425  17.955  0.00  0.00    +0.000 A 
ATOM      8  C   UNL     1       1.490   9.099  18.943  0.00  0.00    +0.000 A 
ATOM      9  C   UNL     1       0.873  10.334  18.803  0.00  0.00    +0.000 A 
ENDROOT
BRANCH   6  10
ATOM     10  C   UNL     1       3.411   6.252  17.935  0.00  0.00    +0.000 A 
ATOM     11  C   UNL     1       2.882   4.962  17.767  0.00  0.00    +0.000 A 
ATOM     12  C   UNL     1       3.655   3.945  17.201  0.00  0.00    +0.000 A 
ATOM     13  C   UNL     1       4.966   4.210  16.808  0.00  0.00    +0.000 A 
ATOM     14  C   UNL     1       5.500   5.491  16.968  0.00  0.00    +0.000 A 
ATOM     15 CL   UNL     1       7.125   5.853  16.505  0.00  0.00    +0.000 Cl
ATOM     16  C   UNL     1       4.726   6.514  17.525  0.00  0.00    +0.000 A 
BRANCH  13  17
ATOM     17  O   UNL     1       5.731   3.212  16.271  0.00  0.00    +0.000 OA
ATOM     18  H   UNL     1       5.203   2.401  16.204  0.00  0.00    +0.000 HD
ENDBRANCH  13  17
ENDBRANCH   6  10
BRANCH   1  19
ATOM     19  O   UNL     1      -0.328  11.959  20.009  0.00  0.00    +0.000 OA
ATOM     20  H   UNL     1      -1.283  11.810  19.917  0.00  0.00    +0.000 HD
ENDBRANCH   1  19
TORSDOF 3
ENDMDL
MODEL 9
REMARK VINA RESULT:      -6.6      0.985      1.673
REMARK  Name = 
REMARK  3 active torsions:
REMARK  status: ('A' for Active; 'I' for Inactive)
REMARK    1  A    between atoms: O_1  and  C_2
REMARK    2  A    between atoms: N_7  and  C_8
REMARK    3  A    between atoms: C_11  and  O_12
REMARK                            x       y       z     vdW  Elec       q    Type
REMARK                         _______ _______ _______ _____ _____    ______ ____
ROOT
ATOM      1  C   UNL     1       1.135   2.839  19.746  0.00  0.00    +0.000 A 
ATOM      2  C   UNL     1       2.198   2.671  20.684  0.00  0.00    +0.000 A 
ATOM      3  C   UNL     1       3.558   2.866  20.349  0.00  0.00    +0.000 A 
ATOM      4  C   UNL     1       3.762   3.247  19.011  0.00  0.00    +0.000 A 
ATOM      5  N   UNL     1       4.899   3.512  18.352  0.00  0.00    +0.000 NA
ATOM      6  N   UNL     1       4.522   3.878  17.094  0.00  0.00    +0.000 N 
ATOM      7  C   UNL     1       3.158   3.800  16.915  0.00  0.00    +0.000 A 
ATOM      8  C   UNL     1       2.649   3.409  18.120  0.00  0.00    +0.000 A 
ATOM      9  C   UNL     1       1.304   3.220  18.404  0.00  0.00    +0.000 A 
ENDROOT
BRANCH   6  10
ATOM     10  C   UNL     1       5.497   4.297  16.143  0.00  0.00    +0.000 A 
ATOM     11  C   UNL     1       6.446   5.269  16.503  0.00  0.00    +0.000 A 
ATOM     12  C   UNL     1       7.394   5.713  15.577  0.00  0.00    +0.000 A 
ATOM     13  C   UNL     1       7.394   5.195  14.283  0.00  0.00    +0.000 A 
ATOM     14  C   UNL     1       6.457   4.225  13.917  0.00  0.00    +0.000 A 
ATOM     15 CL   UNL     1       6.418   3.570  12.319  0.00  0.00    +0.000 Cl
ATOM     16  C   UNL     1       5.513   3.771  14.843  0.00  0.00    +0.000 A 
BRANCH  13  17
ATOM     17  O   UNL     1       8.309   5.641  13.370  0.00  0.00    +0.000 OA
ATOM     18  H   UNL     1       9.008   6.135  13.829  0.00  0.00    +0.000 HD
ENDBRANCH  13  17
ENDBRANCH   6  10
BRANCH   1  19
ATOM     19  O   UNL     1      -0.162   2.623  20.146  0.00  0.00    +0.000 OA
ATOM     20  H   UNL     1      -0.251   1.702  20.438  0.00  0.00    +0.000 HD
ENDBRANCH   1  19
TORSDOF 3
ENDMDL
