MODEL 1
REMARK VINA RESULT:      -8.8      0.000      0.000
REMARK  Name = 
REMARK  2 active torsions:
REMARK  status: ('A' for Active; 'I' for Inactive)
REMARK    1  A    between atoms: C_11  and  C_12
REMARK    2  A    between atoms: C_12  and  C_13
REMARK                            x       y       z     vdW  Elec       q    Type
REMARK                         _______ _______ _______ _____ _____    ______ ____
ROOT
ATOM      1  O   UNL     1       0.022   9.973  23.467  0.00  0.00    +0.000 OA
ATOM      2  C   UNL     1      -0.510  10.699  22.639  0.00  0.00    +0.000 C 
ATOM      3  C   UNL     1      -1.307  11.925  23.005  0.00  0.00    +0.000 C 
ATOM      4  C   UNL     1      -1.705  12.577  21.684  0.00  0.00    +0.000 C 
ATOM      5  C   UNL     1      -1.297  11.595  20.600  0.00  0.00    +0.000 C 
ATOM      6  C   UNL     1      -0.537  12.206  19.431  0.00  0.00    +0.000 C 
ATOM      7  O   UNL     1      -0.154  11.192  18.488  0.00  0.00    +0.000 OA
ATOM      8  C   UNL     1       0.457  10.106  19.083  0.00  0.00    +0.000 A 
ATOM      9  C   UNL     1       1.234   9.311  18.243  0.00  0.00    +0.000 A 
ATOM     10  C   UNL     1       1.920   8.213  18.763  0.00  0.00    +0.000 A 
ATOM     11  C   UNL     1       1.827   7.896  20.126  0.00  0.00    +0.000 A 
ATOM     12  C   UNL     1       1.021   8.686  20.960  0.00  0.00    +0.000 A 
ATOM     13  C   UNL     1       0.335   9.792  20.450  0.00  0.00    +0.000 A 
ATOM     14  N   UNL     1      -0.461  10.627  21.260  0.00  0.00    +0.000 N 
ENDROOT
BRANCH  11  15
ATOM     15  C   UNL     1       2.563   6.702  20.690  0.00  0.00    +0.000 C 
BRANCH  15  16
ATOM     16  C   UNL     1       2.087   5.381  20.088  0.00  0.00    +0.000 A 
ATOM     17  N   UNL     1       0.971   4.903  20.553  0.00  0.00    +0.000 NA
ATOM     18  N   UNL     1       0.526   3.729  20.037  0.00  0.00    +0.000 N 
ATOM     19  C   UNL     1       1.143   2.994  19.061  0.00  0.00    +0.000 A 
ATOM     20  O   UNL     1       0.695   1.925  18.667  0.00  0.00    +0.000 OA
ATOM     21  C   UNL     1       2.386   3.578  18.501  0.00  0.00    +0.000 A 
ATOM     22  C   UNL     1       2.878   4.730  18.997  0.00  0.00    +0.000 A 
ATOM     23  C   UNL     1       4.144   5.349  18.472  0.00  0.00    +0.000 C 
ATOM     24  C   UNL     1       4.953   4.412  17.569  0.00  0.00    +0.000 C 
ATOM     25  C   UNL     1       4.044   3.668  16.598  0.00  0.00    +0.000 C 
ATOM     26  C   UNL     1       3.021   2.827  17.362  0.00  0.00    +0.000 C 
ATOM     27  H   UNL     1      -0.324   3.347  20.436  0.00  0.00    +0.000 HD
ENDBRANCH  15  16
ENDBRANCH  11  15
TORSDOF 2
ENDMDL
MODEL 2
REMARK VINA RESULT:      -8.6      1.634      2.259
REMARK  Name = 
REMARK  2 active torsions:
REMARK  status: ('A' for Active; 'I' for Inactive)
REMARK    1  A    between atoms: C_11  and  C_12
REMARK    2  A    between atoms: C_12  and  C_13
REMARK                            x       y       z     vdW  Elec       q    Type
REMARK                         _______ _______ _______ _____ _____    ______ ____
ROOT
ATOM      1  O   UNL     1      -0.167  10.053  23.421  0.00  0.00    +0.000 OA
ATOM      2  C   UNL     1      -0.648  10.860  22.639  0.00  0.00    +0.000 C 
ATOM      3  C   UNL     1      -1.393  12.096  23.080  0.00  0.00    +0.000 C 
ATOM      4  C   UNL     1      -1.735  12.857  21.803  0.00  0.00    +0.000 C 
ATOM      5  C   UNL     1      -1.355  11.935  20.657  0.00  0.00    +0.000 C 
ATOM      6  C   UNL     1      -0.545  12.590  19.547  0.00  0.00    +0.000 C 
ATOM      7  O   UNL     1      -0.193  11.628  18.540  0.00  0.00    +0.000 OA
ATOM      8  C   UNL     1       0.355  10.474  19.064  0.00  0.00    +0.000 A 
ATOM      9  C   UNL     1       1.108   9.703  18.182  0.00  0.00    +0.000 A 
ATOM     10  C   UNL     1       1.732   8.540  18.633  0.00  0.00    +0.000 A 
ATOM     11  C   UNL     1       1.600   8.132  19.967  0.00  0.00    +0.000 A 
ATOM     12  C   UNL     1       0.816   8.900  20.843  0.00  0.00    +0.000 A 
ATOM     13  C   UNL     1       0.193  10.071  20.404  0.00  0.00    +0.000 A 
ATOM     14  N   UNL     1      -0.577  10.884  21.259  0.00  0.00    +0.000 N 
ENDROOT
BRANCH  11  15
ATOM     15  C   UNL     1       2.267   6.867  20.456  0.00  0.00    +0.000 C 
BRANCH  15  16
ATOM     16  C   UNL     1       2.846   6.030  19.317  0.00  0.00    +0.000 A 
ATOM     17  N   UNL     1       3.826   6.562  18.648  0.00  0.00    +0.000 NA
ATOM     18  N   UNL     1       4.358   5.840  17.630  0.00  0.00    +0.000 N 
ATOM     19  C   UNL     1       3.961   4.591  17.236  0.00  0.00    +0.000 A 
ATOM     20  O   UNL     1       4.470   4.013  16.285  0.00  0.00    +0.000 OA
ATOM     21  C   UNL     1       2.880   3.973  18.042  0.00  0.00    +0.000 A 
ATOM     22  C   UNL     1       2.307   4.660  19.049  0.00  0.00    +0.000 A 
ATOM     23  C   UNL     1       1.195   4.080  19.880  0.00  0.00    +0.000 C 
ATOM     24  C   UNL     1       0.593   2.801  19.288  0.00  0.00    +0.000 C 
ATOM     25  C   UNL     1       1.683   1.871  18.771  0.00  0.00    +0.000 C 
ATOM     26  C   UNL     1       2.502   2.562  17.679  0.00  0.00    +0.000 C 
ATOM     27  H   UNL     1       5.093   6.283  17.091  0.00  0.00    +0.000 HD
ENDBRANCH  15  16
ENDBRANCH  11  15
TORSDOF 2
ENDMDL
MODEL 3
REMARK VINA RESULT:      -8.3      1.969      7.762
REMARK  Name = 
REMARK  2 active torsions:
REMARK  status: ('A' for Active; 'I' for Inactive)
REMARK    1  A    between atoms: C_11  and  C_12
REMARK    2  A    between atoms: C_12  and  C_13
REMARK                            x       y       z     vdW  Elec       q    Type
REMARK                         _______ _______ _______ _____ _____    ______ ____
ROOT
ATOM      1  O   UNL     1       0.670   3.812  19.090  0.00  0.00    +0.000 OA
ATOM      2  C   UNL     1       1.776   3.333  18.885  0.00  0.00    +0.000 C 
ATOM      3  C   UNL     1       2.053   1.850  18.913  0.00  0.00    +0.000 C 
ATOM      4  C   UNL     1       3.518   1.690  18.520  0.00  0.00    +0.000 C 
ATOM      5  C   UNL     1       4.091   3.096  18.476  0.00  0.00    +0.000 C 
ATOM      6  C   UNL     1       4.912   3.418  17.235  0.00  0.00    +0.000 C 
ATOM      7  O   UNL     1       5.363   4.781  17.264  0.00  0.00    +0.000 OA
ATOM      8  C   UNL     1       4.354   5.678  17.550  0.00  0.00    +0.000 A 
ATOM      9  C   UNL     1       4.590   6.999  17.174  0.00  0.00    +0.000 A 
ATOM     10  C   UNL     1       3.610   7.968  17.387  0.00  0.00    +0.000 A 
ATOM     11  C   UNL     1       2.390   7.628  17.987  0.00  0.00    +0.000 A 
ATOM     12  C   UNL     1       2.171   6.300  18.389  0.00  0.00    +0.000 A 
ATOM     13  C   UNL     1       3.142   5.320  18.173  0.00  0.00    +0.000 A 
ATOM     14  N   UNL     1       2.950   3.972  18.534  0.00  0.00    +0.000 N 
ENDROOT
BRANCH  11  15
ATOM     15  C   UNL     1       1.330   8.678  18.228  0.00  0.00    +0.000 C 
BRANCH  15  16
ATOM     16  C   UNL     1       1.116   8.968  19.713  0.00  0.00    +0.000 A 
ATOM     17  N   UNL     1       1.800   8.243  20.547  0.00  0.00    +0.000 NA
ATOM     18  N   UNL     1       1.629   8.479  21.872  0.00  0.00    +0.000 N 
ATOM     19  C   UNL     1       0.799   9.418  22.422  0.00  0.00    +0.000 A 
ATOM     20  O   UNL     1       0.673   9.552  23.633  0.00  0.00    +0.000 OA
ATOM     21  C   UNL     1       0.066  10.275  21.458  0.00  0.00    +0.000 A 
ATOM     22  C   UNL     1       0.188  10.065  20.134  0.00  0.00    +0.000 A 
ATOM     23  C   UNL     1      -0.550  10.897  19.121  0.00  0.00    +0.000 C 
ATOM     24  C   UNL     1      -1.652  11.768  19.733  0.00  0.00    +0.000 C 
ATOM     25  C   UNL     1      -1.174  12.432  21.019  0.00  0.00    +0.000 C 
ATOM     26  C   UNL     1      -0.775  11.375  22.049  0.00  0.00    +0.000 C 
ATOM     27  H   UNL     1       2.137   7.880  22.514  0.00  0.00    +0.000 HD
ENDBRANCH  15  16
ENDBRANCH  11  15
TORSDOF 2
ENDMDL
MODEL 4
REMARK VINA RESULT:      -8.2      2.619      8.214
REMARK  Name = 
REMARK  2 active torsions:
REMARK  status: ('A' for Active; 'I' for Inactive)
REMARK    1  A    between atoms: C_11  and  C_12
REMARK    2  A    between atoms: C_12  and  C_13
REMARK                            x       y       z     vdW  Elec       q    Type
REMARK                         _______ _______ _______ _____ _____    ______ ____
ROOT
ATOM      1  O   UNL     1       5.068   7.051  15.433  0.00  0.00    +0.000 OA
ATOM      2  C   UNL     1       5.100   6.032  16.107  0.00  0.00    +0.000 C 
ATOM      3  C   UNL     1       6.073   4.906  15.859  0.00  0.00    +0.000 C 
ATOM      4  C   UNL     1       5.830   3.891  16.972  0.00  0.00    +0.000 C 
ATOM      5  C   UNL     1       4.589   4.368  17.705  0.00  0.00    +0.000 C 
ATOM      6  C   UNL     1       4.707   4.388  19.223  0.00  0.00    +0.000 C 
ATOM      7  O   UNL     1       3.504   4.901  19.818  0.00  0.00    +0.000 OA
ATOM      8  C   UNL     1       3.081   6.084  19.246  0.00  0.00    +0.000 A 
ATOM      9  C   UNL     1       2.216   6.857  20.018  0.00  0.00    +0.000 A 
ATOM     10  C   UNL     1       1.767   8.087  19.538  0.00  0.00    +0.000 A 
ATOM     11  C   UNL     1       2.171   8.550  18.277  0.00  0.00    +0.000 A 
ATOM     12  C   UNL     1       3.019   7.752  17.494  0.00  0.00    +0.000 A 
ATOM     13  C   UNL     1       3.481   6.522  17.969  0.00  0.00    +0.000 A 
ATOM     14  N   UNL     1       4.357   5.706  17.226  0.00  0.00    +0.000 N 
ENDROOT
BRANCH  11  15
ATOM     15  C   UNL     1       1.678   9.879  17.751  0.00  0.00    +0.000 C 
BRANCH  15  16
ATOM     16  C   UNL     1       0.783  10.611  18.749  0.00  0.00    +0.000 A 
ATOM     17  N   UNL     1       1.384  11.198  19.741  0.00  0.00    +0.000 NA
ATOM     18  N   UNL     1       0.613  11.855  20.644  0.00  0.00    +0.000 N 
ATOM     19  C   UNL     1      -0.751  11.966  20.608  0.00  0.00    +0.000 A 
ATOM     20  O   UNL     1      -1.382  12.552  21.479  0.00  0.00    +0.000 OA
ATOM     21  C   UNL     1      -1.419  11.339  19.441  0.00  0.00    +0.000 A 
ATOM     22  C   UNL     1      -0.697  10.658  18.531  0.00  0.00    +0.000 A 
ATOM     23  C   UNL     1      -1.335   9.992  17.343  0.00  0.00    +0.000 C 
ATOM     24  C   UNL     1      -2.861   9.904  17.438  0.00  0.00    +0.000 C 
ATOM     25  C   UNL     1      -3.453  11.212  17.950  0.00  0.00    +0.000 C 
ATOM     26  C   UNL     1      -2.907  11.537  19.341  0.00  0.00    +0.000 C 
ATOM     27  H   UNL     1       1.090  12.274  21.435  0.00  0.00    +0.000 HD
ENDBRANCH  15  16
ENDBRANCH  11  15
TORSDOF 2
ENDMDL
MODEL 5
REMARK VINA RESULT:      -8.1      2.349      8.055
REMARK  Name = 
REMARK  2 active torsions:
REMARK  status: ('A' for Active; 'I' for Inactive)
REMARK    1  A    between atoms: C_11  and  C_12
REMARK    2  A    between atoms: C_12  and  C_13
REMARK                            x       y       z     vdW  Elec       q    Type
REMARK                         _______ _______ _______ _____ _____    ______ ____
ROOT
ATOM      1  O   UNL     1       4.377   6.010  16.573  0.00  0.00    +0.000 OA
ATOM      2  C   UNL     1       4.081   5.137  17.376  0.00  0.00    +0.000 C 
ATOM      3  C   UNL     1       4.710   3.766  17.379  0.00  0.00    +0.000 C 
ATOM      4  C   UNL     1       4.126   3.040  18.586  0.00  0.00    +0.000 C 
ATOM      5  C   UNL     1       3.028   3.942  19.122  0.00  0.00    +0.000 C 
ATOM      6  C   UNL     1       3.056   4.165  20.627  0.00  0.00    +0.000 C 
ATOM      7  O   UNL     1       2.014   5.069  21.026  0.00  0.00    +0.000 OA
ATOM      8  C   UNL     1       1.976   6.219  20.263  0.00  0.00    +0.000 A 
ATOM      9  C   UNL     1       1.321   7.307  20.835  0.00  0.00    +0.000 A 
ATOM     10  C   UNL     1       1.265   8.523  20.153  0.00  0.00    +0.000 A 
ATOM     11  C   UNL     1       1.857   8.658  18.889  0.00  0.00    +0.000 A 
ATOM     12  C   UNL     1       2.491   7.549  18.308  0.00  0.00    +0.000 A 
ATOM     13  C   UNL     1       2.559   6.329  18.985  0.00  0.00    +0.000 A 
ATOM     14  N   UNL     1       3.212   5.201  18.449  0.00  0.00    +0.000 N 
ENDROOT
BRANCH  11  15
ATOM     15  C   UNL     1       1.790   9.972  18.145  0.00  0.00    +0.000 C 
BRANCH  15  16
ATOM     16  C   UNL     1       0.834  10.969  18.796  0.00  0.00    +0.000 A 
ATOM     17  N   UNL     1       1.372  11.860  19.576  0.00  0.00    +0.000 NA
ATOM     18  N   UNL     1       0.546  12.759  20.168  0.00  0.00    +0.000 N 
ATOM     19  C   UNL     1      -0.813  12.821  20.021  0.00  0.00    +0.000 A 
ATOM     20  O   UNL     1      -1.499  13.644  20.615  0.00  0.00    +0.000 OA
ATOM     21  C   UNL     1      -1.407  11.834  19.086  0.00  0.00    +0.000 A 
ATOM     22  C   UNL     1      -0.630  10.910  18.491  0.00  0.00    +0.000 A 
ATOM     23  C   UNL     1      -1.192   9.879  17.551  0.00  0.00    +0.000 C 
ATOM     24  C   UNL     1      -2.721   9.793  17.581  0.00  0.00    +0.000 C 
ATOM     25  C   UNL     1      -3.347  11.182  17.604  0.00  0.00    +0.000 C 
ATOM     26  C   UNL     1      -2.888  11.955  18.842  0.00  0.00    +0.000 C 
ATOM     27  H   UNL     1       0.972  13.422  20.805  0.00  0.00    +0.000 HD
ENDBRANCH  15  16
ENDBRANCH  11  15
TORSDOF 2
ENDMDL
MODEL 6
REMARK VINA RESULT:      -8.1      2.963      8.500
REMARK  Name = 
REMARK  2 active torsions:
REMARK  status: ('A' for Active; 'I' for Inactive)
REMARK    1  A    between atoms: C_11  and  C_12
REMARK    2  A    between atoms: C_12  and  C_13
REMARK                            x       y       z     vdW  Elec       q    Type
REMARK                         _______ _______ _______ _____ _____    ______ ____
ROOT
ATOM      1  O   UNL     1       5.022   7.041  15.155  0.00  0.00    +0.000 OA
ATOM      2  C   UNL     1       5.438   6.138  15.867  0.00  0.00    +0.000 C 
ATOM      3  C   UNL     1       6.680   5.342  15.551  0.00  0.00    +0.000 C 
ATOM      4  C   UNL     1       6.881   4.395  16.731  0.00  0.00    +0.000 C 
ATOM      5  C   UNL     1       5.637   4.535  17.591  0.00  0.00    +0.000 C 
ATOM      6  C   UNL     1       5.901   4.714  19.079  0.00  0.00    +0.000 C 
ATOM      7  O   UNL     1       4.668   4.888  19.796  0.00  0.00    +0.000 OA
ATOM      8  C   UNL     1       3.843   5.837  19.227  0.00  0.00    +0.000 A 
ATOM      9  C   UNL     1       2.867   6.375  20.065  0.00  0.00    +0.000 A 
ATOM     10  C   UNL     1       2.012   7.368  19.588  0.00  0.00    +0.000 A 
ATOM     11  C   UNL     1       2.119   7.826  18.267  0.00  0.00    +0.000 A 
ATOM     12  C   UNL     1       3.085   7.259  17.422  0.00  0.00    +0.000 A 
ATOM     13  C   UNL     1       3.952   6.269  17.891  0.00  0.00    +0.000 A 
ATOM     14  N   UNL     1       4.955   5.696  17.083  0.00  0.00    +0.000 N 
ENDROOT
BRANCH  11  15
ATOM     15  C   UNL     1       1.187   8.896  17.745  0.00  0.00    +0.000 C 
BRANCH  15  16
ATOM     16  C   UNL     1       1.584  10.297  18.206  0.00  0.00    +0.000 A 
ATOM     17  N   UNL     1       2.455  10.922  17.469  0.00  0.00    +0.000 NA
ATOM     18  N   UNL     1       2.826  12.169  17.856  0.00  0.00    +0.000 N 
ATOM     19  C   UNL     1       2.367  12.840  18.956  0.00  0.00    +0.000 A 
ATOM     20  O   UNL     1       2.773  13.955  19.259  0.00  0.00    +0.000 OA
ATOM     21  C   UNL     1       1.334  12.138  19.756  0.00  0.00    +0.000 A 
ATOM     22  C   UNL     1       0.949  10.892  19.424  0.00  0.00    +0.000 A 
ATOM     23  C   UNL     1      -0.081  10.135  20.217  0.00  0.00    +0.000 C 
ATOM     24  C   UNL     1      -0.405  10.779  21.569  0.00  0.00    +0.000 C 
ATOM     25  C   UNL     1      -0.548  12.291  21.434  0.00  0.00    +0.000 C 
ATOM     26  C   UNL     1       0.751  12.906  20.912  0.00  0.00    +0.000 C 
ATOM     27  H   UNL     1       3.535  12.629  17.296  0.00  0.00    +0.000 HD
ENDBRANCH  15  16
ENDBRANCH  11  15
TORSDOF 2
ENDMDL
MODEL 7
REMARK VINA RESULT:      -8.0      2.600      8.175
REMARK  Name = 
REMARK  2 active torsions:
REMARK  status: ('A' for Active; 'I' for Inactive)
REMARK    1  A    between atoms: C_11  and  C_12
REMARK    2  A    between atoms: C_12  and  C_13
REMARK                            x       y       z     vdW  Elec       q    Type
REMARK                         _______ _______ _______ _____ _____    ______ ____
ROOT
ATOM      1  O   UNL     1       5.209   7.006  15.506  0.00  0.00    +0.000 OA
ATOM      2  C   UNL     1       5.093   5.895  16.003  0.00  0.00    +0.000 C 
ATOM      3  C   UNL     1       5.933   4.712  15.589  0.00  0.00    +0.000 C 
ATOM      4  C   UNL     1       5.530   3.567  16.514  0.00  0.00    +0.000 C 
ATOM      5  C   UNL     1       4.328   4.070  17.294  0.00  0.00    +0.000 C 
ATOM      6  C   UNL     1       4.390   3.828  18.796  0.00  0.00    +0.000 C 
ATOM      7  O   UNL     1       3.236   4.383  19.448  0.00  0.00    +0.000 OA
ATOM      8  C   UNL     1       2.979   5.686  19.072  0.00  0.00    +0.000 A 
ATOM      9  C   UNL     1       2.185   6.426  19.946  0.00  0.00    +0.000 A 
ATOM     10  C   UNL     1       1.904   7.763  19.668  0.00  0.00    +0.000 A 
ATOM     11  C   UNL     1       2.407   8.371  18.510  0.00  0.00    +0.000 A 
ATOM     12  C   UNL     1       3.183   7.612  17.620  0.00  0.00    +0.000 A 
ATOM     13  C   UNL     1       3.476   6.273  17.892  0.00  0.00    +0.000 A 
ATOM     14  N   UNL     1       4.276   5.486  17.040  0.00  0.00    +0.000 N 
ENDROOT
BRANCH  11  15
ATOM     15  C   UNL     1       2.097   9.818  18.202  0.00  0.00    +0.000 C 
BRANCH  15  16
ATOM     16  C   UNL     1       0.602  10.127  18.272  0.00  0.00    +0.000 A 
ATOM     17  N   UNL     1      -0.151   9.543  17.387  0.00  0.00    +0.000 NA
ATOM     18  N   UNL     1      -1.482   9.800  17.426  0.00  0.00    +0.000 N 
ATOM     19  C   UNL     1      -2.118  10.621  18.319  0.00  0.00    +0.000 A 
ATOM     20  O   UNL     1      -3.324  10.829  18.272  0.00  0.00    +0.000 OA
ATOM     21  C   UNL     1      -1.255  11.236  19.357  0.00  0.00    +0.000 A 
ATOM     22  C   UNL     1       0.075  11.027  19.345  0.00  0.00    +0.000 A 
ATOM     23  C   UNL     1       0.989  11.646  20.367  0.00  0.00    +0.000 C 
ATOM     24  C   UNL     1       0.321  12.745  21.199  0.00  0.00    +0.000 C 
ATOM     25  C   UNL     1      -1.081  12.331  21.626  0.00  0.00    +0.000 C 
ATOM     26  C   UNL     1      -1.957  12.063  20.401  0.00  0.00    +0.000 C 
ATOM     27  H   UNL     1      -2.053   9.371  16.706  0.00  0.00    +0.000 HD
ENDBRANCH  15  16
ENDBRANCH  11  15
TORSDOF 2
ENDMDL
MODEL 8
REMARK VINA RESULT:      -8.0      2.169      3.369
REMARK  Name = 
REMARK  2 active torsions:
REMARK  status: ('A' for Active; 'I' for Inactive)
REMARK    1  A    between atoms: C_11  and  C_12
REMARK    2  A    between atoms: C_12  and  C_13
REMARK                            x       y       z     vdW  Elec       q    Type
REMARK                         _______ _______ _______ _____ _____    ______ ____
ROOT
ATOM      1  O   UNL     1      -0.931  11.575  18.172  0.00  0.00    +0.000 OA
ATOM      2  C   UNL     1      -0.947  11.791  19.376  0.00  0.00    +0.000 C 
ATOM      3  C   UNL     1      -1.836  12.828  20.017  0.00  0.00    +0.000 C 
ATOM      4  C   UNL     1      -1.607  12.703  21.520  0.00  0.00    +0.000 C 
ATOM      5  C   UNL     1      -0.446  11.738  21.684  0.00  0.00    +0.000 C 
ATOM      6  C   UNL     1      -0.661  10.640  22.716  0.00  0.00    +0.000 C 
ATOM      7  O   UNL     1       0.468   9.754  22.758  0.00  0.00    +0.000 OA
ATOM      8  C   UNL     1       0.858   9.317  21.508  0.00  0.00    +0.000 A 
ATOM      9  C   UNL     1       1.625   8.154  21.482  0.00  0.00    +0.000 A 
ATOM     10  C   UNL     1       2.032   7.616  20.261  0.00  0.00    +0.000 A 
ATOM     11  C   UNL     1       1.685   8.242  19.056  0.00  0.00    +0.000 A 
ATOM     12  C   UNL     1       0.936   9.429  19.092  0.00  0.00    +0.000 A 
ATOM     13  C   UNL     1       0.516   9.972  20.309  0.00  0.00    +0.000 A 
ATOM     14  N   UNL     1      -0.261  11.144  20.385  0.00  0.00    +0.000 N 
ENDROOT
BRANCH  11  15
ATOM     15  C   UNL     1       2.133   7.666  17.732  0.00  0.00    +0.000 C 
BRANCH  15  16
ATOM     16  C   UNL     1       3.294   6.685  17.881  0.00  0.00    +0.000 A 
ATOM     17  N   UNL     1       4.489   7.196  17.854  0.00  0.00    +0.000 NA
ATOM     18  N   UNL     1       5.540   6.347  17.983  0.00  0.00    +0.000 N 
ATOM     19  C   UNL     1       5.462   4.990  18.143  0.00  0.00    +0.000 A 
ATOM     20  O   UNL     1       6.459   4.283  18.222  0.00  0.00    +0.000 OA
ATOM     21  C   UNL     1       4.093   4.427  18.227  0.00  0.00    +0.000 A 
ATOM     22  C   UNL     1       3.020   5.228  18.083  0.00  0.00    +0.000 A 
ATOM     23  C   UNL     1       1.614   4.697  18.142  0.00  0.00    +0.000 C 
ATOM     24  C   UNL     1       1.533   3.169  18.071  0.00  0.00    +0.000 C 
ATOM     25  C   UNL     1       2.598   2.524  18.951  0.00  0.00    +0.000 C 
ATOM     26  C   UNL     1       3.995   2.950  18.499  0.00  0.00    +0.000 C 
ATOM     27  H   UNL     1       6.467   6.752  17.920  0.00  0.00    +0.000 HD
ENDBRANCH  15  16
ENDBRANCH  11  15
TORSDOF 2
ENDMDL
MODEL 9
REMARK VINA RESULT:      -7.9      2.775      8.329
REMARK  Name = 
REMARK  2 active torsions:
REMARK  status: ('A' for Active; 'I' for Inactive)
REMARK    1  A    between atoms: C_11  and  C_12
REMARK    2  A    between atoms: C_12  and  C_13
REMARK                            x       y       z     vdW  Elec       q    Type
REMARK                         _______ _______ _______ _____ _____    ______ ____
ROOT
ATOM      1  O   UNL     1       5.040   7.148  15.166  0.00  0.00    +0.000 OA
ATOM      2  C   UNL     1       5.284   6.131  15.800  0.00  0.00    +0.000 C 
ATOM      3  C   UNL     1       6.388   5.172  15.431  0.00  0.00    +0.000 C 
ATOM      4  C   UNL     1       6.401   4.108  16.524  0.00  0.00    +0.000 C 
ATOM      5  C   UNL     1       5.174   4.375  17.377  0.00  0.00    +0.000 C 
ATOM      6  C   UNL     1       5.423   4.381  18.879  0.00  0.00    +0.000 C 
ATOM      7  O   UNL     1       4.217   4.693  19.593  0.00  0.00    +0.000 OA
ATOM      8  C   UNL     1       3.571   5.809  19.101  0.00  0.00    +0.000 A 
ATOM      9  C   UNL     1       2.674   6.426  19.970  0.00  0.00    +0.000 A 
ATOM     10  C   UNL     1       2.005   7.583  19.573  0.00  0.00    +0.000 A 
ATOM     11  C   UNL     1       2.219   8.129  18.299  0.00  0.00    +0.000 A 
ATOM     12  C   UNL     1       3.104   7.486  17.419  0.00  0.00    +0.000 A 
ATOM     13  C   UNL     1       3.785   6.330  17.810  0.00  0.00    +0.000 A 
ATOM     14  N   UNL     1       4.703   5.672  16.967  0.00  0.00    +0.000 N 
ENDROOT
BRANCH  11  15
ATOM     15  C   UNL     1       1.488   9.378  17.863  0.00  0.00    +0.000 C 
BRANCH  15  16
ATOM     16  C   UNL     1       1.088  10.266  19.040  0.00  0.00    +0.000 A 
ATOM     17  N   UNL     1       0.318   9.724  19.937  0.00  0.00    +0.000 NA
ATOM     18  N   UNL     1      -0.054  10.491  20.993  0.00  0.00    +0.000 N 
ATOM     19  C   UNL     1       0.309  11.793  21.209  0.00  0.00    +0.000 A 
ATOM     20  O   UNL     1      -0.093  12.432  22.173  0.00  0.00    +0.000 OA
ATOM     21  C   UNL     1       1.232  12.381  20.207  0.00  0.00    +0.000 A 
ATOM     22  C   UNL     1       1.611  11.665  19.132  0.00  0.00    +0.000 A 
ATOM     23  C   UNL     1       2.530  12.227  18.082  0.00  0.00    +0.000 C 
ATOM     24  C   UNL     1       2.731  13.742  18.194  0.00  0.00    +0.000 C 
ATOM     25  C   UNL     1       2.933  14.161  19.645  0.00  0.00    +0.000 C 
ATOM     26  C   UNL     1       1.714  13.779  20.487  0.00  0.00    +0.000 C 
ATOM     27  H   UNL     1      -0.687  10.070  21.664  0.00  0.00    +0.000 HD
ENDBRANCH  15  16
ENDBRANCH  11  15
TORSDOF 2
ENDMDL
