MODEL 1
REMARK VINA RESULT:      -7.8      0.000      0.000
REMARK  Name = 
REMARK  9 active torsions:
REMARK  status: ('A' for Active; 'I' for Inactive)
REMARK    1  A    between atoms: C_1  and  C_2
REMARK    2  A    between atoms: C_2  and  C_3
REMARK    3  A    between atoms: C_3  and  C_4
REMARK    4  A    between atoms: C_4  and  O_5
REMARK    5  A    between atoms: O_5  and  C_6
REMARK    6  A    between atoms: C_11  and  C_12
REMARK    7  A    between atoms: C_16  and  O_17
REMARK    8  A    between atoms: O_17  and  C_18
REMARK    9  A    between atoms: C_20  and  C_21
REMARK                            x       y       z     vdW  Elec       q    Type
REMARK                         _______ _______ _______ _____ _____    ______ ____
ROOT
ATOM      1  C   UNL     1       1.573   8.003  20.222  0.00  0.00    +0.000 A 
ATOM      2  C   UNL     1       1.615   9.061  19.314  0.00  0.00    +0.000 A 
ATOM      3  C   UNL     1       2.337   8.966  18.117  0.00  0.00    +0.000 A 
ATOM      4  C   UNL     1       3.014   7.768  17.863  0.00  0.00    +0.000 A 
ATOM      5  N   UNL     1       3.806   7.403  16.800  0.00  0.00    +0.000 N 
ATOM      6  C   UNL     1       4.321   6.132  16.971  0.00  0.00    +0.000 A 
ATOM      7  C   UNL     1       3.761   5.657  18.151  0.00  0.00    +0.000 A 
ATOM      8  C   UNL     1       2.975   6.688  18.736  0.00  0.00    +0.000 A 
ATOM      9  C   UNL     1       2.245   6.811  19.935  0.00  0.00    +0.000 A 
ATOM     10  H   UNL     1       4.004   7.999  16.010  0.00  0.00    +0.000 HD
ENDROOT
BRANCH   7  11
ATOM     11  C   UNL     1       3.980   4.378  18.718  0.00  0.00    +0.000 C 
ATOM     12  C   UNL     1       3.133   3.356  18.866  0.00  0.00    +0.000 C 
ATOM     13 BR   UNL     1       1.371   3.220  18.371  0.00  0.00    +0.000 Br
ATOM     14  C   UNL     1       3.856   2.279  19.568  0.00  0.00    +0.000 C 
ATOM     15  O   UNL     1       3.391   1.224  19.960  0.00  0.00    +0.000 OA
ATOM     16  N   UNL     1       5.129   2.693  19.730  0.00  0.00    +0.000 N 
ATOM     17  C   UNL     1       5.270   3.969  19.312  0.00  0.00    +0.000 C 
ATOM     18  O   UNL     1       6.257   4.665  19.462  0.00  0.00    +0.000 OA
ATOM     19  H   UNL     1       5.835   2.182  20.235  0.00  0.00    +0.000 HD
ENDBRANCH   7  11
BRANCH   6  20
ATOM     20  C   UNL     1       5.302   5.542  16.049  0.00  0.00    +0.000 A 
ATOM     21  C   UNL     1       6.667   5.837  16.161  0.00  0.00    +0.000 A 
ATOM     22  C   UNL     1       7.573   5.408  15.192  0.00  0.00    +0.000 A 
ATOM     23  C   UNL     1       7.127   4.637  14.122  0.00  0.00    +0.000 A 
ATOM     24  C   UNL     1       5.783   4.279  14.021  0.00  0.00    +0.000 A 
ATOM     25  C   UNL     1       4.875   4.734  14.983  0.00  0.00    +0.000 A 
BRANCH  24  26
ATOM     26  O   UNL     1       5.480   3.507  12.933  0.00  0.00    +0.000 OA
ATOM     27  C   UNL     1       6.525   3.276  11.997  0.00  0.00    +0.000 C 
ENDBRANCH  24  26
ENDBRANCH   6  20
BRANCH   1  28
ATOM     28  O   UNL     1       0.916   8.002  21.425  0.00  0.00    +0.000 OA
BRANCH  28  29
ATOM     29  C   UNL     1      -0.307   8.729  21.477  0.00  0.00    +0.000 C 
BRANCH  29  30
ATOM     30  C   UNL     1      -0.225   9.729  22.625  0.00  0.00    +0.000 C 
BRANCH  30  32
ATOM     31  C   UNL     1      -1.436  11.901  23.014  0.00  0.00    +0.000 C 
ATOM     32  C   UNL     1      -0.462  11.150  22.124  0.00  0.00    +0.000 C 
ENDBRANCH  30  32
ENDBRANCH  29  30
ENDBRANCH  28  29
ENDBRANCH   1  28
TORSDOF 7
ENDMDL
MODEL 2
REMARK VINA RESULT:      -7.4      1.331      1.614
REMARK  Name = 
REMARK  9 active torsions:
REMARK  status: ('A' for Active; 'I' for Inactive)
REMARK    1  A    between atoms: C_1  and  C_2
REMARK    2  A    between atoms: C_2  and  C_3
REMARK    3  A    between atoms: C_3  and  C_4
REMARK    4  A    between atoms: C_4  and  O_5
REMARK    5  A    between atoms: O_5  and  C_6
REMARK    6  A    between atoms: C_11  and  C_12
REMARK    7  A    between atoms: C_16  and  O_17
REMARK    8  A    between atoms: O_17  and  C_18
REMARK    9  A    between atoms: C_20  and  C_21
REMARK                            x       y       z     vdW  Elec       q    Type
REMARK                         _______ _______ _______ _____ _____    ______ ____
ROOT
ATOM      1  C   UNL     1       1.313   8.161  20.235  0.00  0.00    +0.000 A 
ATOM      2  C   UNL     1       1.400   9.207  19.315  0.00  0.00    +0.000 A 
ATOM      3  C   UNL     1       2.160   9.085  18.144  0.00  0.00    +0.000 A 
ATOM      4  C   UNL     1       2.828   7.875  17.929  0.00  0.00    +0.000 A 
ATOM      5  N   UNL     1       3.650   7.485  16.898  0.00  0.00    +0.000 N 
ATOM      6  C   UNL     1       4.142   6.210  17.103  0.00  0.00    +0.000 A 
ATOM      7  C   UNL     1       3.536   5.758  18.270  0.00  0.00    +0.000 A 
ATOM      8  C   UNL     1       2.745   6.807  18.814  0.00  0.00    +0.000 A 
ATOM      9  C   UNL     1       1.977   6.957  19.986  0.00  0.00    +0.000 A 
ATOM     10  H   UNL     1       3.883   8.068  16.108  0.00  0.00    +0.000 HD
ENDROOT
BRANCH   7  11
ATOM     11  C   UNL     1       3.717   4.485  18.860  0.00  0.00    +0.000 C 
ATOM     12  C   UNL     1       4.812   3.943  19.400  0.00  0.00    +0.000 C 
ATOM     13 BR   UNL     1       6.491   4.659  19.596  0.00  0.00    +0.000 Br
ATOM     14  C   UNL     1       4.470   2.572  19.819  0.00  0.00    +0.000 C 
ATOM     15  O   UNL     1       5.231   1.736  20.270  0.00  0.00    +0.000 OA
ATOM     16  N   UNL     1       3.155   2.397  19.575  0.00  0.00    +0.000 N 
ATOM     17  C   UNL     1       2.644   3.471  18.936  0.00  0.00    +0.000 C 
ATOM     18  O   UNL     1       1.529   3.552  18.455  0.00  0.00    +0.000 OA
ATOM     19  H   UNL     1       2.661   1.529  19.708  0.00  0.00    +0.000 HD
ENDBRANCH   7  11
BRANCH   6  20
ATOM     20  C   UNL     1       5.145   5.594  16.222  0.00  0.00    +0.000 A 
ATOM     21  C   UNL     1       6.511   5.851  16.393  0.00  0.00    +0.000 A 
ATOM     22  C   UNL     1       7.446   5.398  15.463  0.00  0.00    +0.000 A 
ATOM     23  C   UNL     1       7.025   4.642  14.373  0.00  0.00    +0.000 A 
ATOM     24  C   UNL     1       5.676   4.320  14.214  0.00  0.00    +0.000 A 
ATOM     25  C   UNL     1       4.742   4.799  15.137  0.00  0.00    +0.000 A 
BRANCH  24  26
ATOM     26  O   UNL     1       5.399   3.558  13.112  0.00  0.00    +0.000 OA
ATOM     27  C   UNL     1       6.454   3.371  12.177  0.00  0.00    +0.000 C 
ENDBRANCH  24  26
ENDBRANCH   6  20
BRANCH   1  28
ATOM     28  O   UNL     1       0.616   8.186  21.415  0.00  0.00    +0.000 OA
BRANCH  28  29
ATOM     29  C   UNL     1      -0.385   9.192  21.536  0.00  0.00    +0.000 C 
BRANCH  29  30
ATOM     30  C   UNL     1      -0.366   9.721  22.965  0.00  0.00    +0.000 C 
BRANCH  30  32
ATOM     31  C   UNL     1      -1.027  11.824  21.750  0.00  0.00    +0.000 C 
ATOM     32  C   UNL     1      -1.098  11.056  23.058  0.00  0.00    +0.000 C 
ENDBRANCH  30  32
ENDBRANCH  29  30
ENDBRANCH  28  29
ENDBRANCH   1  28
TORSDOF 7
ENDMDL
MODEL 3
REMARK VINA RESULT:      -7.3      2.050      7.791
REMARK  Name = 
REMARK  9 active torsions:
REMARK  status: ('A' for Active; 'I' for Inactive)
REMARK    1  A    between atoms: C_1  and  C_2
REMARK    2  A    between atoms: C_2  and  C_3
REMARK    3  A    between atoms: C_3  and  C_4
REMARK    4  A    between atoms: C_4  and  O_5
REMARK    5  A    between atoms: O_5  and  C_6
REMARK    6  A    between atoms: C_11  and  C_12
REMARK    7  A    between atoms: C_16  and  O_17
REMARK    8  A    between atoms: O_17  and  C_18
REMARK    9  A    between atoms: C_20  and  C_21
REMARK                            x       y       z     vdW  Elec       q    Type
REMARK                         _______ _______ _______ _____ _____    ______ ____
ROOT
ATOM      1  C   UNL     1       5.879   4.320  14.877  0.00  0.00    +0.000 A 
ATOM      2  C   UNL     1       6.451   5.587  14.756  0.00  0.00    +0.000 A 
ATOM      3  C   UNL     1       6.047   6.650  15.575  0.00  0.00    +0.000 A 
ATOM      4  C   UNL     1       5.051   6.394  16.523  0.00  0.00    +0.000 A 
ATOM      5  N   UNL     1       4.452   7.234  17.432  0.00  0.00    +0.000 N 
ATOM      6  C   UNL     1       3.473   6.577  18.154  0.00  0.00    +0.000 A 
ATOM      7  C   UNL     1       3.521   5.253  17.732  0.00  0.00    +0.000 A 
ATOM      8  C   UNL     1       4.477   5.139  16.684  0.00  0.00    +0.000 A 
ATOM      9  C   UNL     1       4.897   4.088  15.844  0.00  0.00    +0.000 A 
ATOM     10  H   UNL     1       4.682   8.211  17.538  0.00  0.00    +0.000 HD
ENDROOT
BRANCH   7  11
ATOM     11  C   UNL     1       2.714   4.197  18.217  0.00  0.00    +0.000 C 
ATOM     12  C   UNL     1       3.012   3.226  19.084  0.00  0.00    +0.000 C 
ATOM     13 BR   UNL     1       4.579   2.910  19.988  0.00  0.00    +0.000 Br
ATOM     14  C   UNL     1       1.828   2.355  19.199  0.00  0.00    +0.000 C 
ATOM     15  O   UNL     1       1.746   1.315  19.827  0.00  0.00    +0.000 OA
ATOM     16  N   UNL     1       0.853   2.905  18.448  0.00  0.00    +0.000 N 
ATOM     17  C   UNL     1       1.324   3.973  17.769  0.00  0.00    +0.000 C 
ATOM     18  O   UNL     1       0.729   4.588  16.903  0.00  0.00    +0.000 OA
ATOM     19  H   UNL     1      -0.050   2.489  18.291  0.00  0.00    +0.000 HD
ENDBRANCH   7  11
BRANCH   6  20
ATOM     20  C   UNL     1       2.588   7.268  19.102  0.00  0.00    +0.000 A 
ATOM     21  C   UNL     1       2.173   6.647  20.287  0.00  0.00    +0.000 A 
ATOM     22  C   UNL     1       1.209   7.236  21.104  0.00  0.00    +0.000 A 
ATOM     23  C   UNL     1       0.684   8.480  20.765  0.00  0.00    +0.000 A 
ATOM     24  C   UNL     1       1.127   9.147  19.623  0.00  0.00    +0.000 A 
ATOM     25  C   UNL     1       2.075   8.539  18.795  0.00  0.00    +0.000 A 
BRANCH  24  26
ATOM     26  O   UNL     1       0.544  10.368  19.414  0.00  0.00    +0.000 OA
ATOM     27  C   UNL     1      -0.723  10.587  20.020  0.00  0.00    +0.000 C 
ENDBRANCH  24  26
ENDBRANCH   6  20
BRANCH   1  28
ATOM     28  O   UNL     1       6.187   3.224  14.114  0.00  0.00    +0.000 OA
BRANCH  28  29
ATOM     29  C   UNL     1       6.385   3.458  12.723  0.00  0.00    +0.000 C 
BRANCH  29  30
ATOM     30  C   UNL     1       5.286   2.736  11.952  0.00  0.00    +0.000 C 
BRANCH  30  32
ATOM     31  C   UNL     1       3.291   3.071  10.455  0.00  0.00    +0.000 C 
ATOM     32  C   UNL     1       4.245   3.725  11.438  0.00  0.00    +0.000 C 
ENDBRANCH  30  32
ENDBRANCH  29  30
ENDBRANCH  28  29
ENDBRANCH   1  28
TORSDOF 7
ENDMDL
MODEL 4
REMARK VINA RESULT:      -7.2      1.647      2.037
REMARK  Name = 
REMARK  9 active torsions:
REMARK  status: ('A' for Active; 'I' for Inactive)
REMARK    1  A    between atoms: C_1  and  C_2
REMARK    2  A    between atoms: C_2  and  C_3
REMARK    3  A    between atoms: C_3  and  C_4
REMARK    4  A    between atoms: C_4  and  O_5
REMARK    5  A    between atoms: O_5  and  C_6
REMARK    6  A    between atoms: C_11  and  C_12
REMARK    7  A    between atoms: C_16  and  O_17
REMARK    8  A    between atoms: O_17  and  C_18
REMARK    9  A    between atoms: C_20  and  C_21
REMARK                            x       y       z     vdW  Elec       q    Type
REMARK                         _______ _______ _______ _____ _____    ______ ____
ROOT
ATOM      1  C   UNL     1       1.441   8.331  20.555  0.00  0.00    +0.000 A 
ATOM      2  C   UNL     1       1.433   9.293  19.545  0.00  0.00    +0.000 A 
ATOM      3  C   UNL     1       2.039   9.052  18.304  0.00  0.00    +0.000 A 
ATOM      4  C   UNL     1       2.649   7.808  18.113  0.00  0.00    +0.000 A 
ATOM      5  N   UNL     1       3.328   7.308  17.026  0.00  0.00    +0.000 N 
ATOM      6  C   UNL     1       3.815   6.040  17.278  0.00  0.00    +0.000 A 
ATOM      7  C   UNL     1       3.352   5.706  18.546  0.00  0.00    +0.000 A 
ATOM      8  C   UNL     1       2.656   6.821  19.090  0.00  0.00    +0.000 A 
ATOM      9  C   UNL     1       2.044   7.090  20.331  0.00  0.00    +0.000 A 
ATOM     10  H   UNL     1       3.472   7.817  16.166  0.00  0.00    +0.000 HD
ENDROOT
BRANCH   7  11
ATOM     11  C   UNL     1       3.579   4.481  19.216  0.00  0.00    +0.000 C 
ATOM     12  C   UNL     1       4.730   3.914  19.589  0.00  0.00    +0.000 C 
ATOM     13 BR   UNL     1       6.450   4.524  19.387  0.00  0.00    +0.000 Br
ATOM     14  C   UNL     1       4.406   2.613  20.202  0.00  0.00    +0.000 C 
ATOM     15  O   UNL     1       5.197   1.769  20.583  0.00  0.00    +0.000 OA
ATOM     16  N   UNL     1       3.062   2.510  20.234  0.00  0.00    +0.000 N 
ATOM     17  C   UNL     1       2.492   3.556  19.598  0.00  0.00    +0.000 C 
ATOM     18  O   UNL     1       1.309   3.673  19.334  0.00  0.00    +0.000 OA
ATOM     19  H   UNL     1       2.559   1.695  20.546  0.00  0.00    +0.000 HD
ENDBRANCH   7  11
BRANCH   6  20
ATOM     20  C   UNL     1       4.688   5.323  16.337  0.00  0.00    +0.000 A 
ATOM     21  C   UNL     1       4.491   3.965  16.062  0.00  0.00    +0.000 A 
ATOM     22  C   UNL     1       5.412   3.249  15.297  0.00  0.00    +0.000 A 
ATOM     23  C   UNL     1       6.519   3.901  14.761  0.00  0.00    +0.000 A 
ATOM     24  C   UNL     1       6.704   5.268  14.970  0.00  0.00    +0.000 A 
ATOM     25  C   UNL     1       5.790   5.973  15.758  0.00  0.00    +0.000 A 
BRANCH  24  26
ATOM     26  O   UNL     1       7.820   5.789  14.374  0.00  0.00    +0.000 OA
ATOM     27  C   UNL     1       8.072   5.401  13.029  0.00  0.00    +0.000 C 
ENDBRANCH  24  26
ENDBRANCH   6  20
BRANCH   1  28
ATOM     28  O   UNL     1       0.898   8.475  21.805  0.00  0.00    +0.000 OA
BRANCH  28  29
ATOM     29  C   UNL     1      -0.462   8.894  21.858  0.00  0.00    +0.000 C 
BRANCH  29  30
ATOM     30  C   UNL     1      -0.568  10.063  22.831  0.00  0.00    +0.000 C 
BRANCH  30  32
ATOM     31  C   UNL     1      -1.317  12.460  23.006  0.00  0.00    +0.000 C 
ATOM     32  C   UNL     1      -0.797  11.372  22.083  0.00  0.00    +0.000 C 
ENDBRANCH  30  32
ENDBRANCH  29  30
ENDBRANCH  28  29
ENDBRANCH   1  28
TORSDOF 7
ENDMDL
MODEL 5
REMARK VINA RESULT:      -6.9      1.262      1.494
REMARK  Name = 
REMARK  9 active torsions:
REMARK  status: ('A' for Active; 'I' for Inactive)
REMARK    1  A    between atoms: C_1  and  C_2
REMARK    2  A    between atoms: C_2  and  C_3
REMARK    3  A    between atoms: C_3  and  C_4
REMARK    4  A    between atoms: C_4  and  O_5
REMARK    5  A    between atoms: O_5  and  C_6
REMARK    6  A    between atoms: C_11  and  C_12
REMARK    7  A    between atoms: C_16  and  O_17
REMARK    8  A    between atoms: O_17  and  C_18
REMARK    9  A    between atoms: C_20  and  C_21
REMARK                            x       y       z     vdW  Elec       q    Type
REMARK                         _______ _______ _______ _____ _____    ______ ____
ROOT
ATOM      1  C   UNL     1       1.382   8.427  20.527  0.00  0.00    +0.000 A 
ATOM      2  C   UNL     1       1.330   9.332  19.467  0.00  0.00    +0.000 A 
ATOM      3  C   UNL     1       1.931   9.045  18.234  0.00  0.00    +0.000 A 
ATOM      4  C   UNL     1       2.582   7.814  18.103  0.00  0.00    +0.000 A 
ATOM      5  N   UNL     1       3.265   7.279  17.036  0.00  0.00    +0.000 N 
ATOM      6  C   UNL     1       3.799   6.043  17.349  0.00  0.00    +0.000 A 
ATOM      7  C   UNL     1       3.360   5.762  18.638  0.00  0.00    +0.000 A 
ATOM      8  C   UNL     1       2.633   6.881  19.131  0.00  0.00    +0.000 A 
ATOM      9  C   UNL     1       2.025   7.196  20.363  0.00  0.00    +0.000 A 
ATOM     10  H   UNL     1       3.383   7.744  16.148  0.00  0.00    +0.000 HD
ENDROOT
BRANCH   7  11
ATOM     11  C   UNL     1       3.637   4.584  19.371  0.00  0.00    +0.000 C 
ATOM     12  C   UNL     1       2.796   3.724  19.951  0.00  0.00    +0.000 C 
ATOM     13 BR   UNL     1       0.960   3.738  19.996  0.00  0.00    +0.000 Br
ATOM     14  C   UNL     1       3.608   2.698  20.631  0.00  0.00    +0.000 C 
ATOM     15  O   UNL     1       3.200   1.798  21.342  0.00  0.00    +0.000 OA
ATOM     16  N   UNL     1       4.900   2.962  20.350  0.00  0.00    +0.000 N 
ATOM     17  C   UNL     1       5.009   4.117  19.659  0.00  0.00    +0.000 C 
ATOM     18  O   UNL     1       6.047   4.692  19.388  0.00  0.00    +0.000 OA
ATOM     19  H   UNL     1       5.682   2.457  20.735  0.00  0.00    +0.000 HD
ENDBRANCH   7  11
BRANCH   6  20
ATOM     20  C   UNL     1       4.685   5.306  16.437  0.00  0.00    +0.000 A 
ATOM     21  C   UNL     1       4.500   3.939  16.198  0.00  0.00    +0.000 A 
ATOM     22  C   UNL     1       5.433   3.209  15.463  0.00  0.00    +0.000 A 
ATOM     23  C   UNL     1       6.541   3.853  14.919  0.00  0.00    +0.000 A 
ATOM     24  C   UNL     1       6.715   5.226  15.092  0.00  0.00    +0.000 A 
ATOM     25  C   UNL     1       5.789   5.948  15.851  0.00  0.00    +0.000 A 
BRANCH  24  26
ATOM     26  O   UNL     1       7.834   5.738  14.493  0.00  0.00    +0.000 OA
ATOM     27  C   UNL     1       8.039   5.409  13.125  0.00  0.00    +0.000 C 
ENDBRANCH  24  26
ENDBRANCH   6  20
BRANCH   1  28
ATOM     28  O   UNL     1       0.848   8.620  21.774  0.00  0.00    +0.000 OA
BRANCH  28  29
ATOM     29  C   UNL     1       0.832   9.961  22.254  0.00  0.00    +0.000 C 
BRANCH  29  30
ATOM     30  C   UNL     1      -0.604  10.327  22.614  0.00  0.00    +0.000 C 
BRANCH  30  32
ATOM     31  C   UNL     1      -0.467  12.788  22.103  0.00  0.00    +0.000 C 
ATOM     32  C   UNL     1      -1.110  11.464  21.731  0.00  0.00    +0.000 C 
ENDBRANCH  30  32
ENDBRANCH  29  30
ENDBRANCH  28  29
ENDBRANCH   1  28
TORSDOF 7
ENDMDL
MODEL 6
REMARK VINA RESULT:      -6.6      2.439      3.241
REMARK  Name = 
REMARK  9 active torsions:
REMARK  status: ('A' for Active; 'I' for Inactive)
REMARK    1  A    between atoms: C_1  and  C_2
REMARK    2  A    between atoms: C_2  and  C_3
REMARK    3  A    between atoms: C_3  and  C_4
REMARK    4  A    between atoms: C_4  and  O_5
REMARK    5  A    between atoms: O_5  and  C_6
REMARK    6  A    between atoms: C_11  and  C_12
REMARK    7  A    between atoms: C_16  and  O_17
REMARK    8  A    between atoms: O_17  and  C_18
REMARK    9  A    between atoms: C_20  and  C_21
REMARK                            x       y       z     vdW  Elec       q    Type
REMARK                         _______ _______ _______ _____ _____    ______ ____
ROOT
ATOM      1  C   UNL     1       0.352   9.716  18.993  0.00  0.00    +0.000 A 
ATOM      2  C   UNL     1       1.111  10.594  18.218  0.00  0.00    +0.000 A 
ATOM      3  C   UNL     1       2.316  10.190  17.628  0.00  0.00    +0.000 A 
ATOM      4  C   UNL     1       2.731   8.871  17.843  0.00  0.00    +0.000 A 
ATOM      5  N   UNL     1       3.861   8.214  17.414  0.00  0.00    +0.000 N 
ATOM      6  C   UNL     1       3.901   6.919  17.895  0.00  0.00    +0.000 A 
ATOM      7  C   UNL     1       2.707   6.738  18.585  0.00  0.00    +0.000 A 
ATOM      8  C   UNL     1       1.989   7.966  18.591  0.00  0.00    +0.000 A 
ATOM      9  C   UNL     1       0.782   8.399  19.176  0.00  0.00    +0.000 A 
ATOM     10  H   UNL     1       4.579   8.635  16.844  0.00  0.00    +0.000 HD
ENDROOT
BRANCH   7  11
ATOM     11  C   UNL     1       2.293   5.549  19.229  0.00  0.00    +0.000 C 
ATOM     12  C   UNL     1       2.147   4.317  18.733  0.00  0.00    +0.000 C 
ATOM     13 BR   UNL     1       2.451   3.702  17.030  0.00  0.00    +0.000 Br
ATOM     14  C   UNL     1       1.637   3.459  19.818  0.00  0.00    +0.000 C 
ATOM     15  O   UNL     1       1.297   2.293  19.727  0.00  0.00    +0.000 OA
ATOM     16  N   UNL     1       1.581   4.216  20.933  0.00  0.00    +0.000 N 
ATOM     17  C   UNL     1       1.890   5.499  20.650  0.00  0.00    +0.000 C 
ATOM     18  O   UNL     1       1.787   6.443  21.412  0.00  0.00    +0.000 OA
ATOM     19  H   UNL     1       1.210   3.904  21.816  0.00  0.00    +0.000 HD
ENDBRANCH   7  11
BRANCH   6  20
ATOM     20  C   UNL     1       5.059   6.035  17.699  0.00  0.00    +0.000 A 
ATOM     21  C   UNL     1       5.738   5.481  18.791  0.00  0.00    +0.000 A 
ATOM     22  C   UNL     1       6.927   4.776  18.610  0.00  0.00    +0.000 A 
ATOM     23  C   UNL     1       7.425   4.579  17.325  0.00  0.00    +0.000 A 
ATOM     24  C   UNL     1       6.734   5.069  16.216  0.00  0.00    +0.000 A 
ATOM     25  C   UNL     1       5.555   5.796  16.407  0.00  0.00    +0.000 A 
BRANCH  24  26
ATOM     26  O   UNL     1       7.322   4.792  15.012  0.00  0.00    +0.000 OA
ATOM     27  C   UNL     1       6.500   4.194  14.018  0.00  0.00    +0.000 C 
ENDBRANCH  24  26
ENDBRANCH   6  20
BRANCH   1  28
ATOM     28  O   UNL     1      -0.825  10.017  19.627  0.00  0.00    +0.000 OA
BRANCH  28  29
ATOM     29  C   UNL     1      -1.719  10.874  18.925  0.00  0.00    +0.000 C 
BRANCH  29  30
ATOM     30  C   UNL     1      -2.404  10.064  17.830  0.00  0.00    +0.000 C 
BRANCH  30  32
ATOM     31  C   UNL     1      -2.842  10.021  15.352  0.00  0.00    +0.000 C 
ATOM     32  C   UNL     1      -2.568  10.896  16.562  0.00  0.00    +0.000 C 
ENDBRANCH  30  32
ENDBRANCH  29  30
ENDBRANCH  28  29
ENDBRANCH   1  28
TORSDOF 7
ENDMDL
MODEL 7
REMARK VINA RESULT:      -6.6      4.300     11.088
REMARK  Name = 
REMARK  9 active torsions:
REMARK  status: ('A' for Active; 'I' for Inactive)
REMARK    1  A    between atoms: C_1  and  C_2
REMARK    2  A    between atoms: C_2  and  C_3
REMARK    3  A    between atoms: C_3  and  C_4
REMARK    4  A    between atoms: C_4  and  O_5
REMARK    5  A    between atoms: O_5  and  C_6
REMARK    6  A    between atoms: C_11  and  C_12
REMARK    7  A    between atoms: C_16  and  O_17
REMARK    8  A    between atoms: O_17  and  C_18
REMARK    9  A    between atoms: C_20  and  C_21
REMARK                            x       y       z     vdW  Elec       q    Type
REMARK                         _______ _______ _______ _____ _____    ______ ____
ROOT
ATOM      1  C   UNL     1       1.728   8.319  19.660  0.00  0.00    +0.000 A 
ATOM      2  C   UNL     1       1.396   7.534  20.764  0.00  0.00    +0.000 A 
ATOM      3  C   UNL     1       0.565   8.023  21.782  0.00  0.00    +0.000 A 
ATOM      4  C   UNL     1       0.078   9.327  21.649  0.00  0.00    +0.000 A 
ATOM      5  N   UNL     1      -0.726  10.066  22.486  0.00  0.00    +0.000 N 
ATOM      6  C   UNL     1      -0.931  11.339  21.990  0.00  0.00    +0.000 A 
ATOM      7  C   UNL     1      -0.295  11.367  20.754  0.00  0.00    +0.000 A 
ATOM      8  C   UNL     1       0.372  10.127  20.552  0.00  0.00    +0.000 A 
ATOM      9  C   UNL     1       1.213   9.613  19.544  0.00  0.00    +0.000 A 
ATOM     10  H   UNL     1      -1.095   9.726  23.362  0.00  0.00    +0.000 HD
ENDROOT
BRANCH   7  11
ATOM     11  C   UNL     1      -0.261  12.466  19.863  0.00  0.00    +0.000 C 
ATOM     12  C   UNL     1       0.575  13.507  19.825  0.00  0.00    +0.000 C 
ATOM     13 BR   UNL     1       2.008  13.892  20.905  0.00  0.00    +0.000 Br
ATOM     14  C   UNL     1       0.134  14.391  18.730  0.00  0.00    +0.000 C 
ATOM     15  O   UNL     1       0.592  15.482  18.444  0.00  0.00    +0.000 OA
ATOM     16  N   UNL     1      -0.904  13.782  18.120  0.00  0.00    +0.000 N 
ATOM     17  C   UNL     1      -1.249  12.657  18.781  0.00  0.00    +0.000 C 
ATOM     18  O   UNL     1      -2.232  11.973  18.561  0.00  0.00    +0.000 OA
ATOM     19  H   UNL     1      -1.444  14.189  17.373  0.00  0.00    +0.000 HD
ENDBRANCH   7  11
BRANCH   6  20
ATOM     20  C   UNL     1      -1.644  12.380  22.745  0.00  0.00    +0.000 A 
ATOM     21  C   UNL     1      -0.983  13.532  23.188  0.00  0.00    +0.000 A 
ATOM     22  C   UNL     1      -1.617  14.438  24.038  0.00  0.00    +0.000 A 
ATOM     23  C   UNL     1      -2.939  14.221  24.416  0.00  0.00    +0.000 A 
ATOM     24  C   UNL     1      -3.639  13.113  23.938  0.00  0.00    +0.000 A 
ATOM     25  C   UNL     1      -2.989  12.196  23.106  0.00  0.00    +0.000 A 
BRANCH  24  26
ATOM     26  O   UNL     1      -4.934  13.027  24.371  0.00  0.00    +0.000 OA
ATOM     27  C   UNL     1      -5.895  13.818  23.685  0.00  0.00    +0.000 C 
ENDBRANCH  24  26
ENDBRANCH   6  20
BRANCH   1  28
ATOM     28  O   UNL     1       2.545   7.944  18.626  0.00  0.00    +0.000 OA
BRANCH  28  29
ATOM     29  C   UNL     1       2.727   6.544  18.440  0.00  0.00    +0.000 C 
BRANCH  29  30
ATOM     30  C   UNL     1       3.927   6.331  17.524  0.00  0.00    +0.000 C 
BRANCH  30  32
ATOM     31  C   UNL     1       2.980   4.000  17.458  0.00  0.00    +0.000 C 
ATOM     32  C   UNL     1       4.238   4.845  17.376  0.00  0.00    +0.000 C 
ENDBRANCH  30  32
ENDBRANCH  29  30
ENDBRANCH  28  29
ENDBRANCH   1  28
TORSDOF 7
ENDMDL
MODEL 8
REMARK VINA RESULT:      -6.6      1.616      7.569
REMARK  Name = 
REMARK  9 active torsions:
REMARK  status: ('A' for Active; 'I' for Inactive)
REMARK    1  A    between atoms: C_1  and  C_2
REMARK    2  A    between atoms: C_2  and  C_3
REMARK    3  A    between atoms: C_3  and  C_4
REMARK    4  A    between atoms: C_4  and  O_5
REMARK    5  A    between atoms: O_5  and  C_6
REMARK    6  A    between atoms: C_11  and  C_12
REMARK    7  A    between atoms: C_16  and  O_17
REMARK    8  A    between atoms: O_17  and  C_18
REMARK    9  A    between atoms: C_20  and  C_21
REMARK                            x       y       z     vdW  Elec       q    Type
REMARK                         _______ _______ _______ _____ _____    ______ ____
ROOT
ATOM      1  C   UNL     1       5.898   4.385  14.524  0.00  0.00    +0.000 A 
ATOM      2  C   UNL     1       6.085   5.715  14.147  0.00  0.00    +0.000 A 
ATOM      3  C   UNL     1       5.571   6.770  14.914  0.00  0.00    +0.000 A 
ATOM      4  C   UNL     1       4.866   6.440  16.077  0.00  0.00    +0.000 A 
ATOM      5  N   UNL     1       4.242   7.249  16.997  0.00  0.00    +0.000 N 
ATOM      6  C   UNL     1       3.618   6.504  17.979  0.00  0.00    +0.000 A 
ATOM      7  C   UNL     1       3.935   5.179  17.702  0.00  0.00    +0.000 A 
ATOM      8  C   UNL     1       4.681   5.127  16.492  0.00  0.00    +0.000 A 
ATOM      9  C   UNL     1       5.204   4.085  15.700  0.00  0.00    +0.000 A 
ATOM     10  H   UNL     1       4.223   8.257  16.944  0.00  0.00    +0.000 HD
ENDROOT
BRANCH   7  11
ATOM     11  C   UNL     1       3.535   4.053  18.461  0.00  0.00    +0.000 C 
ATOM     12  C   UNL     1       2.345   3.453  18.533  0.00  0.00    +0.000 C 
ATOM     13 BR   UNL     1       0.782   3.852  17.655  0.00  0.00    +0.000 Br
ATOM     14  C   UNL     1       2.457   2.360  19.516  0.00  0.00    +0.000 C 
ATOM     15  O   UNL     1       1.557   1.645  19.917  0.00  0.00    +0.000 OA
ATOM     16  N   UNL     1       3.742   2.319  19.922  0.00  0.00    +0.000 N 
ATOM     17  C   UNL     1       4.440   3.345  19.391  0.00  0.00    +0.000 C 
ATOM     18  O   UNL     1       5.579   3.660  19.681  0.00  0.00    +0.000 OA
ATOM     19  H   UNL     1       4.094   1.706  20.640  0.00  0.00    +0.000 HD
ENDBRANCH   7  11
BRANCH   6  20
ATOM     20  C   UNL     1       2.769   7.108  19.015  0.00  0.00    +0.000 A 
ATOM     21  C   UNL     1       2.417   6.395  20.168  0.00  0.00    +0.000 A 
ATOM     22  C   UNL     1       1.484   6.907  21.070  0.00  0.00    +0.000 A 
ATOM     23  C   UNL     1       0.928   8.164  20.849  0.00  0.00    +0.000 A 
ATOM     24  C   UNL     1       1.309   8.920  19.740  0.00  0.00    +0.000 A 
ATOM     25  C   UNL     1       2.226   8.390  18.827  0.00  0.00    +0.000 A 
BRANCH  24  26
ATOM     26  O   UNL     1       0.702  10.143  19.649  0.00  0.00    +0.000 OA
ATOM     27  C   UNL     1      -0.568  10.184  19.012  0.00  0.00    +0.000 C 
ENDBRANCH  24  26
ENDBRANCH   6  20
BRANCH   1  28
ATOM     28  O   UNL     1       6.340   3.286  13.836  0.00  0.00    +0.000 OA
BRANCH  28  29
ATOM     29  C   UNL     1       6.502   3.444  12.430  0.00  0.00    +0.000 C 
BRANCH  29  30
ATOM     30  C   UNL     1       5.442   2.604  11.726  0.00  0.00    +0.000 C 
BRANCH  30  32
ATOM     31  C   UNL     1       3.649   3.664  10.312  0.00  0.00    +0.000 C 
ATOM     32  C   UNL     1       4.096   3.322  11.722  0.00  0.00    +0.000 C 
ENDBRANCH  30  32
ENDBRANCH  29  30
ENDBRANCH  28  29
ENDBRANCH   1  28
TORSDOF 7
ENDMDL
MODEL 9
REMARK VINA RESULT:      -6.5      4.183     10.975
REMARK  Name = 
REMARK  9 active torsions:
REMARK  status: ('A' for Active; 'I' for Inactive)
REMARK    1  A    between atoms: C_1  and  C_2
REMARK    2  A    between atoms: C_2  and  C_3
REMARK    3  A    between atoms: C_3  and  C_4
REMARK    4  A    between atoms: C_4  and  O_5
REMARK    5  A    between atoms: O_5  and  C_6
REMARK    6  A    between atoms: C_11  and  C_12
REMARK    7  A    between atoms: C_16  and  O_17
REMARK    8  A    between atoms: O_17  and  C_18
REMARK    9  A    between atoms: C_20  and  C_21
REMARK                            x       y       z     vdW  Elec       q    Type
REMARK                         _______ _______ _______ _____ _____    ______ ____
ROOT
ATOM      1  C   UNL     1       1.876   8.229  19.292  0.00  0.00    +0.000 A 
ATOM      2  C   UNL     1       1.619   7.384  20.373  0.00  0.00    +0.000 A 
ATOM      3  C   UNL     1       0.835   7.805  21.456  0.00  0.00    +0.000 A 
ATOM      4  C   UNL     1       0.317   9.103  21.414  0.00  0.00    +0.000 A 
ATOM      5  N   UNL     1      -0.454   9.783  22.328  0.00  0.00    +0.000 N 
ATOM      6  C   UNL     1      -0.710  11.074  21.908  0.00  0.00    +0.000 A 
ATOM      7  C   UNL     1      -0.142  11.176  20.643  0.00  0.00    +0.000 A 
ATOM      8  C   UNL     1       0.536   9.962  20.344  0.00  0.00    +0.000 A 
ATOM      9  C   UNL     1       1.331   9.516  19.269  0.00  0.00    +0.000 A 
ATOM     10  H   UNL     1      -0.768   9.393  23.204  0.00  0.00    +0.000 HD
ENDROOT
BRANCH   7  11
ATOM     11  C   UNL     1      -0.177  12.317  19.806  0.00  0.00    +0.000 C 
ATOM     12  C   UNL     1       0.662  13.354  19.745  0.00  0.00    +0.000 C 
ATOM     13 BR   UNL     1       2.189  13.679  20.711  0.00  0.00    +0.000 Br
ATOM     14  C   UNL     1       0.133  14.294  18.738  0.00  0.00    +0.000 C 
ATOM     15  O   UNL     1       0.574  15.395  18.466  0.00  0.00    +0.000 OA
ATOM     16  N   UNL     1      -0.960  13.721  18.194  0.00  0.00    +0.000 N 
ATOM     17  C   UNL     1      -1.255  12.566  18.827  0.00  0.00    +0.000 C 
ATOM     18  O   UNL     1      -2.260  11.898  18.663  0.00  0.00    +0.000 OA
ATOM     19  H   UNL     1      -1.561  14.167  17.519  0.00  0.00    +0.000 HD
ENDBRANCH   7  11
BRANCH   6  20
ATOM     20  C   UNL     1      -1.400  12.061  22.750  0.00  0.00    +0.000 A 
ATOM     21  C   UNL     1      -2.747  11.898  23.097  0.00  0.00    +0.000 A 
ATOM     22  C   UNL     1      -3.443  12.910  23.758  0.00  0.00    +0.000 A 
ATOM     23  C   UNL     1      -2.782  14.080  24.120  0.00  0.00    +0.000 A 
ATOM     24  C   UNL     1      -1.425  14.241  23.840  0.00  0.00    +0.000 A 
ATOM     25  C   UNL     1      -0.740  13.233  23.155  0.00  0.00    +0.000 A 
BRANCH  24  26
ATOM     26  O   UNL     1      -0.893  15.428  24.264  0.00  0.00    +0.000 OA
ATOM     27  C   UNL     1      -1.805  16.490  24.509  0.00  0.00    +0.000 C 
ENDBRANCH  24  26
ENDBRANCH   6  20
BRANCH   1  28
ATOM     28  O   UNL     1       2.643   7.922  18.199  0.00  0.00    +0.000 OA
BRANCH  28  29
ATOM     29  C   UNL     1       3.100   6.577  18.105  0.00  0.00    +0.000 C 
BRANCH  29  30
ATOM     30  C   UNL     1       4.430   6.571  17.359  0.00  0.00    +0.000 C 
BRANCH  30  32
ATOM     31  C   UNL     1       3.903   4.110  17.317  0.00  0.00    +0.000 C 
ATOM     32  C   UNL     1       4.635   5.248  16.628  0.00  0.00    +0.000 C 
ENDBRANCH  30  32
ENDBRANCH  29  30
ENDBRANCH  28  29
ENDBRANCH   1  28
TORSDOF 7
ENDMDL
