MODEL 1
REMARK VINA RESULT:      -6.4      0.000      0.000
REMARK  Name = 
REMARK  20 active torsions:
REMARK  status: ('A' for Active; 'I' for Inactive)
REMARK    1  A    between atoms: C_1  and  C_2
REMARK    2  A    between atoms: C_2  and  C_3
REMARK    3  A    between atoms: C_3  and  C_4
REMARK    4  A    between atoms: C_4  and  C_5
REMARK    5  A    between atoms: C_5  and  C_6
REMARK    6  A    between atoms: C_6  and  C_7
REMARK    7  A    between atoms: C_7  and  C_8
REMARK    8  A    between atoms: C_8  and  C_9
REMARK    9  A    between atoms: C_9  and  C_10
REMARK   10  A    between atoms: C_10  and  C_11
REMARK   11  A    between atoms: C_11  and  C_12
REMARK   12  A    between atoms: C_12  and  O_13
REMARK   13  A    between atoms: O_13  and  C_14
REMARK   14  A    between atoms: C_14  and  C_15
REMARK   15  A    between atoms: N_17  and  C_18
REMARK   16  A    between atoms: C_20  and  C_21
REMARK   17  A    between atoms: C_21  and  O_22
REMARK   18  A    between atoms: C_23  and  O_24
REMARK   19  A    between atoms: C_25  and  O_26
REMARK   20  A    between atoms: C_27  and  O_28
REMARK                            x       y       z     vdW  Elec       q    Type
REMARK                         _______ _______ _______ _____ _____    ______ ____
ROOT
ATOM      1  C   UNL     1       8.633   9.814  18.363  0.00  0.00    +0.000 A 
ATOM      2  C   UNL     1       8.786  11.073  17.840  0.00  0.00    +0.000 A 
ATOM      3  N   UNL     1       9.571  11.718  18.751  0.00  0.00    +0.000 N 
ATOM      4  N   UNL     1       9.858  10.917  19.797  0.00  0.00    +0.000 NA
ATOM      5  N   UNL     1       9.297   9.736  19.558  0.00  0.00    +0.000 NA
ENDROOT
BRANCH   3   6
ATOM      6  C   UNL     1      10.038  13.097  18.708  0.00  0.00    +0.000 C 
ATOM      7  O   UNL     1       8.927  13.903  19.071  0.00  0.00    +0.000 OA
ATOM      8  C   UNL     1       9.156  15.307  19.125  0.00  0.00    +0.000 C 
ATOM      9  C   UNL     1       9.622  15.829  17.766  0.00  0.00    +0.000 C 
ATOM     10  C   UNL     1      10.801  14.991  17.251  0.00  0.00    +0.000 C 
ATOM     11  C   UNL     1      10.504  13.481  17.306  0.00  0.00    +0.000 C 
BRANCH  11  12
ATOM     12  O   UNL     1      11.656  12.753  16.896  0.00  0.00    +0.000 OA
ATOM     13  H   UNL     1      11.495  11.796  16.962  0.00  0.00    +0.000 HD
ENDBRANCH  11  12
BRANCH  10  14
ATOM     14  O   UNL     1      11.100  15.389  15.913  0.00  0.00    +0.000 OA
ATOM     15  H   UNL     1      10.373  15.943  15.582  0.00  0.00    +0.000 HD
ENDBRANCH  10  14
BRANCH   9  16
ATOM     16  O   UNL     1       9.960  17.215  17.878  0.00  0.00    +0.000 OA
ATOM     17  H   UNL     1       9.151  17.731  18.027  0.00  0.00    +0.000 HD
ENDBRANCH   9  16
BRANCH   8  18
ATOM     18  C   UNL     1       7.807  15.920  19.518  0.00  0.00    +0.000 C 
BRANCH  18  19
ATOM     19  O   UNL     1       8.004  17.265  19.980  0.00  0.00    +0.000 OA
ATOM     20  H   UNL     1       8.425  17.191  20.857  0.00  0.00    +0.000 HD
ENDBRANCH  18  19
ENDBRANCH   8  18
ENDBRANCH   3   6
BRANCH   1  21
ATOM     21  C   UNL     1       7.879   8.684  17.783  0.00  0.00    +0.000 C 
BRANCH  21  22
ATOM     22  O   UNL     1       8.368   7.444  18.311  0.00  0.00    +0.000 OA
BRANCH  22  23
ATOM     23  C   UNL     1       7.302   6.529  18.535  0.00  0.00    +0.000 C 
BRANCH  23  24
ATOM     24  C   UNL     1       7.449   5.367  17.561  0.00  0.00    +0.000 C 
BRANCH  24  25
ATOM     25  C   UNL     1       6.784   5.693  16.229  0.00  0.00    +0.000 C 
BRANCH  25  26
ATOM     26  C   UNL     1       5.420   5.023  16.107  0.00  0.00    +0.000 C 
BRANCH  26  27
ATOM     27  C   UNL     1       4.382   5.780  16.929  0.00  0.00    +0.000 C 
BRANCH  27  28
ATOM     28  C   UNL     1       3.599   4.830  17.828  0.00  0.00    +0.000 C 
BRANCH  28  29
ATOM     29  C   UNL     1       3.915   3.379  17.483  0.00  0.00    +0.000 C 
BRANCH  29  30
ATOM     30  C   UNL     1       2.708   2.487  17.751  0.00  0.00    +0.000 C 
BRANCH  30  31
ATOM     31  C   UNL     1       1.477   3.323  18.093  0.00  0.00    +0.000 C 
BRANCH  31  32
ATOM     32  C   UNL     1       0.841   2.832  19.389  0.00  0.00    +0.000 C 
BRANCH  32  34
ATOM     33  C   UNL     1       2.131   3.172  21.518  0.00  0.00    +0.000 C 
ATOM     34  C   UNL     1       1.137   3.784  20.545  0.00  0.00    +0.000 C 
ENDBRANCH  32  34
ENDBRANCH  31  32
ENDBRANCH  30  31
ENDBRANCH  29  30
ENDBRANCH  28  29
ENDBRANCH  27  28
ENDBRANCH  26  27
ENDBRANCH  25  26
ENDBRANCH  24  25
ENDBRANCH  23  24
ENDBRANCH  22  23
ENDBRANCH  21  22
ENDBRANCH   1  21
TORSDOF 19
ENDMDL
MODEL 2
REMARK VINA RESULT:      -6.4      7.008      8.571
REMARK  Name = 
REMARK  20 active torsions:
REMARK  status: ('A' for Active; 'I' for Inactive)
REMARK    1  A    between atoms: C_1  and  C_2
REMARK    2  A    between atoms: C_2  and  C_3
REMARK    3  A    between atoms: C_3  and  C_4
REMARK    4  A    between atoms: C_4  and  C_5
REMARK    5  A    between atoms: C_5  and  C_6
REMARK    6  A    between atoms: C_6  and  C_7
REMARK    7  A    between atoms: C_7  and  C_8
REMARK    8  A    between atoms: C_8  and  C_9
REMARK    9  A    between atoms: C_9  and  C_10
REMARK   10  A    between atoms: C_10  and  C_11
REMARK   11  A    between atoms: C_11  and  C_12
REMARK   12  A    between atoms: C_12  and  O_13
REMARK   13  A    between atoms: O_13  and  C_14
REMARK   14  A    between atoms: C_14  and  C_15
REMARK   15  A    between atoms: N_17  and  C_18
REMARK   16  A    between atoms: C_20  and  C_21
REMARK   17  A    between atoms: C_21  and  O_22
REMARK   18  A    between atoms: C_23  and  O_24
REMARK   19  A    between atoms: C_25  and  O_26
REMARK   20  A    between atoms: C_27  and  O_28
REMARK                            x       y       z     vdW  Elec       q    Type
REMARK                         _______ _______ _______ _____ _____    ______ ____
ROOT
ATOM      1  C   UNL     1       1.944   6.216  20.341  0.00  0.00    +0.000 A 
ATOM      2  C   UNL     1       1.377   7.363  20.835  0.00  0.00    +0.000 A 
ATOM      3  N   UNL     1       1.643   8.303  19.883  0.00  0.00    +0.000 N 
ATOM      4  N   UNL     1       2.365   7.780  18.873  0.00  0.00    +0.000 NA
ATOM      5  N   UNL     1       2.542   6.490  19.139  0.00  0.00    +0.000 NA
ENDROOT
BRANCH   3   6
ATOM      6  C   UNL     1       1.282   9.714  19.898  0.00  0.00    +0.000 C 
ATOM      7  O   UNL     1       0.431   9.894  21.021  0.00  0.00    +0.000 OA
ATOM      8  C   UNL     1      -0.032  11.220  21.257  0.00  0.00    +0.000 C 
ATOM      9  C   UNL     1      -0.818  11.737  20.053  0.00  0.00    +0.000 C 
ATOM     10  C   UNL     1      -0.004  11.546  18.765  0.00  0.00    +0.000 C 
ATOM     11  C   UNL     1       0.532  10.110  18.628  0.00  0.00    +0.000 C 
BRANCH  11  12
ATOM     12  O   UNL     1       1.344  10.012  17.464  0.00  0.00    +0.000 OA
ATOM     13  H   UNL     1       1.181  10.765  16.870  0.00  0.00    +0.000 HD
ENDBRANCH  11  12
BRANCH  10  14
ATOM     14  O   UNL     1      -0.826  11.877  17.646  0.00  0.00    +0.000 OA
ATOM     15  H   UNL     1      -1.058  12.820  17.697  0.00  0.00    +0.000 HD
ENDBRANCH  10  14
BRANCH   9  16
ATOM     16  O   UNL     1      -1.167  13.108  20.266  0.00  0.00    +0.000 OA
ATOM     17  H   UNL     1      -2.076  13.159  20.606  0.00  0.00    +0.000 HD
ENDBRANCH   9  16
BRANCH   8  18
ATOM     18  C   UNL     1      -0.927  11.118  22.497  0.00  0.00    +0.000 C 
BRANCH  18  19
ATOM     19  O   UNL     1      -0.275  10.321  23.499  0.00  0.00    +0.000 OA
ATOM     20  H   UNL     1       0.187  10.949  24.085  0.00  0.00    +0.000 HD
ENDBRANCH  18  19
ENDBRANCH   8  18
ENDBRANCH   3   6
BRANCH   1  21
ATOM     21  C   UNL     1       1.950   4.876  20.959  0.00  0.00    +0.000 C 
BRANCH  21  22
ATOM     22  O   UNL     1       3.102   4.140  20.526  0.00  0.00    +0.000 OA
BRANCH  22  23
ATOM     23  C   UNL     1       2.794   2.761  20.361  0.00  0.00    +0.000 C 
BRANCH  23  24
ATOM     24  C   UNL     1       3.292   2.314  18.992  0.00  0.00    +0.000 C 
BRANCH  24  25
ATOM     25  C   UNL     1       2.553   3.053  17.883  0.00  0.00    +0.000 C 
BRANCH  25  26
ATOM     26  C   UNL     1       3.523   3.681  16.888  0.00  0.00    +0.000 C 
BRANCH  26  27
ATOM     27  C   UNL     1       4.917   3.784  17.499  0.00  0.00    +0.000 C 
BRANCH  27  28
ATOM     28  C   UNL     1       5.561   5.124  17.166  0.00  0.00    +0.000 C 
BRANCH  28  29
ATOM     29  C   UNL     1       5.242   5.534  15.732  0.00  0.00    +0.000 C 
BRANCH  29  30
ATOM     30  C   UNL     1       6.487   5.445  14.857  0.00  0.00    +0.000 C 
BRANCH  30  31
ATOM     31  C   UNL     1       6.608   4.064  14.220  0.00  0.00    +0.000 C 
BRANCH  31  32
ATOM     32  C   UNL     1       5.294   3.661  13.559  0.00  0.00    +0.000 C 
BRANCH  32  34
ATOM     33  C   UNL     1       4.192   3.290  11.332  0.00  0.00    +0.000 C 
ATOM     34  C   UNL     1       5.505   3.279  12.097  0.00  0.00    +0.000 C 
ENDBRANCH  32  34
ENDBRANCH  31  32
ENDBRANCH  30  31
ENDBRANCH  29  30
ENDBRANCH  28  29
ENDBRANCH  27  28
ENDBRANCH  26  27
ENDBRANCH  25  26
ENDBRANCH  24  25
ENDBRANCH  23  24
ENDBRANCH  22  23
ENDBRANCH  21  22
ENDBRANCH   1  21
TORSDOF 19
ENDMDL
MODEL 3
REMARK VINA RESULT:      -6.4      6.335      7.759
REMARK  Name = 
REMARK  20 active torsions:
REMARK  status: ('A' for Active; 'I' for Inactive)
REMARK    1  A    between atoms: C_1  and  C_2
REMARK    2  A    between atoms: C_2  and  C_3
REMARK    3  A    between atoms: C_3  and  C_4
REMARK    4  A    between atoms: C_4  and  C_5
REMARK    5  A    between atoms: C_5  and  C_6
REMARK    6  A    between atoms: C_6  and  C_7
REMARK    7  A    between atoms: C_7  and  C_8
REMARK    8  A    between atoms: C_8  and  C_9
REMARK    9  A    between atoms: C_9  and  C_10
REMARK   10  A    between atoms: C_10  and  C_11
REMARK   11  A    between atoms: C_11  and  C_12
REMARK   12  A    between atoms: C_12  and  O_13
REMARK   13  A    between atoms: O_13  and  C_14
REMARK   14  A    between atoms: C_14  and  C_15
REMARK   15  A    between atoms: N_17  and  C_18
REMARK   16  A    between atoms: C_20  and  C_21
REMARK   17  A    between atoms: C_21  and  O_22
REMARK   18  A    between atoms: C_23  and  O_24
REMARK   19  A    between atoms: C_25  and  O_26
REMARK   20  A    between atoms: C_27  and  O_28
REMARK                            x       y       z     vdW  Elec       q    Type
REMARK                         _______ _______ _______ _____ _____    ______ ____
ROOT
ATOM      1  C   UNL     1       2.733   7.737  18.460  0.00  0.00    +0.000 A 
ATOM      2  C   UNL     1       1.879   8.808  18.405  0.00  0.00    +0.000 A 
ATOM      3  N   UNL     1       1.227   8.775  19.604  0.00  0.00    +0.000 N 
ATOM      4  N   UNL     1       1.628   7.723  20.344  0.00  0.00    +0.000 NA
ATOM      5  N   UNL     1       2.568   7.086  19.654  0.00  0.00    +0.000 NA
ENDROOT
BRANCH   3   6
ATOM      6  C   UNL     1       0.189   9.679  20.079  0.00  0.00    +0.000 C 
ATOM      7  O   UNL     1      -0.371  10.283  18.922  0.00  0.00    +0.000 OA
ATOM      8  C   UNL     1      -1.440  11.198  19.142  0.00  0.00    +0.000 C 
ATOM      9  C   UNL     1      -0.985  12.352  20.034  0.00  0.00    +0.000 C 
ATOM     10  C   UNL     1      -0.315  11.810  21.305  0.00  0.00    +0.000 C 
ATOM     11  C   UNL     1       0.769  10.763  20.984  0.00  0.00    +0.000 C 
BRANCH  11  12
ATOM     12  O   UNL     1       1.297  10.237  22.196  0.00  0.00    +0.000 OA
ATOM     13  H   UNL     1       1.294  10.915  22.893  0.00  0.00    +0.000 HD
ENDBRANCH  11  12
BRANCH  10  14
ATOM     14  O   UNL     1       0.250  12.901  22.031  0.00  0.00    +0.000 OA
ATOM     15  H   UNL     1       0.674  13.509  21.402  0.00  0.00    +0.000 HD
ENDBRANCH  10  14
BRANCH   9  16
ATOM     16  O   UNL     1      -2.105  13.190  20.338  0.00  0.00    +0.000 OA
ATOM     17  H   UNL     1      -1.802  14.109  20.431  0.00  0.00    +0.000 HD
ENDBRANCH   9  16
BRANCH   8  18
ATOM     18  C   UNL     1      -1.832  11.701  17.748  0.00  0.00    +0.000 C 
BRANCH  18  19
ATOM     19  O   UNL     1      -1.070  12.876  17.428  0.00  0.00    +0.000 OA
ATOM     20  H   UNL     1      -0.498  12.630  16.676  0.00  0.00    +0.000 HD
ENDBRANCH  18  19
ENDBRANCH   8  18
ENDBRANCH   3   6
BRANCH   1  21
ATOM     21  C   UNL     1       3.695   7.299  17.428  0.00  0.00    +0.000 C 
BRANCH  21  22
ATOM     22  O   UNL     1       4.935   6.921  18.040  0.00  0.00    +0.000 OA
BRANCH  22  23
ATOM     23  C   UNL     1       6.000   6.949  17.097  0.00  0.00    +0.000 C 
BRANCH  23  24
ATOM     24  C   UNL     1       7.174   6.164  17.669  0.00  0.00    +0.000 C 
BRANCH  24  25
ATOM     25  C   UNL     1       7.289   4.802  16.995  0.00  0.00    +0.000 C 
BRANCH  25  26
ATOM     26  C   UNL     1       6.399   4.713  15.761  0.00  0.00    +0.000 C 
BRANCH  26  27
ATOM     27  C   UNL     1       5.464   3.512  15.867  0.00  0.00    +0.000 C 
BRANCH  27  28
ATOM     28  C   UNL     1       4.247   3.843  16.722  0.00  0.00    +0.000 C 
BRANCH  28  29
ATOM     29  C   UNL     1       4.173   2.922  17.935  0.00  0.00    +0.000 C 
BRANCH  29  30
ATOM     30  C   UNL     1       3.953   3.728  19.210  0.00  0.00    +0.000 C 
BRANCH  30  31
ATOM     31  C   UNL     1       3.346   2.858  20.307  0.00  0.00    +0.000 C 
BRANCH  31  32
ATOM     32  C   UNL     1       2.147   3.557  20.943  0.00  0.00    +0.000 C 
BRANCH  32  34
ATOM     33  C   UNL     1       0.613   2.578  19.210  0.00  0.00    +0.000 C 
ATOM     34  C   UNL     1       1.066   3.851  19.907  0.00  0.00    +0.000 C 
ENDBRANCH  32  34
ENDBRANCH  31  32
ENDBRANCH  30  31
ENDBRANCH  29  30
ENDBRANCH  28  29
ENDBRANCH  27  28
ENDBRANCH  26  27
ENDBRANCH  25  26
ENDBRANCH  24  25
ENDBRANCH  23  24
ENDBRANCH  22  23
ENDBRANCH  21  22
ENDBRANCH   1  21
TORSDOF 19
ENDMDL
MODEL 4
REMARK VINA RESULT:      -6.3      5.330      9.460
REMARK  Name = 
REMARK  20 active torsions:
REMARK  status: ('A' for Active; 'I' for Inactive)
REMARK    1  A    between atoms: C_1  and  C_2
REMARK    2  A    between atoms: C_2  and  C_3
REMARK    3  A    between atoms: C_3  and  C_4
REMARK    4  A    between atoms: C_4  and  C_5
REMARK    5  A    between atoms: C_5  and  C_6
REMARK    6  A    between atoms: C_6  and  C_7
REMARK    7  A    between atoms: C_7  and  C_8
REMARK    8  A    between atoms: C_8  and  C_9
REMARK    9  A    between atoms: C_9  and  C_10
REMARK   10  A    between atoms: C_10  and  C_11
REMARK   11  A    between atoms: C_11  and  C_12
REMARK   12  A    between atoms: C_12  and  O_13
REMARK   13  A    between atoms: O_13  and  C_14
REMARK   14  A    between atoms: C_14  and  C_15
REMARK   15  A    between atoms: N_17  and  C_18
REMARK   16  A    between atoms: C_20  and  C_21
REMARK   17  A    between atoms: C_21  and  O_22
REMARK   18  A    between atoms: C_23  and  O_24
REMARK   19  A    between atoms: C_25  and  O_26
REMARK   20  A    between atoms: C_27  and  O_28
REMARK                            x       y       z     vdW  Elec       q    Type
REMARK                         _______ _______ _______ _____ _____    ______ ____
ROOT
ATOM      1  C   UNL     1       3.073   5.760  18.420  0.00  0.00    +0.000 A 
ATOM      2  C   UNL     1       2.355   6.497  19.327  0.00  0.00    +0.000 A 
ATOM      3  N   UNL     1       2.424   7.773  18.848  0.00  0.00    +0.000 N 
ATOM      4  N   UNL     1       3.172   7.830  17.728  0.00  0.00    +0.000 NA
ATOM      5  N   UNL     1       3.563   6.591  17.448  0.00  0.00    +0.000 NA
ENDROOT
BRANCH   3   6
ATOM      6  C   UNL     1       1.846   8.976  19.430  0.00  0.00    +0.000 C 
ATOM      7  O   UNL     1       0.990   8.539  20.475  0.00  0.00    +0.000 OA
ATOM      8  C   UNL     1       0.326   9.558  21.216  0.00  0.00    +0.000 C 
ATOM      9  C   UNL     1      -0.544  10.412  20.295  0.00  0.00    +0.000 C 
ATOM     10  C   UNL     1       0.275  10.904  19.093  0.00  0.00    +0.000 C 
ATOM     11  C   UNL     1       1.030   9.754  18.400  0.00  0.00    +0.000 C 
BRANCH  11  12
ATOM     12  O   UNL     1       1.834  10.276  17.349  0.00  0.00    +0.000 OA
ATOM     13  H   UNL     1       1.281  10.527  16.589  0.00  0.00    +0.000 HD
ENDBRANCH  11  12
BRANCH  10  14
ATOM     14  O   UNL     1      -0.601  11.549  18.170  0.00  0.00    +0.000 OA
ATOM     15  H   UNL     1      -1.040  12.290  18.622  0.00  0.00    +0.000 HD
ENDBRANCH  10  14
BRANCH   9  16
ATOM     16  O   UNL     1      -1.103  11.499  21.040  0.00  0.00    +0.000 OA
ATOM     17  H   UNL     1      -1.482  12.148  20.425  0.00  0.00    +0.000 HD
ENDBRANCH   9  16
BRANCH   8  18
ATOM     18  C   UNL     1      -0.528   8.813  22.247  0.00  0.00    +0.000 C 
BRANCH  18  19
ATOM     19  O   UNL     1      -0.766   9.662  23.381  0.00  0.00    +0.000 OA
ATOM     20  H   UNL     1      -1.483  10.270  23.119  0.00  0.00    +0.000 HD
ENDBRANCH  18  19
ENDBRANCH   8  18
ENDBRANCH   3   6
BRANCH   1  21
ATOM     21  C   UNL     1       3.320   4.304  18.438  0.00  0.00    +0.000 C 
BRANCH  21  22
ATOM     22  O   UNL     1       4.374   3.996  19.360  0.00  0.00    +0.000 OA
BRANCH  22  23
ATOM     23  C   UNL     1       5.491   4.854  19.166  0.00  0.00    +0.000 C 
BRANCH  23  24
ATOM     24  C   UNL     1       6.345   4.290  18.038  0.00  0.00    +0.000 C 
BRANCH  24  25
ATOM     25  C   UNL     1       7.566   5.169  17.795  0.00  0.00    +0.000 C 
BRANCH  25  26
ATOM     26  C   UNL     1       7.181   6.640  17.686  0.00  0.00    +0.000 C 
BRANCH  26  27
ATOM     27  C   UNL     1       8.222   7.513  18.380  0.00  0.00    +0.000 C 
BRANCH  27  28
ATOM     28  C   UNL     1       8.147   8.952  17.883  0.00  0.00    +0.000 C 
BRANCH  28  29
ATOM     29  C   UNL     1       8.934   9.881  18.800  0.00  0.00    +0.000 C 
BRANCH  29  30
ATOM     30  C   UNL     1       9.101  11.255  18.160  0.00  0.00    +0.000 C 
BRANCH  30  31
ATOM     31  C   UNL     1      10.559  11.511  17.791  0.00  0.00    +0.000 C 
BRANCH  31  32
ATOM     32  C   UNL     1      11.112  12.692  18.583  0.00  0.00    +0.000 C 
BRANCH  32  34
ATOM     33  C   UNL     1      10.499  13.034  20.996  0.00  0.00    +0.000 C 
ATOM     34  C   UNL     1      11.409  12.297  20.027  0.00  0.00    +0.000 C 
ENDBRANCH  32  34
ENDBRANCH  31  32
ENDBRANCH  30  31
ENDBRANCH  29  30
ENDBRANCH  28  29
ENDBRANCH  27  28
ENDBRANCH  26  27
ENDBRANCH  25  26
ENDBRANCH  24  25
ENDBRANCH  23  24
ENDBRANCH  22  23
ENDBRANCH  21  22
ENDBRANCH   1  21
TORSDOF 19
ENDMDL
MODEL 5
REMARK VINA RESULT:      -6.3      6.277      9.808
REMARK  Name = 
REMARK  20 active torsions:
REMARK  status: ('A' for Active; 'I' for Inactive)
REMARK    1  A    between atoms: C_1  and  C_2
REMARK    2  A    between atoms: C_2  and  C_3
REMARK    3  A    between atoms: C_3  and  C_4
REMARK    4  A    between atoms: C_4  and  C_5
REMARK    5  A    between atoms: C_5  and  C_6
REMARK    6  A    between atoms: C_6  and  C_7
REMARK    7  A    between atoms: C_7  and  C_8
REMARK    8  A    between atoms: C_8  and  C_9
REMARK    9  A    between atoms: C_9  and  C_10
REMARK   10  A    between atoms: C_10  and  C_11
REMARK   11  A    between atoms: C_11  and  C_12
REMARK   12  A    between atoms: C_12  and  O_13
REMARK   13  A    between atoms: O_13  and  C_14
REMARK   14  A    between atoms: C_14  and  C_15
REMARK   15  A    between atoms: N_17  and  C_18
REMARK   16  A    between atoms: C_20  and  C_21
REMARK   17  A    between atoms: C_21  and  O_22
REMARK   18  A    between atoms: C_23  and  O_24
REMARK   19  A    between atoms: C_25  and  O_26
REMARK   20  A    between atoms: C_27  and  O_28
REMARK                            x       y       z     vdW  Elec       q    Type
REMARK                         _______ _______ _______ _____ _____    ______ ____
ROOT
ATOM      1  C   UNL     1       2.019   6.186  20.444  0.00  0.00    +0.000 A 
ATOM      2  C   UNL     1       3.008   6.301  19.500  0.00  0.00    +0.000 A 
ATOM      3  N   UNL     1       3.543   5.048  19.426  0.00  0.00    +0.000 N 
ATOM      4  N   UNL     1       2.945   4.213  20.299  0.00  0.00    +0.000 NA
ATOM      5  N   UNL     1       1.993   4.902  20.920  0.00  0.00    +0.000 NA
ENDROOT
BRANCH   3   6
ATOM      6  C   UNL     1       4.645   4.598  18.587  0.00  0.00    +0.000 C 
ATOM      7  O   UNL     1       5.653   5.592  18.689  0.00  0.00    +0.000 OA
ATOM      8  C   UNL     1       6.855   5.351  17.965  0.00  0.00    +0.000 C 
ATOM      9  C   UNL     1       6.563   5.207  16.472  0.00  0.00    +0.000 C 
ATOM     10  C   UNL     1       5.443   4.182  16.245  0.00  0.00    +0.000 C 
ATOM     11  C   UNL     1       4.214   4.464  17.128  0.00  0.00    +0.000 C 
BRANCH  11  12
ATOM     12  O   UNL     1       3.244   3.440  16.938  0.00  0.00    +0.000 OA
ATOM     13  H   UNL     1       2.636   3.676  16.216  0.00  0.00    +0.000 HD
ENDBRANCH  11  12
BRANCH  10  14
ATOM     14  O   UNL     1       5.076   4.196  14.866  0.00  0.00    +0.000 OA
ATOM     15  H   UNL     1       5.757   3.724  14.356  0.00  0.00    +0.000 HD
ENDBRANCH  10  14
BRANCH   9  16
ATOM     16  O   UNL     1       7.764   4.847  15.783  0.00  0.00    +0.000 OA
ATOM     17  H   UNL     1       8.513   4.890  16.400  0.00  0.00    +0.000 HD
ENDBRANCH   9  16
BRANCH   8  18
ATOM     18  C   UNL     1       7.741   6.571  18.238  0.00  0.00    +0.000 C 
BRANCH  18  19
ATOM     19  O   UNL     1       7.670   7.478  17.127  0.00  0.00    +0.000 OA
ATOM     20  H   UNL     1       8.089   8.307  17.427  0.00  0.00    +0.000 HD
ENDBRANCH  18  19
ENDBRANCH   8  18
ENDBRANCH   3   6
BRANCH   1  21
ATOM     21  C   UNL     1       1.102   7.242  20.919  0.00  0.00    +0.000 C 
BRANCH  21  22
ATOM     22  O   UNL     1       1.617   8.534  20.571  0.00  0.00    +0.000 OA
BRANCH  22  23
ATOM     23  C   UNL     1       0.571   9.408  20.164  0.00  0.00    +0.000 C 
BRANCH  23  24
ATOM     24  C   UNL     1       1.124  10.374  19.124  0.00  0.00    +0.000 C 
BRANCH  24  25
ATOM     25  C   UNL     1       1.130  11.800  19.663  0.00  0.00    +0.000 C 
BRANCH  25  26
ATOM     26  C   UNL     1       0.935  12.819  18.547  0.00  0.00    +0.000 C 
BRANCH  26  27
ATOM     27  C   UNL     1      -0.531  13.230  18.453  0.00  0.00    +0.000 C 
BRANCH  27  28
ATOM     28  C   UNL     1      -1.229  13.070  19.798  0.00  0.00    +0.000 C 
BRANCH  28  29
ATOM     29  C   UNL     1      -2.446  12.161  19.669  0.00  0.00    +0.000 C 
BRANCH  29  30
ATOM     30  C   UNL     1      -2.637  11.717  18.223  0.00  0.00    +0.000 C 
BRANCH  30  31
ATOM     31  C   UNL     1      -2.426  10.212  18.082  0.00  0.00    +0.000 C 
BRANCH  31  32
ATOM     32  C   UNL     1      -2.111   9.850  16.634  0.00  0.00    +0.000 C 
BRANCH  32  34
ATOM     33  C   UNL     1      -3.297  10.077  14.431  0.00  0.00    +0.000 C 
ATOM     34  C   UNL     1      -2.792  10.810  15.663  0.00  0.00    +0.000 C 
ENDBRANCH  32  34
ENDBRANCH  31  32
ENDBRANCH  30  31
ENDBRANCH  29  30
ENDBRANCH  28  29
ENDBRANCH  27  28
ENDBRANCH  26  27
ENDBRANCH  25  26
ENDBRANCH  24  25
ENDBRANCH  23  24
ENDBRANCH  22  23
ENDBRANCH  21  22
ENDBRANCH   1  21
TORSDOF 19
ENDMDL
MODEL 6
REMARK VINA RESULT:      -6.2      5.860      8.070
REMARK  Name = 
REMARK  20 active torsions:
REMARK  status: ('A' for Active; 'I' for Inactive)
REMARK    1  A    between atoms: C_1  and  C_2
REMARK    2  A    between atoms: C_2  and  C_3
REMARK    3  A    between atoms: C_3  and  C_4
REMARK    4  A    between atoms: C_4  and  C_5
REMARK    5  A    between atoms: C_5  and  C_6
REMARK    6  A    between atoms: C_6  and  C_7
REMARK    7  A    between atoms: C_7  and  C_8
REMARK    8  A    between atoms: C_8  and  C_9
REMARK    9  A    between atoms: C_9  and  C_10
REMARK   10  A    between atoms: C_10  and  C_11
REMARK   11  A    between atoms: C_11  and  C_12
REMARK   12  A    between atoms: C_12  and  O_13
REMARK   13  A    between atoms: O_13  and  C_14
REMARK   14  A    between atoms: C_14  and  C_15
REMARK   15  A    between atoms: N_17  and  C_18
REMARK   16  A    between atoms: C_20  and  C_21
REMARK   17  A    between atoms: C_21  and  O_22
REMARK   18  A    between atoms: C_23  and  O_24
REMARK   19  A    between atoms: C_25  and  O_26
REMARK   20  A    between atoms: C_27  and  O_28
REMARK                            x       y       z     vdW  Elec       q    Type
REMARK                         _______ _______ _______ _____ _____    ______ ____
ROOT
ATOM      1  C   UNL     1       2.051   7.740  19.669  0.00  0.00    +0.000 A 
ATOM      2  C   UNL     1       1.838   8.647  18.661  0.00  0.00    +0.000 A 
ATOM      3  N   UNL     1       1.150   9.658  19.266  0.00  0.00    +0.000 N 
ATOM      4  N   UNL     1       0.917   9.379  20.563  0.00  0.00    +0.000 NA
ATOM      5  N   UNL     1       1.483   8.206  20.825  0.00  0.00    +0.000 NA
ENDROOT
BRANCH   3   6
ATOM      6  C   UNL     1       0.648  10.883  18.657  0.00  0.00    +0.000 C 
ATOM      7  O   UNL     1       1.616  11.886  18.929  0.00  0.00    +0.000 OA
ATOM      8  C   UNL     1       1.350  13.181  18.399  0.00  0.00    +0.000 C 
ATOM      9  C   UNL     1       0.027  13.721  18.940  0.00  0.00    +0.000 C 
ATOM     10  C   UNL     1      -1.092  12.689  18.740  0.00  0.00    +0.000 C 
ATOM     11  C   UNL     1      -0.691  11.296  19.261  0.00  0.00    +0.000 C 
BRANCH  11  12
ATOM     12  O   UNL     1      -1.728  10.363  18.977  0.00  0.00    +0.000 OA
ATOM     13  H   UNL     1      -2.500  10.817  18.598  0.00  0.00    +0.000 HD
ENDBRANCH  11  12
BRANCH  10  14
ATOM     14  O   UNL     1      -2.268  13.147  19.405  0.00  0.00    +0.000 OA
ATOM     15  H   UNL     1      -2.492  12.519  20.113  0.00  0.00    +0.000 HD
ENDBRANCH  10  14
BRANCH   9  16
ATOM     16  O   UNL     1      -0.276  14.966  18.303  0.00  0.00    +0.000 OA
ATOM     17  H   UNL     1       0.336  15.104  17.562  0.00  0.00    +0.000 HD
ENDBRANCH   9  16
BRANCH   8  18
ATOM     18  C   UNL     1       2.527  14.051  18.853  0.00  0.00    +0.000 C 
BRANCH  18  19
ATOM     19  O   UNL     1       3.563  14.019  17.859  0.00  0.00    +0.000 OA
ATOM     20  H   UNL     1       4.261  14.622  18.177  0.00  0.00    +0.000 HD
ENDBRANCH  18  19
ENDBRANCH   8  18
ENDBRANCH   3   6
BRANCH   1  21
ATOM     21  C   UNL     1       2.763   6.449  19.582  0.00  0.00    +0.000 C 
BRANCH  21  22
ATOM     22  O   UNL     1       1.822   5.376  19.452  0.00  0.00    +0.000 OA
BRANCH  22  23
ATOM     23  C   UNL     1       1.855   4.527  20.593  0.00  0.00    +0.000 C 
BRANCH  23  24
ATOM     24  C   UNL     1       1.037   3.277  20.292  0.00  0.00    +0.000 C 
BRANCH  24  25
ATOM     25  C   UNL     1       1.334   2.766  18.888  0.00  0.00    +0.000 C 
BRANCH  25  26
ATOM     26  C   UNL     1       2.432   1.708  18.899  0.00  0.00    +0.000 C 
BRANCH  26  27
ATOM     27  C   UNL     1       3.437   1.975  17.782  0.00  0.00    +0.000 C 
BRANCH  27  28
ATOM     28  C   UNL     1       4.068   3.353  17.934  0.00  0.00    +0.000 C 
BRANCH  28  29
ATOM     29  C   UNL     1       4.595   3.856  16.594  0.00  0.00    +0.000 C 
BRANCH  29  30
ATOM     30  C   UNL     1       4.796   5.367  16.627  0.00  0.00    +0.000 C 
BRANCH  30  31
ATOM     31  C   UNL     1       6.227   5.736  16.248  0.00  0.00    +0.000 C 
BRANCH  31  32
ATOM     32  C   UNL     1       7.210   4.715  16.813  0.00  0.00    +0.000 C 
BRANCH  32  34
ATOM     33  C   UNL     1       7.751   6.640  18.332  0.00  0.00    +0.000 C 
ATOM     34  C   UNL     1       7.701   5.128  18.197  0.00  0.00    +0.000 C 
ENDBRANCH  32  34
ENDBRANCH  31  32
ENDBRANCH  30  31
ENDBRANCH  29  30
ENDBRANCH  28  29
ENDBRANCH  27  28
ENDBRANCH  26  27
ENDBRANCH  25  26
ENDBRANCH  24  25
ENDBRANCH  23  24
ENDBRANCH  22  23
ENDBRANCH  21  22
ENDBRANCH   1  21
TORSDOF 19
ENDMDL
MODEL 7
REMARK VINA RESULT:      -6.2      1.401      2.073
REMARK  Name = 
REMARK  20 active torsions:
REMARK  status: ('A' for Active; 'I' for Inactive)
REMARK    1  A    between atoms: C_1  and  C_2
REMARK    2  A    between atoms: C_2  and  C_3
REMARK    3  A    between atoms: C_3  and  C_4
REMARK    4  A    between atoms: C_4  and  C_5
REMARK    5  A    between atoms: C_5  and  C_6
REMARK    6  A    between atoms: C_6  and  C_7
REMARK    7  A    between atoms: C_7  and  C_8
REMARK    8  A    between atoms: C_8  and  C_9
REMARK    9  A    between atoms: C_9  and  C_10
REMARK   10  A    between atoms: C_10  and  C_11
REMARK   11  A    between atoms: C_11  and  C_12
REMARK   12  A    between atoms: C_12  and  O_13
REMARK   13  A    between atoms: O_13  and  C_14
REMARK   14  A    between atoms: C_14  and  C_15
REMARK   15  A    between atoms: N_17  and  C_18
REMARK   16  A    between atoms: C_20  and  C_21
REMARK   17  A    between atoms: C_21  and  O_22
REMARK   18  A    between atoms: C_23  and  O_24
REMARK   19  A    between atoms: C_25  and  O_26
REMARK   20  A    between atoms: C_27  and  O_28
REMARK                            x       y       z     vdW  Elec       q    Type
REMARK                         _______ _______ _______ _____ _____    ______ ____
ROOT
ATOM      1  C   UNL     1       8.062   9.091  18.009  0.00  0.00    +0.000 A 
ATOM      2  C   UNL     1       8.251  10.400  17.642  0.00  0.00    +0.000 A 
ATOM      3  N   UNL     1       9.232  10.842  18.482  0.00  0.00    +0.000 N 
ATOM      4  N   UNL     1       9.604   9.875  19.344  0.00  0.00    +0.000 NA
ATOM      5  N   UNL     1       8.899   8.787  19.050  0.00  0.00    +0.000 NA
ENDROOT
BRANCH   3   6
ATOM      6  C   UNL     1       9.817  12.174  18.545  0.00  0.00    +0.000 C 
ATOM      7  O   UNL     1       8.767  13.083  18.252  0.00  0.00    +0.000 OA
ATOM      8  C   UNL     1       9.102  14.467  18.283  0.00  0.00    +0.000 C 
ATOM      9  C   UNL     1      10.211  14.774  17.277  0.00  0.00    +0.000 C 
ATOM     10  C   UNL     1      11.389  13.809  17.473  0.00  0.00    +0.000 C 
ATOM     11  C   UNL     1      10.931  12.340  17.515  0.00  0.00    +0.000 C 
BRANCH  11  12
ATOM     12  O   UNL     1      12.048  11.499  17.779  0.00  0.00    +0.000 OA
ATOM     13  H   UNL     1      11.837  10.573  17.567  0.00  0.00    +0.000 HD
ENDBRANCH  11  12
BRANCH  10  14
ATOM     14  O   UNL     1      12.328  14.006  16.417  0.00  0.00    +0.000 OA
ATOM     15  H   UNL     1      12.029  14.752  15.868  0.00  0.00    +0.000 HD
ENDBRANCH  10  14
BRANCH   9  16
ATOM     16  O   UNL     1      10.612  16.141  17.412  0.00  0.00    +0.000 OA
ATOM     17  H   UNL     1      11.068  16.423  16.602  0.00  0.00    +0.000 HD
ENDBRANCH   9  16
BRANCH   8  18
ATOM     18  C   UNL     1       7.808  15.202  17.918  0.00  0.00    +0.000 C 
BRANCH  18  19
ATOM     19  O   UNL     1       6.763  14.247  17.673  0.00  0.00    +0.000 OA
ATOM     20  H   UNL     1       6.008  14.525  18.225  0.00  0.00    +0.000 HD
ENDBRANCH  18  19
ENDBRANCH   8  18
ENDBRANCH   3   6
BRANCH   1  21
ATOM     21  C   UNL     1       7.118   8.119  17.421  0.00  0.00    +0.000 C 
BRANCH  21  22
ATOM     22  O   UNL     1       7.816   6.927  17.036  0.00  0.00    +0.000 OA
BRANCH  22  23
ATOM     23  C   UNL     1       7.588   5.878  17.969  0.00  0.00    +0.000 C 
BRANCH  23  24
ATOM     24  C   UNL     1       6.588   4.901  17.364  0.00  0.00    +0.000 C 
BRANCH  24  25
ATOM     25  C   UNL     1       5.670   4.334  18.440  0.00  0.00    +0.000 C 
BRANCH  25  26
ATOM     26  C   UNL     1       4.831   5.428  19.090  0.00  0.00    +0.000 C 
BRANCH  26  27
ATOM     27  C   UNL     1       3.765   5.926  18.119  0.00  0.00    +0.000 C 
BRANCH  27  28
ATOM     28  C   UNL     1       2.387   5.916  18.770  0.00  0.00    +0.000 C 
BRANCH  28  29
ATOM     29  C   UNL     1       2.470   5.397  20.201  0.00  0.00    +0.000 C 
BRANCH  29  30
ATOM     30  C   UNL     1       1.214   4.614  20.564  0.00  0.00    +0.000 C 
BRANCH  30  31
ATOM     31  C   UNL     1       0.961   3.492  19.560  0.00  0.00    +0.000 C 
BRANCH  31  32
ATOM     32  C   UNL     1       2.093   2.471  19.602  0.00  0.00    +0.000 C 
BRANCH  32  34
ATOM     33  C   UNL     1       3.790   1.203  18.251  0.00  0.00    +0.000 C 
ATOM     34  C   UNL     1       2.628   2.181  18.203  0.00  0.00    +0.000 C 
ENDBRANCH  32  34
ENDBRANCH  31  32
ENDBRANCH  30  31
ENDBRANCH  29  30
ENDBRANCH  28  29
ENDBRANCH  27  28
ENDBRANCH  26  27
ENDBRANCH  25  26
ENDBRANCH  24  25
ENDBRANCH  23  24
ENDBRANCH  22  23
ENDBRANCH  21  22
ENDBRANCH   1  21
TORSDOF 19
ENDMDL
MODEL 8
REMARK VINA RESULT:      -6.2      6.469      8.729
REMARK  Name = 
REMARK  20 active torsions:
REMARK  status: ('A' for Active; 'I' for Inactive)
REMARK    1  A    between atoms: C_1  and  C_2
REMARK    2  A    between atoms: C_2  and  C_3
REMARK    3  A    between atoms: C_3  and  C_4
REMARK    4  A    between atoms: C_4  and  C_5
REMARK    5  A    between atoms: C_5  and  C_6
REMARK    6  A    between atoms: C_6  and  C_7
REMARK    7  A    between atoms: C_7  and  C_8
REMARK    8  A    between atoms: C_8  and  C_9
REMARK    9  A    between atoms: C_9  and  C_10
REMARK   10  A    between atoms: C_10  and  C_11
REMARK   11  A    between atoms: C_11  and  C_12
REMARK   12  A    between atoms: C_12  and  O_13
REMARK   13  A    between atoms: O_13  and  C_14
REMARK   14  A    between atoms: C_14  and  C_15
REMARK   15  A    between atoms: N_17  and  C_18
REMARK   16  A    between atoms: C_20  and  C_21
REMARK   17  A    between atoms: C_21  and  O_22
REMARK   18  A    between atoms: C_23  and  O_24
REMARK   19  A    between atoms: C_25  and  O_26
REMARK   20  A    between atoms: C_27  and  O_28
REMARK                            x       y       z     vdW  Elec       q    Type
REMARK                         _______ _______ _______ _____ _____    ______ ____
ROOT
ATOM      1  C   UNL     1       2.074   7.758  19.129  0.00  0.00    +0.000 A 
ATOM      2  C   UNL     1       1.474   8.515  20.103  0.00  0.00    +0.000 A 
ATOM      3  N   UNL     1       1.248   9.717  19.498  0.00  0.00    +0.000 N 
ATOM      4  N   UNL     1       1.714   9.719  18.234  0.00  0.00    +0.000 NA
ATOM      5  N   UNL     1       2.210   8.510  17.992  0.00  0.00    +0.000 NA
ENDROOT
BRANCH   3   6
ATOM      6  C   UNL     1       0.643  10.908  20.080  0.00  0.00    +0.000 C 
ATOM      7  O   UNL     1       0.014  10.486  21.282  0.00  0.00    +0.000 OA
ATOM      8  C   UNL     1      -0.630  11.500  22.047  0.00  0.00    +0.000 C 
ATOM      9  C   UNL     1      -1.721  12.183  21.224  0.00  0.00    +0.000 C 
ATOM     10  C   UNL     1      -1.159  12.641  19.871  0.00  0.00    +0.000 C 
ATOM     11  C   UNL     1      -0.404  11.511  19.147  0.00  0.00    +0.000 C 
BRANCH  11  12
ATOM     12  O   UNL     1       0.163  12.011  17.942  0.00  0.00    +0.000 OA
ATOM     13  H   UNL     1      -0.219  12.876  17.718  0.00  0.00    +0.000 HD
ENDBRANCH  11  12
BRANCH  10  14
ATOM     14  O   UNL     1      -2.234  13.116  19.061  0.00  0.00    +0.000 OA
ATOM     15  H   UNL     1      -1.927  13.889  18.557  0.00  0.00    +0.000 HD
ENDBRANCH  10  14
BRANCH   9  16
ATOM     16  O   UNL     1      -2.269  13.274  21.971  0.00  0.00    +0.000 OA
ATOM     17  H   UNL     1      -3.075  13.591  21.531  0.00  0.00    +0.000 HD
ENDBRANCH   9  16
BRANCH   8  18
ATOM     18  C   UNL     1      -1.226  10.772  23.257  0.00  0.00    +0.000 C 
BRANCH  18  19
ATOM     19  O   UNL     1      -0.533   9.531  23.463  0.00  0.00    +0.000 OA
ATOM     20  H   UNL     1       0.087   9.687  24.201  0.00  0.00    +0.000 HD
ENDBRANCH  18  19
ENDBRANCH   8  18
ENDBRANCH   3   6
BRANCH   1  21
ATOM     21  C   UNL     1       2.529   6.357  19.230  0.00  0.00    +0.000 C 
BRANCH  21  22
ATOM     22  O   UNL     1       2.301   5.861  20.556  0.00  0.00    +0.000 OA
BRANCH  22  23
ATOM     23  C   UNL     1       1.328   4.823  20.553  0.00  0.00    +0.000 C 
BRANCH  23  24
ATOM     24  C   UNL     1       2.038   3.494  20.779  0.00  0.00    +0.000 C 
BRANCH  24  25
ATOM     25  C   UNL     1       1.627   2.478  19.720  0.00  0.00    +0.000 C 
BRANCH  25  26
ATOM     26  C   UNL     1       2.837   1.941  18.962  0.00  0.00    +0.000 C 
BRANCH  26  27
ATOM     27  C   UNL     1       2.692   2.218  17.469  0.00  0.00    +0.000 C 
BRANCH  27  28
ATOM     28  C   UNL     1       3.157   3.628  17.128  0.00  0.00    +0.000 C 
BRANCH  28  29
ATOM     29  C   UNL     1       4.673   3.741  17.254  0.00  0.00    +0.000 C 
BRANCH  29  30
ATOM     30  C   UNL     1       5.189   4.949  16.479  0.00  0.00    +0.000 C 
BRANCH  30  31
ATOM     31  C   UNL     1       5.510   6.105  17.421  0.00  0.00    +0.000 C 
BRANCH  31  32
ATOM     32  C   UNL     1       6.830   6.763  17.030  0.00  0.00    +0.000 C 
BRANCH  32  34
ATOM     33  C   UNL     1       7.596   5.632  19.138  0.00  0.00    +0.000 C 
ATOM     34  C   UNL     1       7.788   6.824  18.215  0.00  0.00    +0.000 C 
ENDBRANCH  32  34
ENDBRANCH  31  32
ENDBRANCH  30  31
ENDBRANCH  29  30
ENDBRANCH  28  29
ENDBRANCH  27  28
ENDBRANCH  26  27
ENDBRANCH  25  26
ENDBRANCH  24  25
ENDBRANCH  23  24
ENDBRANCH  22  23
ENDBRANCH  21  22
ENDBRANCH   1  21
TORSDOF 19
ENDMDL
MODEL 9
REMARK VINA RESULT:      -6.1      6.640      8.462
REMARK  Name = 
REMARK  20 active torsions:
REMARK  status: ('A' for Active; 'I' for Inactive)
REMARK    1  A    between atoms: C_1  and  C_2
REMARK    2  A    between atoms: C_2  and  C_3
REMARK    3  A    between atoms: C_3  and  C_4
REMARK    4  A    between atoms: C_4  and  C_5
REMARK    5  A    between atoms: C_5  and  C_6
REMARK    6  A    between atoms: C_6  and  C_7
REMARK    7  A    between atoms: C_7  and  C_8
REMARK    8  A    between atoms: C_8  and  C_9
REMARK    9  A    between atoms: C_9  and  C_10
REMARK   10  A    between atoms: C_10  and  C_11
REMARK   11  A    between atoms: C_11  and  C_12
REMARK   12  A    between atoms: C_12  and  O_13
REMARK   13  A    between atoms: O_13  and  C_14
REMARK   14  A    between atoms: C_14  and  C_15
REMARK   15  A    between atoms: N_17  and  C_18
REMARK   16  A    between atoms: C_20  and  C_21
REMARK   17  A    between atoms: C_21  and  O_22
REMARK   18  A    between atoms: C_23  and  O_24
REMARK   19  A    between atoms: C_25  and  O_26
REMARK   20  A    between atoms: C_27  and  O_28
REMARK                            x       y       z     vdW  Elec       q    Type
REMARK                         _______ _______ _______ _____ _____    ______ ____
ROOT
ATOM      1  C   UNL     1       1.686   7.374  20.463  0.00  0.00    +0.000 A 
ATOM      2  C   UNL     1       1.739   8.465  19.632  0.00  0.00    +0.000 A 
ATOM      3  N   UNL     1       1.045   9.429  20.304  0.00  0.00    +0.000 N 
ATOM      4  N   UNL     1       0.558   8.954  21.467  0.00  0.00    +0.000 NA
ATOM      5  N   UNL     1       0.962   7.693  21.581  0.00  0.00    +0.000 NA
ENDROOT
BRANCH   3   6
ATOM      6  C   UNL     1       0.772  10.793  19.874  0.00  0.00    +0.000 C 
ATOM      7  O   UNL     1       0.168  11.445  20.982  0.00  0.00    +0.000 OA
ATOM      8  C   UNL     1      -0.166  12.818  20.802  0.00  0.00    +0.000 C 
ATOM      9  C   UNL     1      -1.143  12.985  19.639  0.00  0.00    +0.000 C 
ATOM     10  C   UNL     1      -0.609  12.271  18.389  0.00  0.00    +0.000 C 
ATOM     11  C   UNL     1      -0.189  10.820  18.687  0.00  0.00    +0.000 C 
BRANCH  11  12
ATOM     12  O   UNL     1       0.372  10.234  17.518  0.00  0.00    +0.000 OA
ATOM     13  H   UNL     1      -0.033  10.613  16.719  0.00  0.00    +0.000 HD
ENDBRANCH  11  12
BRANCH  10  14
ATOM     14  O   UNL     1      -1.615  12.297  17.376  0.00  0.00    +0.000 OA
ATOM     15  H   UNL     1      -2.157  11.494  17.453  0.00  0.00    +0.000 HD
ENDBRANCH  10  14
BRANCH   9  16
ATOM     16  O   UNL     1      -1.368  14.378  19.402  0.00  0.00    +0.000 OA
ATOM     17  H   UNL     1      -2.316  14.528  19.247  0.00  0.00    +0.000 HD
ENDBRANCH   9  16
BRANCH   8  18
ATOM     18  C   UNL     1      -0.805  13.252  22.125  0.00  0.00    +0.000 C 
BRANCH  18  19
ATOM     19  O   UNL     1      -0.584  12.242  23.122  0.00  0.00    +0.000 OA
ATOM     20  H   UNL     1      -1.338  11.626  23.055  0.00  0.00    +0.000 HD
ENDBRANCH  18  19
ENDBRANCH   8  18
ENDBRANCH   3   6
BRANCH   1  21
ATOM     21  C   UNL     1       2.285   6.044  20.240  0.00  0.00    +0.000 C 
BRANCH  21  22
ATOM     22  O   UNL     1       1.302   5.143  19.715  0.00  0.00    +0.000 OA
BRANCH  22  23
ATOM     23  C   UNL     1       1.161   3.997  20.547  0.00  0.00    +0.000 C 
BRANCH  23  24
ATOM     24  C   UNL     1       2.543   3.580  21.034  0.00  0.00    +0.000 C 
BRANCH  24  25
ATOM     25  C   UNL     1       3.138   2.517  20.119  0.00  0.00    +0.000 C 
BRANCH  25  26
ATOM     26  C   UNL     1       4.372   3.035  19.389  0.00  0.00    +0.000 C 
BRANCH  26  27
ATOM     27  C   UNL     1       4.192   2.900  17.880  0.00  0.00    +0.000 C 
BRANCH  27  28
ATOM     28  C   UNL     1       3.568   4.159  17.291  0.00  0.00    +0.000 C 
BRANCH  28  29
ATOM     29  C   UNL     1       4.601   4.950  16.495  0.00  0.00    +0.000 C 
BRANCH  29  30
ATOM     30  C   UNL     1       5.775   4.060  16.102  0.00  0.00    +0.000 C 
BRANCH  30  31
ATOM     31  C   UNL     1       7.097   4.809  16.240  0.00  0.00    +0.000 C 
BRANCH  31  32
ATOM     32  C   UNL     1       7.672   4.627  17.642  0.00  0.00    +0.000 C 
BRANCH  32  34
ATOM     33  C   UNL     1       7.528   7.135  17.613  0.00  0.00    +0.000 C 
ATOM     34  C   UNL     1       7.492   5.888  18.481  0.00  0.00    +0.000 C 
ENDBRANCH  32  34
ENDBRANCH  31  32
ENDBRANCH  30  31
ENDBRANCH  29  30
ENDBRANCH  28  29
ENDBRANCH  27  28
ENDBRANCH  26  27
ENDBRANCH  25  26
ENDBRANCH  24  25
ENDBRANCH  23  24
ENDBRANCH  22  23
ENDBRANCH  21  22
ENDBRANCH   1  21
TORSDOF 19
ENDMDL
