MODEL 1
REMARK VINA RESULT:      -7.8      0.000      0.000
REMARK  Name = 
REMARK  13 active torsions:
REMARK  status: ('A' for Active; 'I' for Inactive)
REMARK    1  A    between atoms: C_1  and  C_2
REMARK    2  A    between atoms: C_2  and  C_3
REMARK    3  A    between atoms: C_3  and  N_4
REMARK    4  A    between atoms: C_5  and  O_7
REMARK    5  A    between atoms: O_7  and  C_8
REMARK    6  A    between atoms: C_12  and  C_13
REMARK    7  A    between atoms: C_13  and  N_14
REMARK    8  A    between atoms: N_14  and  C_15
REMARK    9  A    between atoms: N_14  and  C_16
REMARK   10  A    between atoms: C_16  and  C_17
REMARK   11  A    between atoms: C_17  and  C_18
REMARK   12  A    between atoms: C_18  and  O_19
REMARK   13  A    between atoms: O_19  and  C_20
REMARK                            x       y       z     vdW  Elec       q    Type
REMARK                         _______ _______ _______ _____ _____    ______ ____
ROOT
ATOM      1  N   UNL     1       2.085   4.140  20.452  0.00  0.00    +0.000 NA
ATOM      2  C   UNL     1       2.248   3.160  21.536  0.00  0.00    +0.000 C 
ENDROOT
BRANCH   1   3
ATOM      3  C   UNL     1       1.537   5.415  20.963  0.00  0.00    +0.000 C 
BRANCH   3   8
ATOM      4  C   UNL     1       1.588   8.940  19.517  0.00  0.00    +0.000 A 
ATOM      5  C   UNL     1       2.294   8.754  18.327  0.00  0.00    +0.000 A 
ATOM      6  C   UNL     1       2.800   7.494  18.019  0.00  0.00    +0.000 A 
ATOM      7  C   UNL     1       2.573   6.417  18.879  0.00  0.00    +0.000 A 
ATOM      8  C   UNL     1       1.841   6.596  20.065  0.00  0.00    +0.000 A 
ATOM      9  C   UNL     1       1.371   7.878  20.392  0.00  0.00    +0.000 A 
BRANCH   4  10
ATOM     10  O   UNL     1       0.940  10.173  19.703  0.00  0.00    +0.000 OA
BRANCH  10  12
ATOM     11  N   UNL     1       0.744  11.981  18.302  0.00  0.00    +0.000 N 
ATOM     12  C   UNL     1       0.268  10.734  18.629  0.00  0.00    +0.000 C 
ATOM     13  O   UNL     1      -0.657  10.231  18.006  0.00  0.00    +0.000 OA
ATOM     14  H   UNL     1       0.223  12.398  17.542  0.00  0.00    +0.000 HD
BRANCH  11  15
ATOM     15  C   UNL     1       2.136  12.358  18.439  0.00  0.00    +0.000 C 
BRANCH  15  17
ATOM     16  C   UNL     1       1.247  14.695  18.939  0.00  0.00    +0.000 C 
ATOM     17  C   UNL     1       2.336  13.867  18.264  0.00  0.00    +0.000 C 
ENDBRANCH  15  17
ENDBRANCH  11  15
ENDBRANCH  10  12
ENDBRANCH   4  10
ENDBRANCH   3   8
ENDBRANCH   1   3
BRANCH   1  18
ATOM     18  C   UNL     1       1.221   3.553  19.404  0.00  0.00    +0.000 C 
BRANCH  18  19
ATOM     19  C   UNL     1       1.477   2.069  19.126  0.00  0.00    +0.000 C 
BRANCH  19  20
ATOM     20  C   UNL     1       2.767   1.812  18.357  0.00  0.00    +0.000 C 
BRANCH  20  21
ATOM     21  O   UNL     1       2.895   2.864  17.398  0.00  0.00    +0.000 OA
BRANCH  21  22
ATOM     22  C   UNL     1       4.042   3.599  17.429  0.00  0.00    +0.000 A 
ATOM     23  C   UNL     1       4.411   4.158  16.196  0.00  0.00    +0.000 A 
ATOM     24  C   UNL     1       5.523   4.996  16.098  0.00  0.00    +0.000 A 
ATOM     25  C   UNL     1       6.278   5.255  17.241  0.00  0.00    +0.000 A 
ATOM     26  C   UNL     1       7.329   6.285  17.243  0.00  0.00    +0.000 A 
ATOM     27  O   UNL     1       7.679   6.882  16.227  0.00  0.00    +0.000 OA
ATOM     28  C   UNL     1       7.905   6.613  18.560  0.00  0.00    +0.000 A 
ATOM     29  C   UNL     1       7.646   5.795  19.584  0.00  0.00    +0.000 A 
ATOM     30  O   UNL     1       6.774   4.732  19.559  0.00  0.00    +0.000 OA
ATOM     31  C   UNL     1       5.984   4.608  18.440  0.00  0.00    +0.000 A 
ATOM     32  C   UNL     1       4.849   3.809  18.550  0.00  0.00    +0.000 A 
ENDBRANCH  21  22
ENDBRANCH  20  21
ENDBRANCH  19  20
ENDBRANCH  18  19
ENDBRANCH   1  18
TORSDOF 11
ENDMDL
MODEL 2
REMARK VINA RESULT:      -7.6      2.326      6.734
REMARK  Name = 
REMARK  13 active torsions:
REMARK  status: ('A' for Active; 'I' for Inactive)
REMARK    1  A    between atoms: C_1  and  C_2
REMARK    2  A    between atoms: C_2  and  C_3
REMARK    3  A    between atoms: C_3  and  N_4
REMARK    4  A    between atoms: C_5  and  O_7
REMARK    5  A    between atoms: O_7  and  C_8
REMARK    6  A    between atoms: C_12  and  C_13
REMARK    7  A    between atoms: C_13  and  N_14
REMARK    8  A    between atoms: N_14  and  C_15
REMARK    9  A    between atoms: N_14  and  C_16
REMARK   10  A    between atoms: C_16  and  C_17
REMARK   11  A    between atoms: C_17  and  C_18
REMARK   12  A    between atoms: C_18  and  O_19
REMARK   13  A    between atoms: O_19  and  C_20
REMARK                            x       y       z     vdW  Elec       q    Type
REMARK                         _______ _______ _______ _____ _____    ______ ____
ROOT
ATOM      1  N   UNL     1       2.580   3.253  17.491  0.00  0.00    +0.000 NA
ATOM      2  C   UNL     1       3.533   2.251  17.992  0.00  0.00    +0.000 C 
ENDROOT
BRANCH   1   3
ATOM      3  C   UNL     1       3.225   4.575  17.342  0.00  0.00    +0.000 C 
BRANCH   3   8
ATOM      4  C   UNL     1       7.032   4.628  17.180  0.00  0.00    +0.000 A 
ATOM      5  C   UNL     1       7.265   4.466  15.813  0.00  0.00    +0.000 A 
ATOM      6  C   UNL     1       6.188   4.285  14.950  0.00  0.00    +0.000 A 
ATOM      7  C   UNL     1       4.882   4.301  15.444  0.00  0.00    +0.000 A 
ATOM      8  C   UNL     1       4.643   4.490  16.816  0.00  0.00    +0.000 A 
ATOM      9  C   UNL     1       5.734   4.627  17.688  0.00  0.00    +0.000 A 
BRANCH   4  10
ATOM     10  O   UNL     1       8.123   4.988  17.988  0.00  0.00    +0.000 OA
BRANCH  10  12
ATOM     11  N   UNL     1       8.221   7.067  18.958  0.00  0.00    +0.000 N 
ATOM     12  C   UNL     1       7.883   5.745  19.123  0.00  0.00    +0.000 C 
ATOM     13  O   UNL     1       7.431   5.340  20.186  0.00  0.00    +0.000 OA
ATOM     14  H   UNL     1       8.077   7.603  19.804  0.00  0.00    +0.000 HD
BRANCH  11  15
ATOM     15  C   UNL     1       8.086   7.766  17.696  0.00  0.00    +0.000 C 
BRANCH  15  17
ATOM     16  C   UNL     1       9.006  10.089  18.204  0.00  0.00    +0.000 C 
ATOM     17  C   UNL     1       7.768   9.251  17.901  0.00  0.00    +0.000 C 
ENDBRANCH  15  17
ENDBRANCH  11  15
ENDBRANCH  10  12
ENDBRANCH   4  10
ENDBRANCH   3   8
ENDBRANCH   1   3
BRANCH   1  18
ATOM     18  C   UNL     1       1.421   3.310  18.408  0.00  0.00    +0.000 C 
BRANCH  18  19
ATOM     19  C   UNL     1       1.786   3.306  19.896  0.00  0.00    +0.000 C 
BRANCH  19  20
ATOM     20  C   UNL     1       1.366   4.577  20.624  0.00  0.00    +0.000 C 
BRANCH  20  21
ATOM     21  O   UNL     1       2.371   5.558  20.358  0.00  0.00    +0.000 OA
BRANCH  21  22
ATOM     22  C   UNL     1       1.949   6.829  20.106  0.00  0.00    +0.000 A 
ATOM     23  C   UNL     1       1.040   7.341  21.046  0.00  0.00    +0.000 A 
ATOM     24  C   UNL     1       0.584   8.656  20.953  0.00  0.00    +0.000 A 
ATOM     25  C   UNL     1       1.027   9.454  19.899  0.00  0.00    +0.000 A 
ATOM     26  C   UNL     1       0.747  10.898  19.864  0.00  0.00    +0.000 A 
ATOM     27  O   UNL     1       0.018  11.455  20.683  0.00  0.00    +0.000 OA
ATOM     28  C   UNL     1       1.447  11.664  18.818  0.00  0.00    +0.000 A 
ATOM     29  C   UNL     1       2.049  10.988  17.835  0.00  0.00    +0.000 A 
ATOM     30  O   UNL     1       2.193   9.621  17.776  0.00  0.00    +0.000 OA
ATOM     31  C   UNL     1       1.836   8.913  18.900  0.00  0.00    +0.000 A 
ATOM     32  C   UNL     1       2.328   7.616  19.016  0.00  0.00    +0.000 A 
ENDBRANCH  21  22
ENDBRANCH  20  21
ENDBRANCH  19  20
ENDBRANCH  18  19
ENDBRANCH   1  18
TORSDOF 11
ENDMDL
MODEL 3
REMARK VINA RESULT:      -7.5      1.368      2.014
REMARK  Name = 
REMARK  13 active torsions:
REMARK  status: ('A' for Active; 'I' for Inactive)
REMARK    1  A    between atoms: C_1  and  C_2
REMARK    2  A    between atoms: C_2  and  C_3
REMARK    3  A    between atoms: C_3  and  N_4
REMARK    4  A    between atoms: C_5  and  O_7
REMARK    5  A    between atoms: O_7  and  C_8
REMARK    6  A    between atoms: C_12  and  C_13
REMARK    7  A    between atoms: C_13  and  N_14
REMARK    8  A    between atoms: N_14  and  C_15
REMARK    9  A    between atoms: N_14  and  C_16
REMARK   10  A    between atoms: C_16  and  C_17
REMARK   11  A    between atoms: C_17  and  C_18
REMARK   12  A    between atoms: C_18  and  O_19
REMARK   13  A    between atoms: O_19  and  C_20
REMARK                            x       y       z     vdW  Elec       q    Type
REMARK                         _______ _______ _______ _____ _____    ______ ____
ROOT
ATOM      1  N   UNL     1       2.145   5.094  20.023  0.00  0.00    +0.000 NA
ATOM      2  C   UNL     1       2.971   4.369  20.999  0.00  0.00    +0.000 C 
ENDROOT
BRANCH   1   3
ATOM      3  C   UNL     1       1.573   6.322  20.616  0.00  0.00    +0.000 C 
BRANCH   3   8
ATOM      4  C   UNL     1       1.336   9.888  19.294  0.00  0.00    +0.000 A 
ATOM      5  C   UNL     1       1.930   9.769  18.035  0.00  0.00    +0.000 A 
ATOM      6  C   UNL     1       2.455   8.544  17.637  0.00  0.00    +0.000 A 
ATOM      7  C   UNL     1       2.357   7.432  18.477  0.00  0.00    +0.000 A 
ATOM      8  C   UNL     1       1.739   7.543  19.734  0.00  0.00    +0.000 A 
ATOM      9  C   UNL     1       1.250   8.791  20.149  0.00  0.00    +0.000 A 
BRANCH   4  10
ATOM     10  O   UNL     1       0.660  11.085  19.584  0.00  0.00    +0.000 OA
BRANCH  10  12
ATOM     11  N   UNL     1      -0.183  12.432  17.928  0.00  0.00    +0.000 N 
ATOM     12  C   UNL     1       0.877  12.181  18.765  0.00  0.00    +0.000 C 
ATOM     13  O   UNL     1       1.881  12.881  18.736  0.00  0.00    +0.000 OA
ATOM     14  H   UNL     1       0.000  13.210  17.308  0.00  0.00    +0.000 HD
BRANCH  11  15
ATOM     15  C   UNL     1      -1.562  12.191  18.303  0.00  0.00    +0.000 C 
BRANCH  15  17
ATOM     16  C   UNL     1      -1.756   9.877  17.249  0.00  0.00    +0.000 C 
ATOM     17  C   UNL     1      -2.282  11.308  17.278  0.00  0.00    +0.000 C 
ENDBRANCH  15  17
ENDBRANCH  11  15
ENDBRANCH  10  12
ENDBRANCH   4  10
ENDBRANCH   3   8
ENDBRANCH   1   3
BRANCH   1  18
ATOM     18  C   UNL     1       1.091   4.186  19.521  0.00  0.00    +0.000 C 
BRANCH  18  19
ATOM     19  C   UNL     1       1.284   3.723  18.074  0.00  0.00    +0.000 C 
BRANCH  19  20
ATOM     20  C   UNL     1       2.590   2.971  17.850  0.00  0.00    +0.000 C 
BRANCH  20  21
ATOM     21  O   UNL     1       3.223   3.569  16.717  0.00  0.00    +0.000 OA
BRANCH  21  22
ATOM     22  C   UNL     1       4.323   4.339  16.952  0.00  0.00    +0.000 A 
ATOM     23  C   UNL     1       4.432   5.469  16.127  0.00  0.00    +0.000 A 
ATOM     24  C   UNL     1       5.468   6.386  16.308  0.00  0.00    +0.000 A 
ATOM     25  C   UNL     1       6.410   6.155  17.310  0.00  0.00    +0.000 A 
ATOM     26  C   UNL     1       7.396   7.181  17.682  0.00  0.00    +0.000 A 
ATOM     27  O   UNL     1       7.525   8.236  17.065  0.00  0.00    +0.000 OA
ATOM     28  C   UNL     1       8.190   6.901  18.892  0.00  0.00    +0.000 A 
ATOM     29  C   UNL     1       8.162   5.663  19.394  0.00  0.00    +0.000 A 
ATOM     30  O   UNL     1       7.349   4.642  18.961  0.00  0.00    +0.000 OA
ATOM     31  C   UNL     1       6.371   4.975  18.052  0.00  0.00    +0.000 A 
ATOM     32  C   UNL     1       5.312   4.082  17.904  0.00  0.00    +0.000 A 
ENDBRANCH  21  22
ENDBRANCH  20  21
ENDBRANCH  19  20
ENDBRANCH  18  19
ENDBRANCH   1  18
TORSDOF 11
ENDMDL
MODEL 4
REMARK VINA RESULT:      -7.4      3.139      9.103
REMARK  Name = 
REMARK  13 active torsions:
REMARK  status: ('A' for Active; 'I' for Inactive)
REMARK    1  A    between atoms: C_1  and  C_2
REMARK    2  A    between atoms: C_2  and  C_3
REMARK    3  A    between atoms: C_3  and  N_4
REMARK    4  A    between atoms: C_5  and  O_7
REMARK    5  A    between atoms: O_7  and  C_8
REMARK    6  A    between atoms: C_12  and  C_13
REMARK    7  A    between atoms: C_13  and  N_14
REMARK    8  A    between atoms: N_14  and  C_15
REMARK    9  A    between atoms: N_14  and  C_16
REMARK   10  A    between atoms: C_16  and  C_17
REMARK   11  A    between atoms: C_17  and  C_18
REMARK   12  A    between atoms: C_18  and  O_19
REMARK   13  A    between atoms: O_19  and  C_20
REMARK                            x       y       z     vdW  Elec       q    Type
REMARK                         _______ _______ _______ _____ _____    ______ ____
ROOT
ATOM      1  N   UNL     1       2.783   5.479  18.103  0.00  0.00    +0.000 NA
ATOM      2  C   UNL     1       1.859   4.346  18.266  0.00  0.00    +0.000 C 
ENDROOT
BRANCH   1   3
ATOM      3  C   UNL     1       3.872   5.427  19.102  0.00  0.00    +0.000 C 
BRANCH   3   8
ATOM      4  C   UNL     1       6.614   4.512  16.620  0.00  0.00    +0.000 A 
ATOM      5  C   UNL     1       7.768   4.685  17.387  0.00  0.00    +0.000 A 
ATOM      6  C   UNL     1       7.659   5.150  18.694  0.00  0.00    +0.000 A 
ATOM      7  C   UNL     1       6.402   5.409  19.245  0.00  0.00    +0.000 A 
ATOM      8  C   UNL     1       5.238   5.211  18.483  0.00  0.00    +0.000 A 
ATOM      9  C   UNL     1       5.356   4.785  17.151  0.00  0.00    +0.000 A 
BRANCH   4  10
ATOM     10  O   UNL     1       6.750   3.872  15.376  0.00  0.00    +0.000 OA
BRANCH  10  12
ATOM     11  N   UNL     1       6.642   4.165  13.102  0.00  0.00    +0.000 N 
ATOM     12  C   UNL     1       7.161   4.625  14.288  0.00  0.00    +0.000 C 
ATOM     13  O   UNL     1       7.908   5.594  14.314  0.00  0.00    +0.000 OA
ATOM     14  H   UNL     1       6.978   4.697  12.310  0.00  0.00    +0.000 HD
BRANCH  11  15
ATOM     15  C   UNL     1       5.326   3.569  12.992  0.00  0.00    +0.000 C 
BRANCH  15  17
ATOM     16  C   UNL     1       3.812   3.230  10.969  0.00  0.00    +0.000 C 
ATOM     17  C   UNL     1       5.131   2.869  11.643  0.00  0.00    +0.000 C 
ENDBRANCH  15  17
ENDBRANCH  11  15
ENDBRANCH  10  12
ENDBRANCH   4  10
ENDBRANCH   3   8
ENDBRANCH   1   3
BRANCH   1  18
ATOM     18  C   UNL     1       2.014   6.738  18.196  0.00  0.00    +0.000 C 
BRANCH  18  19
ATOM     19  C   UNL     1       2.797   7.994  17.800  0.00  0.00    +0.000 C 
BRANCH  19  20
ATOM     20  C   UNL     1       2.034   9.287  18.054  0.00  0.00    +0.000 C 
BRANCH  20  21
ATOM     21  O   UNL     1       1.336   9.121  19.289  0.00  0.00    +0.000 OA
BRANCH  21  22
ATOM     22  C   UNL     1       0.540  10.149  19.698  0.00  0.00    +0.000 A 
ATOM     23  C   UNL     1      -0.660  10.280  18.981  0.00  0.00    +0.000 A 
ATOM     24  C   UNL     1      -1.604  11.243  19.342  0.00  0.00    +0.000 A 
ATOM     25  C   UNL     1      -1.330  12.091  20.414  0.00  0.00    +0.000 A 
ATOM     26  C   UNL     1      -2.365  12.979  20.967  0.00  0.00    +0.000 A 
ATOM     27  O   UNL     1      -3.473  13.113  20.452  0.00  0.00    +0.000 OA
ATOM     28  C   UNL     1      -2.019  13.663  22.226  0.00  0.00    +0.000 A 
ATOM     29  C   UNL     1      -0.743  13.651  22.622  0.00  0.00    +0.000 A 
ATOM     30  O   UNL     1       0.273  12.940  22.027  0.00  0.00    +0.000 OA
ATOM     31  C   UNL     1      -0.091  12.041  21.052  0.00  0.00    +0.000 A 
ATOM     32  C   UNL     1       0.832  11.052  20.724  0.00  0.00    +0.000 A 
ENDBRANCH  21  22
ENDBRANCH  20  21
ENDBRANCH  19  20
ENDBRANCH  18  19
ENDBRANCH   1  18
TORSDOF 11
ENDMDL
MODEL 5
REMARK VINA RESULT:      -7.4      2.821      8.416
REMARK  Name = 
REMARK  13 active torsions:
REMARK  status: ('A' for Active; 'I' for Inactive)
REMARK    1  A    between atoms: C_1  and  C_2
REMARK    2  A    between atoms: C_2  and  C_3
REMARK    3  A    between atoms: C_3  and  N_4
REMARK    4  A    between atoms: C_5  and  O_7
REMARK    5  A    between atoms: O_7  and  C_8
REMARK    6  A    between atoms: C_12  and  C_13
REMARK    7  A    between atoms: C_13  and  N_14
REMARK    8  A    between atoms: N_14  and  C_15
REMARK    9  A    between atoms: N_14  and  C_16
REMARK   10  A    between atoms: C_16  and  C_17
REMARK   11  A    between atoms: C_17  and  C_18
REMARK   12  A    between atoms: C_18  and  O_19
REMARK   13  A    between atoms: O_19  and  C_20
REMARK                            x       y       z     vdW  Elec       q    Type
REMARK                         _______ _______ _______ _____ _____    ______ ____
ROOT
ATOM      1  N   UNL     1       1.841   3.235  18.277  0.00  0.00    +0.000 NA
ATOM      2  C   UNL     1       0.896   2.302  18.909  0.00  0.00    +0.000 C 
ENDROOT
BRANCH   1   3
ATOM      3  C   UNL     1       3.151   2.590  18.043  0.00  0.00    +0.000 C 
BRANCH   3   8
ATOM      4  C   UNL     1       5.400   4.972  16.099  0.00  0.00    +0.000 A 
ATOM      5  C   UNL     1       6.366   5.300  17.053  0.00  0.00    +0.000 A 
ATOM      6  C   UNL     1       6.257   4.791  18.344  0.00  0.00    +0.000 A 
ATOM      7  C   UNL     1       5.207   3.929  18.671  0.00  0.00    +0.000 A 
ATOM      8  C   UNL     1       4.249   3.577  17.706  0.00  0.00    +0.000 A 
ATOM      9  C   UNL     1       4.339   4.129  16.419  0.00  0.00    +0.000 A 
BRANCH   4  10
ATOM     10  O   UNL     1       5.643   5.355  14.769  0.00  0.00    +0.000 OA
BRANCH  10  12
ATOM     11  N   UNL     1       6.528   3.705  13.442  0.00  0.00    +0.000 N 
ATOM     12  C   UNL     1       6.773   4.864  14.137  0.00  0.00    +0.000 C 
ATOM     13  O   UNL     1       7.894   5.355  14.163  0.00  0.00    +0.000 OA
ATOM     14  H   UNL     1       7.366   3.333  13.015  0.00  0.00    +0.000 HD
BRANCH  11  15
ATOM     15  C   UNL     1       5.268   3.431  12.780  0.00  0.00    +0.000 C 
BRANCH  15  17
ATOM     16  C   UNL     1       6.840   1.959  11.414  0.00  0.00    +0.000 C 
ATOM     17  C   UNL     1       5.466   2.616  11.497  0.00  0.00    +0.000 C 
ENDBRANCH  15  17
ENDBRANCH  11  15
ENDBRANCH  10  12
ENDBRANCH   4  10
ENDBRANCH   3   8
ENDBRANCH   1   3
BRANCH   1  18
ATOM     18  C   UNL     1       1.966   4.437  19.129  0.00  0.00    +0.000 C 
BRANCH  18  19
ATOM     19  C   UNL     1       1.992   5.762  18.361  0.00  0.00    +0.000 C 
BRANCH  19  20
ATOM     20  C   UNL     1       2.843   6.832  19.033  0.00  0.00    +0.000 C 
BRANCH  20  21
ATOM     21  O   UNL     1       2.391   8.093  18.536  0.00  0.00    +0.000 OA
BRANCH  21  22
ATOM     22  C   UNL     1       1.533   8.802  19.322  0.00  0.00    +0.000 A 
ATOM     23  C   UNL     1       1.663   8.557  20.698  0.00  0.00    +0.000 A 
ATOM     24  C   UNL     1       0.899   9.269  21.624  0.00  0.00    +0.000 A 
ATOM     25  C   UNL     1      -0.014  10.216  21.163  0.00  0.00    +0.000 A 
ATOM     26  C   UNL     1      -0.692  11.136  22.089  0.00  0.00    +0.000 A 
ATOM     27  O   UNL     1      -0.589  11.048  23.311  0.00  0.00    +0.000 OA
ATOM     28  C   UNL     1      -1.464  12.226  21.464  0.00  0.00    +0.000 A 
ATOM     29  C   UNL     1      -1.717  12.149  20.154  0.00  0.00    +0.000 A 
ATOM     30  O   UNL     1      -1.208  11.204  19.294  0.00  0.00    +0.000 OA
ATOM     31  C   UNL     1      -0.230  10.377  19.794  0.00  0.00    +0.000 A 
ATOM     32  C   UNL     1       0.564   9.701  18.871  0.00  0.00    +0.000 A 
ENDBRANCH  21  22
ENDBRANCH  20  21
ENDBRANCH  19  20
ENDBRANCH  18  19
ENDBRANCH   1  18
TORSDOF 11
ENDMDL
MODEL 6
REMARK VINA RESULT:      -7.3      2.202      3.204
REMARK  Name = 
REMARK  13 active torsions:
REMARK  status: ('A' for Active; 'I' for Inactive)
REMARK    1  A    between atoms: C_1  and  C_2
REMARK    2  A    between atoms: C_2  and  C_3
REMARK    3  A    between atoms: C_3  and  N_4
REMARK    4  A    between atoms: C_5  and  O_7
REMARK    5  A    between atoms: O_7  and  C_8
REMARK    6  A    between atoms: C_12  and  C_13
REMARK    7  A    between atoms: C_13  and  N_14
REMARK    8  A    between atoms: N_14  and  C_15
REMARK    9  A    between atoms: N_14  and  C_16
REMARK   10  A    between atoms: C_16  and  C_17
REMARK   11  A    between atoms: C_17  and  C_18
REMARK   12  A    between atoms: C_18  and  O_19
REMARK   13  A    between atoms: O_19  and  C_20
REMARK                            x       y       z     vdW  Elec       q    Type
REMARK                         _______ _______ _______ _____ _____    ______ ____
ROOT
ATOM      1  N   UNL     1       1.655   6.485  20.252  0.00  0.00    +0.000 NA
ATOM      2  C   UNL     1       2.573   6.551  19.105  0.00  0.00    +0.000 C 
ENDROOT
BRANCH   1   3
ATOM      3  C   UNL     1       1.934   7.566  21.221  0.00  0.00    +0.000 C 
BRANCH   3   8
ATOM      4  C   UNL     1      -0.547  10.136  19.894  0.00  0.00    +0.000 A 
ATOM      5  C   UNL     1      -0.848  10.868  21.045  0.00  0.00    +0.000 A 
ATOM      6  C   UNL     1      -0.287  10.493  22.263  0.00  0.00    +0.000 A 
ATOM      7  C   UNL     1       0.598   9.414  22.326  0.00  0.00    +0.000 A 
ATOM      8  C   UNL     1       0.922   8.693  21.165  0.00  0.00    +0.000 A 
ATOM      9  C   UNL     1       0.320   9.047  19.948  0.00  0.00    +0.000 A 
BRANCH   4  10
ATOM     10  O   UNL     1      -0.984  10.652  18.663  0.00  0.00    +0.000 OA
BRANCH  10  12
ATOM     11  N   UNL     1      -2.346  12.426  18.145  0.00  0.00    +0.000 N 
ATOM     12  C   UNL     1      -1.087  12.027  18.522  0.00  0.00    +0.000 C 
ATOM     13  O   UNL     1      -0.193  12.845  18.692  0.00  0.00    +0.000 OA
ATOM     14  H   UNL     1      -2.402  13.427  18.009  0.00  0.00    +0.000 HD
BRANCH  11  15
ATOM     15  C   UNL     1      -3.553  11.746  18.571  0.00  0.00    +0.000 C 
BRANCH  15  17
ATOM     16  C   UNL     1      -5.907  11.981  17.621  0.00  0.00    +0.000 C 
ATOM     17  C   UNL     1      -4.491  11.464  17.393  0.00  0.00    +0.000 C 
ENDBRANCH  15  17
ENDBRANCH  11  15
ENDBRANCH  10  12
ENDBRANCH   4  10
ENDBRANCH   3   8
ENDBRANCH   1   3
BRANCH   1  18
ATOM     18  C   UNL     1       1.765   5.149  20.875  0.00  0.00    +0.000 C 
BRANCH  18  19
ATOM     19  C   UNL     1       1.281   3.993  19.994  0.00  0.00    +0.000 C 
BRANCH  19  20
ATOM     20  C   UNL     1       2.236   2.807  19.975  0.00  0.00    +0.000 C 
BRANCH  20  21
ATOM     21  O   UNL     1       2.737   2.700  18.641  0.00  0.00    +0.000 OA
BRANCH  21  22
ATOM     22  C   UNL     1       3.879   3.383  18.347  0.00  0.00    +0.000 A 
ATOM     23  C   UNL     1       4.083   3.621  16.979  0.00  0.00    +0.000 A 
ATOM     24  C   UNL     1       5.173   4.375  16.542  0.00  0.00    +0.000 A 
ATOM     25  C   UNL     1       6.072   4.874  17.483  0.00  0.00    +0.000 A 
ATOM     26  C   UNL     1       7.115   5.840  17.104  0.00  0.00    +0.000 A 
ATOM     27  O   UNL     1       7.329   6.167  15.938  0.00  0.00    +0.000 OA
ATOM     28  C   UNL     1       7.860   6.453  18.219  0.00  0.00    +0.000 A 
ATOM     29  C   UNL     1       7.738   5.910  19.434  0.00  0.00    +0.000 A 
ATOM     30  O   UNL     1       6.869   4.901  19.776  0.00  0.00    +0.000 OA
ATOM     31  C   UNL     1       5.937   4.540  18.830  0.00  0.00    +0.000 A 
ATOM     32  C   UNL     1       4.826   3.828  19.273  0.00  0.00    +0.000 A 
ENDBRANCH  21  22
ENDBRANCH  20  21
ENDBRANCH  19  20
ENDBRANCH  18  19
ENDBRANCH   1  18
TORSDOF 11
ENDMDL
MODEL 7
REMARK VINA RESULT:      -7.2      1.632      2.110
REMARK  Name = 
REMARK  13 active torsions:
REMARK  status: ('A' for Active; 'I' for Inactive)
REMARK    1  A    between atoms: C_1  and  C_2
REMARK    2  A    between atoms: C_2  and  C_3
REMARK    3  A    between atoms: C_3  and  N_4
REMARK    4  A    between atoms: C_5  and  O_7
REMARK    5  A    between atoms: O_7  and  C_8
REMARK    6  A    between atoms: C_12  and  C_13
REMARK    7  A    between atoms: C_13  and  N_14
REMARK    8  A    between atoms: N_14  and  C_15
REMARK    9  A    between atoms: N_14  and  C_16
REMARK   10  A    between atoms: C_16  and  C_17
REMARK   11  A    between atoms: C_17  and  C_18
REMARK   12  A    between atoms: C_18  and  O_19
REMARK   13  A    between atoms: O_19  and  C_20
REMARK                            x       y       z     vdW  Elec       q    Type
REMARK                         _______ _______ _______ _____ _____    ______ ____
ROOT
ATOM      1  N   UNL     1       1.149   4.557  19.876  0.00  0.00    +0.000 NA
ATOM      2  C   UNL     1       1.160   4.407  18.414  0.00  0.00    +0.000 C 
ENDROOT
BRANCH   1   3
ATOM      3  C   UNL     1       2.231   5.458  20.329  0.00  0.00    +0.000 C 
BRANCH   3   8
ATOM      4  C   UNL     1       1.631   9.058  19.236  0.00  0.00    +0.000 A 
ATOM      5  C   UNL     1       2.310   9.107  18.016  0.00  0.00    +0.000 A 
ATOM      6  C   UNL     1       3.008   7.986  17.575  0.00  0.00    +0.000 A 
ATOM      7  C   UNL     1       2.999   6.811  18.330  0.00  0.00    +0.000 A 
ATOM      8  C   UNL     1       2.296   6.752  19.544  0.00  0.00    +0.000 A 
ATOM      9  C   UNL     1       1.631   7.898  20.007  0.00  0.00    +0.000 A 
BRANCH   4  10
ATOM     10  O   UNL     1       0.793  10.140  19.557  0.00  0.00    +0.000 OA
BRANCH  10  12
ATOM     11  N   UNL     1      -1.363  10.925  19.622  0.00  0.00    +0.000 N 
ATOM     12  C   UNL     1      -0.411  10.265  18.884  0.00  0.00    +0.000 C 
ATOM     13  O   UNL     1      -0.663   9.849  17.761  0.00  0.00    +0.000 OA
ATOM     14  H   UNL     1      -2.249  10.978  19.138  0.00  0.00    +0.000 HD
BRANCH  11  15
ATOM     15  C   UNL     1      -1.046  11.995  20.547  0.00  0.00    +0.000 C 
BRANCH  15  17
ATOM     16  C   UNL     1      -1.291  12.684  22.989  0.00  0.00    +0.000 C 
ATOM     17  C   UNL     1      -1.134  11.530  22.004  0.00  0.00    +0.000 C 
ENDBRANCH  15  17
ENDBRANCH  11  15
ENDBRANCH  10  12
ENDBRANCH   4  10
ENDBRANCH   3   8
ENDBRANCH   1   3
BRANCH   1  18
ATOM     18  C   UNL     1       1.256   3.218  20.494  0.00  0.00    +0.000 C 
BRANCH  18  19
ATOM     19  C   UNL     1       2.408   3.068  21.493  0.00  0.00    +0.000 C 
BRANCH  19  20
ATOM     20  C   UNL     1       3.548   2.201  20.975  0.00  0.00    +0.000 C 
BRANCH  20  21
ATOM     21  O   UNL     1       3.456   2.203  19.549  0.00  0.00    +0.000 OA
BRANCH  21  22
ATOM     22  C   UNL     1       4.301   3.030  18.872  0.00  0.00    +0.000 A 
ATOM     23  C   UNL     1       4.097   3.066  17.484  0.00  0.00    +0.000 A 
ATOM     24  C   UNL     1       4.842   3.927  16.676  0.00  0.00    +0.000 A 
ATOM     25  C   UNL     1       5.810   4.739  17.264  0.00  0.00    +0.000 A 
ATOM     26  C   UNL     1       6.476   5.806  16.501  0.00  0.00    +0.000 A 
ATOM     27  O   UNL     1       6.311   5.964  15.293  0.00  0.00    +0.000 OA
ATOM     28  C   UNL     1       7.316   6.729  17.286  0.00  0.00    +0.000 A 
ATOM     29  C   UNL     1       7.629   6.388  18.539  0.00  0.00    +0.000 A 
ATOM     30  O   UNL     1       7.127   5.306  19.223  0.00  0.00    +0.000 OA
ATOM     31  C   UNL     1       6.096   4.620  18.624  0.00  0.00    +0.000 A 
ATOM     32  C   UNL     1       5.323   3.797  19.438  0.00  0.00    +0.000 A 
ENDBRANCH  21  22
ENDBRANCH  20  21
ENDBRANCH  19  20
ENDBRANCH  18  19
ENDBRANCH   1  18
TORSDOF 11
ENDMDL
MODEL 8
REMARK VINA RESULT:      -7.2      2.551      8.046
REMARK  Name = 
REMARK  13 active torsions:
REMARK  status: ('A' for Active; 'I' for Inactive)
REMARK    1  A    between atoms: C_1  and  C_2
REMARK    2  A    between atoms: C_2  and  C_3
REMARK    3  A    between atoms: C_3  and  N_4
REMARK    4  A    between atoms: C_5  and  O_7
REMARK    5  A    between atoms: O_7  and  C_8
REMARK    6  A    between atoms: C_12  and  C_13
REMARK    7  A    between atoms: C_13  and  N_14
REMARK    8  A    between atoms: N_14  and  C_15
REMARK    9  A    between atoms: N_14  and  C_16
REMARK   10  A    between atoms: C_16  and  C_17
REMARK   11  A    between atoms: C_17  and  C_18
REMARK   12  A    between atoms: C_18  and  O_19
REMARK   13  A    between atoms: O_19  and  C_20
REMARK                            x       y       z     vdW  Elec       q    Type
REMARK                         _______ _______ _______ _____ _____    ______ ____
ROOT
ATOM      1  N   UNL     1       1.985   3.263  19.059  0.00  0.00    +0.000 NA
ATOM      2  C   UNL     1       0.965   2.303  18.611  0.00  0.00    +0.000 C 
ENDROOT
BRANCH   1   3
ATOM      3  C   UNL     1       3.349   2.749  18.805  0.00  0.00    +0.000 C 
BRANCH   3   8
ATOM      4  C   UNL     1       5.352   5.215  16.703  0.00  0.00    +0.000 A 
ATOM      5  C   UNL     1       6.239   5.743  17.644  0.00  0.00    +0.000 A 
ATOM      6  C   UNL     1       6.150   5.339  18.972  0.00  0.00    +0.000 A 
ATOM      7  C   UNL     1       5.204   4.384  19.354  0.00  0.00    +0.000 A 
ATOM      8  C   UNL     1       4.328   3.833  18.404  0.00  0.00    +0.000 A 
ATOM      9  C   UNL     1       4.392   4.277  17.075  0.00  0.00    +0.000 A 
BRANCH   4  10
ATOM     10  O   UNL     1       5.590   5.508  15.349  0.00  0.00    +0.000 OA
BRANCH  10  12
ATOM     11  N   UNL     1       6.378   3.787  14.051  0.00  0.00    +0.000 N 
ATOM     12  C   UNL     1       6.692   4.937  14.734  0.00  0.00    +0.000 C 
ATOM     13  O   UNL     1       7.841   5.356  14.765  0.00  0.00    +0.000 OA
ATOM     14  H   UNL     1       7.195   3.357  13.637  0.00  0.00    +0.000 HD
BRANCH  11  15
ATOM     15  C   UNL     1       5.110   3.586  13.380  0.00  0.00    +0.000 C 
BRANCH  15  17
ATOM     16  C   UNL     1       6.749   2.726  11.627  0.00  0.00    +0.000 C 
ATOM     17  C   UNL     1       5.299   3.072  11.949  0.00  0.00    +0.000 C 
ENDBRANCH  15  17
ENDBRANCH  11  15
ENDBRANCH  10  12
ENDBRANCH   4  10
ENDBRANCH   3   8
ENDBRANCH   1   3
BRANCH   1  18
ATOM     18  C   UNL     1       1.768   3.555  20.492  0.00  0.00    +0.000 C 
BRANCH  18  19
ATOM     19  C   UNL     1       2.315   4.908  20.957  0.00  0.00    +0.000 C 
BRANCH  19  20
ATOM     20  C   UNL     1       1.308   6.043  20.827  0.00  0.00    +0.000 C 
BRANCH  20  21
ATOM     21  O   UNL     1       1.972   7.111  20.147  0.00  0.00    +0.000 OA
BRANCH  21  22
ATOM     22  C   UNL     1       1.449   8.361  20.290  0.00  0.00    +0.000 A 
ATOM     23  C   UNL     1       1.110   8.706  21.608  0.00  0.00    +0.000 A 
ATOM     24  C   UNL     1       0.634   9.983  21.909  0.00  0.00    +0.000 A 
ATOM     25  C   UNL     1       0.478  10.909  20.879  0.00  0.00    +0.000 A 
ATOM     26  C   UNL     1       0.181  12.322  21.162  0.00  0.00    +0.000 A 
ATOM     27  O   UNL     1      -0.063  12.738  22.292  0.00  0.00    +0.000 OA
ATOM     28  C   UNL     1       0.253  13.238  20.009  0.00  0.00    +0.000 A 
ATOM     29  C   UNL     1       0.309  12.707  18.784  0.00  0.00    +0.000 A 
ATOM     30  O   UNL     1       0.439  11.369  18.496  0.00  0.00    +0.000 OA
ATOM     31  C   UNL     1       0.702  10.532  19.555  0.00  0.00    +0.000 A 
ATOM     32  C   UNL     1       1.220   9.274  19.258  0.00  0.00    +0.000 A 
ENDBRANCH  21  22
ENDBRANCH  20  21
ENDBRANCH  19  20
ENDBRANCH  18  19
ENDBRANCH   1  18
TORSDOF 11
ENDMDL
MODEL 9
REMARK VINA RESULT:      -7.1      2.511      8.169
REMARK  Name = 
REMARK  13 active torsions:
REMARK  status: ('A' for Active; 'I' for Inactive)
REMARK    1  A    between atoms: C_1  and  C_2
REMARK    2  A    between atoms: C_2  and  C_3
REMARK    3  A    between atoms: C_3  and  N_4
REMARK    4  A    between atoms: C_5  and  O_7
REMARK    5  A    between atoms: O_7  and  C_8
REMARK    6  A    between atoms: C_12  and  C_13
REMARK    7  A    between atoms: C_13  and  N_14
REMARK    8  A    between atoms: N_14  and  C_15
REMARK    9  A    between atoms: N_14  and  C_16
REMARK   10  A    between atoms: C_16  and  C_17
REMARK   11  A    between atoms: C_17  and  C_18
REMARK   12  A    between atoms: C_18  and  O_19
REMARK   13  A    between atoms: O_19  and  C_20
REMARK                            x       y       z     vdW  Elec       q    Type
REMARK                         _______ _______ _______ _____ _____    ______ ____
ROOT
ATOM      1  N   UNL     1       2.440   4.579  19.288  0.00  0.00    +0.000 NA
ATOM      2  C   UNL     1       1.377   4.160  20.213  0.00  0.00    +0.000 C 
ENDROOT
BRANCH   1   3
ATOM      3  C   UNL     1       3.410   3.486  19.060  0.00  0.00    +0.000 C 
BRANCH   3   8
ATOM      4  C   UNL     1       6.685   4.622  17.478  0.00  0.00    +0.000 A 
ATOM      5  C   UNL     1       6.371   4.601  16.117  0.00  0.00    +0.000 A 
ATOM      6  C   UNL     1       5.113   4.166  15.710  0.00  0.00    +0.000 A 
ATOM      7  C   UNL     1       4.160   3.788  16.659  0.00  0.00    +0.000 A 
ATOM      8  C   UNL     1       4.465   3.832  18.029  0.00  0.00    +0.000 A 
ATOM      9  C   UNL     1       5.749   4.228  18.432  0.00  0.00    +0.000 A 
BRANCH   4  10
ATOM     10  O   UNL     1       7.891   5.235  17.858  0.00  0.00    +0.000 OA
BRANCH  10  12
ATOM     11  N   UNL     1       8.293   7.258  18.865  0.00  0.00    +0.000 N 
ATOM     12  C   UNL     1       7.923   5.947  19.046  0.00  0.00    +0.000 C 
ATOM     13  O   UNL     1       7.671   5.513  20.162  0.00  0.00    +0.000 OA
ATOM     14  H   UNL     1       8.351   7.760  19.741  0.00  0.00    +0.000 HD
BRANCH  11  15
ATOM     15  C   UNL     1       7.948   8.022  17.683  0.00  0.00    +0.000 C 
BRANCH  15  17
ATOM     16  C   UNL     1       9.154   9.824  19.025  0.00  0.00    +0.000 C 
ATOM     17  C   UNL     1       8.184   9.522  17.888  0.00  0.00    +0.000 C 
ENDBRANCH  15  17
ENDBRANCH  11  15
ENDBRANCH  10  12
ENDBRANCH   4  10
ENDBRANCH   3   8
ENDBRANCH   1   3
BRANCH   1  18
ATOM     18  C   UNL     1       3.095   5.788  19.831  0.00  0.00    +0.000 C 
BRANCH  18  19
ATOM     19  C   UNL     1       2.463   7.110  19.385  0.00  0.00    +0.000 C 
BRANCH  19  20
ATOM     20  C   UNL     1       1.517   7.707  20.418  0.00  0.00    +0.000 C 
BRANCH  20  21
ATOM     21  O   UNL     1       1.700   9.124  20.379  0.00  0.00    +0.000 OA
BRANCH  21  22
ATOM     22  C   UNL     1       0.624   9.881  20.023  0.00  0.00    +0.000 A 
ATOM     23  C   UNL     1       0.209   9.717  18.692  0.00  0.00    +0.000 A 
ATOM     24  C   UNL     1      -0.925  10.375  18.214  0.00  0.00    +0.000 A 
ATOM     25  C   UNL     1      -1.632  11.216  19.072  0.00  0.00    +0.000 A 
ATOM     26  C   UNL     1      -2.942  11.770  18.690  0.00  0.00    +0.000 A 
ATOM     27  O   UNL     1      -3.425  11.624  17.569  0.00  0.00    +0.000 OA
ATOM     28  C   UNL     1      -3.682  12.464  19.759  0.00  0.00    +0.000 A 
ATOM     29  C   UNL     1      -3.028  12.777  20.881  0.00  0.00    +0.000 A 
ATOM     30  O   UNL     1      -1.745  12.392  21.193  0.00  0.00    +0.000 OA
ATOM     31  C   UNL     1      -1.155  11.472  20.357  0.00  0.00    +0.000 A 
ATOM     32  C   UNL     1      -0.051  10.782  20.850  0.00  0.00    +0.000 A 
ENDBRANCH  21  22
ENDBRANCH  20  21
ENDBRANCH  19  20
ENDBRANCH  18  19
ENDBRANCH   1  18
TORSDOF 11
ENDMDL
