MODEL 1
REMARK VINA RESULT:      -7.6      0.000      0.000
REMARK  Name = 
REMARK  6 active torsions:
REMARK  status: ('A' for Active; 'I' for Inactive)
REMARK    1  A    between atoms: C_2  and  C_3
REMARK    2  A    between atoms: C_2  and  O_10
REMARK    3  A    between atoms: C_3  and  C_4
REMARK    4  A    between atoms: O_10  and  C_11
REMARK    5  A    between atoms: C_14  and  C_15
REMARK    6  A    between atoms: C_15  and  C_16
REMARK                            x       y       z     vdW  Elec       q    Type
REMARK                         _______ _______ _______ _____ _____    ______ ____
ROOT
ATOM      1  C   UNL     1       1.180   9.681  19.510  0.00  0.00    +0.000 A 
ATOM      2  C   UNL     1       1.667   9.294  18.264  0.00  0.00    +0.000 A 
ATOM      3  C   UNL     1       2.191   8.008  18.088  0.00  0.00    +0.000 A 
ATOM      4  C   UNL     1       2.265   7.109  19.162  0.00  0.00    +0.000 A 
ATOM      5  C   UNL     1       1.751   7.507  20.405  0.00  0.00    +0.000 A 
ATOM      6  C   UNL     1       1.213   8.788  20.581  0.00  0.00    +0.000 A 
ENDROOT
BRANCH   1   7
ATOM      7  O   UNL     1       0.728  10.991  19.797  0.00  0.00    +0.000 OA
BRANCH   7   9
ATOM      8  O   UNL     1      -0.112  12.636  18.356  0.00  0.00    +0.000 OA
ATOM      9  C   UNL     1      -0.260  11.630  19.041  0.00  0.00    +0.000 C 
BRANCH   9  10
ATOM     10  C   UNL     1      -1.578  10.898  19.181  0.00  0.00    +0.000 C 
BRANCH  10  11
ATOM     11  C   UNL     1      -2.362  10.778  17.895  0.00  0.00    +0.000 A 
ATOM     12  C   UNL     1      -1.930   9.931  16.863  0.00  0.00    +0.000 A 
ATOM     13  C   UNL     1      -2.678   9.800  15.690  0.00  0.00    +0.000 A 
ATOM     14  C   UNL     1      -3.869  10.505  15.536  0.00  0.00    +0.000 A 
ATOM     15  C   UNL     1      -4.317  11.338  16.559  0.00  0.00    +0.000 A 
ATOM     16  C   UNL     1      -3.570  11.472  17.733  0.00  0.00    +0.000 A 
ENDBRANCH  10  11
ENDBRANCH   9  10
ENDBRANCH   7   9
ENDBRANCH   1   7
BRANCH   4  17
ATOM     17  C   UNL     1       2.869   5.731  18.986  0.00  0.00    +0.000 C 
BRANCH  17  18
ATOM     18  C   UNL     1       3.675   5.560  17.695  0.00  0.00    +0.000 C 
ATOM     19  N   UNL     1       5.094   5.818  17.847  0.00  0.00    +0.000 N 
ATOM     20  C   UNL     1       5.854   4.720  17.529  0.00  0.00    +0.000 C 
ATOM     21  S   UNL     1       7.499   4.668  17.554  0.00  0.00    +0.000 S 
ATOM     22  N   UNL     1       5.032   3.701  17.194  0.00  0.00    +0.000 N 
ATOM     23  C   UNL     1       3.725   4.083  17.274  0.00  0.00    +0.000 C 
ATOM     24  O   UNL     1       2.764   3.367  17.045  0.00  0.00    +0.000 OA
ATOM     25  H   UNL     1       5.496   6.720  18.078  0.00  0.00    +0.000 HD
ATOM     26  H   UNL     1       5.332   2.775  16.929  0.00  0.00    +0.000 HD
ENDBRANCH  17  18
ENDBRANCH   4  17
TORSDOF 6
ENDMDL
MODEL 2
REMARK VINA RESULT:      -7.5      1.866      2.780
REMARK  Name = 
REMARK  6 active torsions:
REMARK  status: ('A' for Active; 'I' for Inactive)
REMARK    1  A    between atoms: C_2  and  C_3
REMARK    2  A    between atoms: C_2  and  O_10
REMARK    3  A    between atoms: C_3  and  C_4
REMARK    4  A    between atoms: O_10  and  C_11
REMARK    5  A    between atoms: C_14  and  C_15
REMARK    6  A    between atoms: C_15  and  C_16
REMARK                            x       y       z     vdW  Elec       q    Type
REMARK                         _______ _______ _______ _____ _____    ______ ____
ROOT
ATOM      1  C   UNL     1       1.889   7.247  20.119  0.00  0.00    +0.000 A 
ATOM      2  C   UNL     1       2.370   7.441  18.827  0.00  0.00    +0.000 A 
ATOM      3  C   UNL     1       2.569   6.341  17.983  0.00  0.00    +0.000 A 
ATOM      4  C   UNL     1       2.321   5.037  18.434  0.00  0.00    +0.000 A 
ATOM      5  C   UNL     1       1.816   4.860  19.731  0.00  0.00    +0.000 A 
ATOM      6  C   UNL     1       1.604   5.959  20.572  0.00  0.00    +0.000 A 
ENDROOT
BRANCH   1   7
ATOM      7  O   UNL     1       1.757   8.291  21.065  0.00  0.00    +0.000 OA
BRANCH   7   9
ATOM      8  O   UNL     1      -0.404   8.685  21.877  0.00  0.00    +0.000 OA
ATOM      9  C   UNL     1       0.575   9.022  21.221  0.00  0.00    +0.000 C 
BRANCH   9  10
ATOM     10  C   UNL     1       0.662  10.325  20.455  0.00  0.00    +0.000 C 
BRANCH  10  11
ATOM     11  C   UNL     1      -0.468  10.548  19.477  0.00  0.00    +0.000 A 
ATOM     12  C   UNL     1      -1.471  11.494  19.737  0.00  0.00    +0.000 A 
ATOM     13  C   UNL     1      -2.495  11.718  18.813  0.00  0.00    +0.000 A 
ATOM     14  C   UNL     1      -2.527  11.008  17.616  0.00  0.00    +0.000 A 
ATOM     15  C   UNL     1      -1.529  10.076  17.338  0.00  0.00    +0.000 A 
ATOM     16  C   UNL     1      -0.504   9.848  18.262  0.00  0.00    +0.000 A 
ENDBRANCH  10  11
ENDBRANCH   9  10
ENDBRANCH   7   9
ENDBRANCH   1   7
BRANCH   4  17
ATOM     17  C   UNL     1       2.573   3.840  17.539  0.00  0.00    +0.000 C 
BRANCH  17  18
ATOM     18  C   UNL     1       4.025   3.353  17.539  0.00  0.00    +0.000 C 
ATOM     19  N   UNL     1       4.997   4.398  17.280  0.00  0.00    +0.000 N 
ATOM     20  C   UNL     1       5.881   4.549  18.320  0.00  0.00    +0.000 C 
ATOM     21  S   UNL     1       7.135   5.615  18.348  0.00  0.00    +0.000 S 
ATOM     22  N   UNL     1       5.552   3.682  19.303  0.00  0.00    +0.000 N 
ATOM     23  C   UNL     1       4.461   2.940  18.954  0.00  0.00    +0.000 C 
ATOM     24  O   UNL     1       3.932   2.092  19.652  0.00  0.00    +0.000 OA
ATOM     25  H   UNL     1       5.080   4.906  16.406  0.00  0.00    +0.000 HD
ATOM     26  H   UNL     1       6.033   3.595  20.186  0.00  0.00    +0.000 HD
ENDBRANCH  17  18
ENDBRANCH   4  17
TORSDOF 6
ENDMDL
MODEL 3
REMARK VINA RESULT:      -7.5      4.092      8.130
REMARK  Name = 
REMARK  6 active torsions:
REMARK  status: ('A' for Active; 'I' for Inactive)
REMARK    1  A    between atoms: C_2  and  C_3
REMARK    2  A    between atoms: C_2  and  O_10
REMARK    3  A    between atoms: C_3  and  C_4
REMARK    4  A    between atoms: O_10  and  C_11
REMARK    5  A    between atoms: C_14  and  C_15
REMARK    6  A    between atoms: C_15  and  C_16
REMARK                            x       y       z     vdW  Elec       q    Type
REMARK                         _______ _______ _______ _____ _____    ______ ____
ROOT
ATOM      1  C   UNL     1       3.091   6.865  18.821  0.00  0.00    +0.000 A 
ATOM      2  C   UNL     1       2.876   7.813  17.825  0.00  0.00    +0.000 A 
ATOM      3  C   UNL     1       1.972   8.860  18.040  0.00  0.00    +0.000 A 
ATOM      4  C   UNL     1       1.249   8.949  19.239  0.00  0.00    +0.000 A 
ATOM      5  C   UNL     1       1.493   7.998  20.241  0.00  0.00    +0.000 A 
ATOM      6  C   UNL     1       2.407   6.958  20.034  0.00  0.00    +0.000 A 
ENDROOT
BRANCH   1   7
ATOM      7  O   UNL     1       3.909   5.724  18.647  0.00  0.00    +0.000 OA
BRANCH   7   9
ATOM      8  O   UNL     1       4.676   5.470  16.448  0.00  0.00    +0.000 OA
ATOM      9  C   UNL     1       4.040   5.070  17.417  0.00  0.00    +0.000 C 
BRANCH   9  10
ATOM     10  C   UNL     1       3.272   3.766  17.435  0.00  0.00    +0.000 C 
BRANCH  10  11
ATOM     11  C   UNL     1       2.637   3.437  18.767  0.00  0.00    +0.000 A 
ATOM     12  C   UNL     1       3.411   2.966  19.838  0.00  0.00    +0.000 A 
ATOM     13  C   UNL     1       2.822   2.695  21.077  0.00  0.00    +0.000 A 
ATOM     14  C   UNL     1       1.458   2.901  21.263  0.00  0.00    +0.000 A 
ATOM     15  C   UNL     1       0.681   3.384  20.213  0.00  0.00    +0.000 A 
ATOM     16  C   UNL     1       1.267   3.653  18.972  0.00  0.00    +0.000 A 
ENDBRANCH  10  11
ENDBRANCH   9  10
ENDBRANCH   7   9
ENDBRANCH   1   7
BRANCH   4  17
ATOM     17  C   UNL     1       0.239  10.057  19.461  0.00  0.00    +0.000 C 
BRANCH  17  18
ATOM     18  C   UNL     1      -0.082  10.872  18.205  0.00  0.00    +0.000 C 
ATOM     19  N   UNL     1      -1.179  10.337  17.420  0.00  0.00    +0.000 N 
ATOM     20  C   UNL     1      -2.212  11.233  17.302  0.00  0.00    +0.000 C 
ATOM     21  S   UNL     1      -3.598  10.973  16.452  0.00  0.00    +0.000 S 
ATOM     22  N   UNL     1      -1.903  12.352  17.993  0.00  0.00    +0.000 N 
ATOM     23  C   UNL     1      -0.676  12.239  18.578  0.00  0.00    +0.000 C 
ATOM     24  O   UNL     1      -0.145  13.088  19.276  0.00  0.00    +0.000 OA
ATOM     25  H   UNL     1      -1.163   9.445  16.939  0.00  0.00    +0.000 HD
ATOM     26  H   UNL     1      -2.496  13.164  18.081  0.00  0.00    +0.000 HD
ENDBRANCH  17  18
ENDBRANCH   4  17
TORSDOF 6
ENDMDL
MODEL 4
REMARK VINA RESULT:      -7.5      1.968      2.820
REMARK  Name = 
REMARK  6 active torsions:
REMARK  status: ('A' for Active; 'I' for Inactive)
REMARK    1  A    between atoms: C_2  and  C_3
REMARK    2  A    between atoms: C_2  and  O_10
REMARK    3  A    between atoms: C_3  and  C_4
REMARK    4  A    between atoms: O_10  and  C_11
REMARK    5  A    between atoms: C_14  and  C_15
REMARK    6  A    between atoms: C_15  and  C_16
REMARK                            x       y       z     vdW  Elec       q    Type
REMARK                         _______ _______ _______ _____ _____    ______ ____
ROOT
ATOM      1  C   UNL     1       1.851   7.216  20.411  0.00  0.00    +0.000 A 
ATOM      2  C   UNL     1       1.644   5.885  20.762  0.00  0.00    +0.000 A 
ATOM      3  C   UNL     1       1.862   4.873  19.821  0.00  0.00    +0.000 A 
ATOM      4  C   UNL     1       2.254   5.182  18.511  0.00  0.00    +0.000 A 
ATOM      5  C   UNL     1       2.478   6.526  18.178  0.00  0.00    +0.000 A 
ATOM      6  C   UNL     1       2.274   7.541  19.121  0.00  0.00    +0.000 A 
ENDROOT
BRANCH   1   7
ATOM      7  O   UNL     1       1.558   8.303  21.268  0.00  0.00    +0.000 OA
BRANCH   7   9
ATOM      8  O   UNL     1      -0.727   8.194  21.774  0.00  0.00    +0.000 OA
ATOM      9  C   UNL     1       0.266   8.819  21.418  0.00  0.00    +0.000 C 
BRANCH   9  10
ATOM     10  C   UNL     1       0.250  10.293  21.074  0.00  0.00    +0.000 C 
BRANCH  10  11
ATOM     11  C   UNL     1      -0.631  10.647  19.899  0.00  0.00    +0.000 A 
ATOM     12  C   UNL     1      -0.578   9.907  18.708  0.00  0.00    +0.000 A 
ATOM     13  C   UNL     1      -1.419  10.221  17.637  0.00  0.00    +0.000 A 
ATOM     14  C   UNL     1      -2.329  11.270  17.744  0.00  0.00    +0.000 A 
ATOM     15  C   UNL     1      -2.402  12.003  18.927  0.00  0.00    +0.000 A 
ATOM     16  C   UNL     1      -1.561  11.693  19.999  0.00  0.00    +0.000 A 
ENDBRANCH  10  11
ENDBRANCH   9  10
ENDBRANCH   7   9
ENDBRANCH   1   7
BRANCH   4  17
ATOM     17  C   UNL     1       2.451   4.092  17.476  0.00  0.00    +0.000 C 
BRANCH  17  18
ATOM     18  C   UNL     1       3.885   3.565  17.387  0.00  0.00    +0.000 C 
ATOM     19  N   UNL     1       4.895   4.606  17.366  0.00  0.00    +0.000 N 
ATOM     20  C   UNL     1       5.765   4.501  18.423  0.00  0.00    +0.000 C 
ATOM     21  S   UNL     1       7.053   5.492  18.692  0.00  0.00    +0.000 S 
ATOM     22  N   UNL     1       5.392   3.457  19.196  0.00  0.00    +0.000 N 
ATOM     23  C   UNL     1       4.284   2.845  18.685  0.00  0.00    +0.000 C 
ATOM     24  O   UNL     1       3.715   1.887  19.181  0.00  0.00    +0.000 OA
ATOM     25  H   UNL     1       5.009   5.286  16.623  0.00  0.00    +0.000 HD
ATOM     26  H   UNL     1       5.854   3.166  20.044  0.00  0.00    +0.000 HD
ENDBRANCH  17  18
ENDBRANCH   4  17
TORSDOF 6
ENDMDL
MODEL 5
REMARK VINA RESULT:      -7.5      4.967      6.742
REMARK  Name = 
REMARK  6 active torsions:
REMARK  status: ('A' for Active; 'I' for Inactive)
REMARK    1  A    between atoms: C_2  and  C_3
REMARK    2  A    between atoms: C_2  and  O_10
REMARK    3  A    between atoms: C_3  and  C_4
REMARK    4  A    between atoms: O_10  and  C_11
REMARK    5  A    between atoms: C_14  and  C_15
REMARK    6  A    between atoms: C_15  and  C_16
REMARK                            x       y       z     vdW  Elec       q    Type
REMARK                         _______ _______ _______ _____ _____    ______ ____
ROOT
ATOM      1  C   UNL     1       3.845   2.872  19.101  0.00  0.00    +0.000 A 
ATOM      2  C   UNL     1       3.471   2.641  17.780  0.00  0.00    +0.000 A 
ATOM      3  C   UNL     1       4.142   3.294  16.739  0.00  0.00    +0.000 A 
ATOM      4  C   UNL     1       5.170   4.209  17.010  0.00  0.00    +0.000 A 
ATOM      5  C   UNL     1       5.549   4.415  18.345  0.00  0.00    +0.000 A 
ATOM      6  C   UNL     1       4.888   3.753  19.387  0.00  0.00    +0.000 A 
ENDROOT
BRANCH   1   7
ATOM      7  O   UNL     1       3.154   2.333  20.212  0.00  0.00    +0.000 OA
BRANCH   7   9
ATOM      8  O   UNL     1       2.439   3.225  22.256  0.00  0.00    +0.000 OA
ATOM      9  C   UNL     1       2.336   3.108  21.040  0.00  0.00    +0.000 C 
BRANCH   9  10
ATOM     10  C   UNL     1       1.275   3.808  20.218  0.00  0.00    +0.000 C 
BRANCH  10  11
ATOM     11  C   UNL     1       1.636   5.216  19.806  0.00  0.00    +0.000 A 
ATOM     12  C   UNL     1       1.912   5.528  18.466  0.00  0.00    +0.000 A 
ATOM     13  C   UNL     1       2.213   6.840  18.088  0.00  0.00    +0.000 A 
ATOM     14  C   UNL     1       2.234   7.856  19.040  0.00  0.00    +0.000 A 
ATOM     15  C   UNL     1       1.946   7.563  20.371  0.00  0.00    +0.000 A 
ATOM     16  C   UNL     1       1.647   6.252  20.753  0.00  0.00    +0.000 A 
ENDBRANCH  10  11
ENDBRANCH   9  10
ENDBRANCH   7   9
ENDBRANCH   1   7
BRANCH   4  17
ATOM     17  C   UNL     1       5.872   4.949  15.890  0.00  0.00    +0.000 C 
BRANCH  17  18
ATOM     18  C   UNL     1       6.689   4.048  14.960  0.00  0.00    +0.000 C 
ATOM     19  N   UNL     1       5.883   3.195  14.107  0.00  0.00    +0.000 N 
ATOM     20  C   UNL     1       6.113   3.436  12.775  0.00  0.00    +0.000 C 
ATOM     21  S   UNL     1       5.399   2.627  11.530  0.00  0.00    +0.000 S 
ATOM     22  N   UNL     1       7.015   4.435  12.659  0.00  0.00    +0.000 N 
ATOM     23  C   UNL     1       7.409   4.880  13.887  0.00  0.00    +0.000 C 
ATOM     24  O   UNL     1       8.202   5.785  14.089  0.00  0.00    +0.000 OA
ATOM     25  H   UNL     1       5.281   2.450  14.438  0.00  0.00    +0.000 HD
ATOM     26  H   UNL     1       7.352   4.816  11.787  0.00  0.00    +0.000 HD
ENDBRANCH  17  18
ENDBRANCH   4  17
TORSDOF 6
ENDMDL
MODEL 6
REMARK VINA RESULT:      -7.4      3.929      8.179
REMARK  Name = 
REMARK  6 active torsions:
REMARK  status: ('A' for Active; 'I' for Inactive)
REMARK    1  A    between atoms: C_2  and  C_3
REMARK    2  A    between atoms: C_2  and  O_10
REMARK    3  A    between atoms: C_3  and  C_4
REMARK    4  A    between atoms: O_10  and  C_11
REMARK    5  A    between atoms: C_14  and  C_15
REMARK    6  A    between atoms: C_15  and  C_16
REMARK                            x       y       z     vdW  Elec       q    Type
REMARK                         _______ _______ _______ _____ _____    ______ ____
ROOT
ATOM      1  C   UNL     1       3.833   6.123  18.488  0.00  0.00    +0.000 A 
ATOM      2  C   UNL     1       3.644   7.170  17.590  0.00  0.00    +0.000 A 
ATOM      3  C   UNL     1       2.745   8.198  17.896  0.00  0.00    +0.000 A 
ATOM      4  C   UNL     1       2.002   8.172  19.085  0.00  0.00    +0.000 A 
ATOM      5  C   UNL     1       2.220   7.122  19.989  0.00  0.00    +0.000 A 
ATOM      6  C   UNL     1       3.128   6.098  19.692  0.00  0.00    +0.000 A 
ENDROOT
BRANCH   1   7
ATOM      7  O   UNL     1       4.644   4.996  18.211  0.00  0.00    +0.000 OA
BRANCH   7   9
ATOM      8  O   UNL     1       4.286   4.248  16.021  0.00  0.00    +0.000 OA
ATOM      9  C   UNL     1       4.317   4.054  17.230  0.00  0.00    +0.000 C 
BRANCH   9  10
ATOM     10  C   UNL     1       3.997   2.722  17.874  0.00  0.00    +0.000 C 
BRANCH  10  11
ATOM     11  C   UNL     1       3.017   2.805  19.021  0.00  0.00    +0.000 A 
ATOM     12  C   UNL     1       1.652   3.036  18.789  0.00  0.00    +0.000 A 
ATOM     13  C   UNL     1       0.747   3.079  19.853  0.00  0.00    +0.000 A 
ATOM     14  C   UNL     1       1.190   2.883  21.159  0.00  0.00    +0.000 A 
ATOM     15  C   UNL     1       2.540   2.637  21.401  0.00  0.00    +0.000 A 
ATOM     16  C   UNL     1       3.448   2.596  20.340  0.00  0.00    +0.000 A 
ENDBRANCH  10  11
ENDBRANCH   9  10
ENDBRANCH   7   9
ENDBRANCH   1   7
BRANCH   4  17
ATOM     17  C   UNL     1       0.998   9.262  19.402  0.00  0.00    +0.000 C 
BRANCH  17  18
ATOM     18  C   UNL     1       0.666  10.171  18.215  0.00  0.00    +0.000 C 
ATOM     19  N   UNL     1      -0.654   9.952  17.656  0.00  0.00    +0.000 N 
ATOM     20  C   UNL     1      -1.434  11.080  17.720  0.00  0.00    +0.000 C 
ATOM     21  S   UNL     1      -2.973  11.201  17.145  0.00  0.00    +0.000 S 
ATOM     22  N   UNL     1      -0.733  12.065  18.324  0.00  0.00    +0.000 N 
ATOM     23  C   UNL     1       0.513  11.630  18.673  0.00  0.00    +0.000 C 
ATOM     24  O   UNL     1       1.357  12.298  19.247  0.00  0.00    +0.000 OA
ATOM     25  H   UNL     1      -0.952   9.100  17.194  0.00  0.00    +0.000 HD
ATOM     26  H   UNL     1      -1.077  12.995  18.508  0.00  0.00    +0.000 HD
ENDBRANCH  17  18
ENDBRANCH   4  17
TORSDOF 6
ENDMDL
MODEL 7
REMARK VINA RESULT:      -7.4      5.925      8.691
REMARK  Name = 
REMARK  6 active torsions:
REMARK  status: ('A' for Active; 'I' for Inactive)
REMARK    1  A    between atoms: C_2  and  C_3
REMARK    2  A    between atoms: C_2  and  O_10
REMARK    3  A    between atoms: C_3  and  C_4
REMARK    4  A    between atoms: O_10  and  C_11
REMARK    5  A    between atoms: C_14  and  C_15
REMARK    6  A    between atoms: C_15  and  C_16
REMARK                            x       y       z     vdW  Elec       q    Type
REMARK                         _______ _______ _______ _____ _____    ______ ____
ROOT
ATOM      1  C   UNL     1       6.745   6.626  16.828  0.00  0.00    +0.000 A 
ATOM      2  C   UNL     1       7.122   5.286  16.815  0.00  0.00    +0.000 A 
ATOM      3  C   UNL     1       6.149   4.286  16.920  0.00  0.00    +0.000 A 
ATOM      4  C   UNL     1       4.794   4.614  17.072  0.00  0.00    +0.000 A 
ATOM      5  C   UNL     1       4.428   5.969  17.062  0.00  0.00    +0.000 A 
ATOM      6  C   UNL     1       5.398   6.971  16.944  0.00  0.00    +0.000 A 
ENDROOT
BRANCH   1   7
ATOM      7  O   UNL     1       7.671   7.696  16.829  0.00  0.00    +0.000 OA
BRANCH   7   9
ATOM      8  O   UNL     1       8.636   7.648  18.963  0.00  0.00    +0.000 OA
ATOM      9  C   UNL     1       8.171   8.259  18.008  0.00  0.00    +0.000 C 
BRANCH   9  10
ATOM     10  C   UNL     1       8.061   9.768  17.952  0.00  0.00    +0.000 C 
BRANCH  10  11
ATOM     11  C   UNL     1       9.222  10.500  18.583  0.00  0.00    +0.000 A 
ATOM     12  C   UNL     1      10.273  10.999  17.798  0.00  0.00    +0.000 A 
ATOM     13  C   UNL     1      11.328  11.704  18.386  0.00  0.00    +0.000 A 
ATOM     14  C   UNL     1      11.342  11.926  19.760  0.00  0.00    +0.000 A 
ATOM     15  C   UNL     1      10.297  11.449  20.549  0.00  0.00    +0.000 A 
ATOM     16  C   UNL     1       9.242  10.743  19.965  0.00  0.00    +0.000 A 
ENDBRANCH  10  11
ENDBRANCH   9  10
ENDBRANCH   7   9
ENDBRANCH   1   7
BRANCH   4  17
ATOM     17  C   UNL     1       3.741   3.535  17.227  0.00  0.00    +0.000 C 
BRANCH  17  18
ATOM     18  C   UNL     1       3.248   3.343  18.663  0.00  0.00    +0.000 C 
ATOM     19  N   UNL     1       3.262   4.556  19.458  0.00  0.00    +0.000 N 
ATOM     20  C   UNL     1       2.010   4.887  19.914  0.00  0.00    +0.000 C 
ATOM     21  S   UNL     1       1.663   6.180  20.874  0.00  0.00    +0.000 S 
ATOM     22  N   UNL     1       1.121   3.982  19.450  0.00  0.00    +0.000 N 
ATOM     23  C   UNL     1       1.742   3.037  18.687  0.00  0.00    +0.000 C 
ATOM     24  O   UNL     1       1.188   2.107  18.125  0.00  0.00    +0.000 OA
ATOM     25  H   UNL     1       4.099   5.063  19.724  0.00  0.00    +0.000 HD
ATOM     26  H   UNL     1       0.128   3.998  19.627  0.00  0.00    +0.000 HD
ENDBRANCH  17  18
ENDBRANCH   4  17
TORSDOF 6
ENDMDL
MODEL 8
REMARK VINA RESULT:      -7.3      4.985      6.884
REMARK  Name = 
REMARK  6 active torsions:
REMARK  status: ('A' for Active; 'I' for Inactive)
REMARK    1  A    between atoms: C_2  and  C_3
REMARK    2  A    between atoms: C_2  and  O_10
REMARK    3  A    between atoms: C_3  and  C_4
REMARK    4  A    between atoms: O_10  and  C_11
REMARK    5  A    between atoms: C_14  and  C_15
REMARK    6  A    between atoms: C_15  and  C_16
REMARK                            x       y       z     vdW  Elec       q    Type
REMARK                         _______ _______ _______ _____ _____    ______ ____
ROOT
ATOM      1  C   UNL     1       4.265   3.317  19.043  0.00  0.00    +0.000 A 
ATOM      2  C   UNL     1       5.207   4.323  19.238  0.00  0.00    +0.000 A 
ATOM      3  C   UNL     1       5.803   4.946  18.135  0.00  0.00    +0.000 A 
ATOM      4  C   UNL     1       5.490   4.545  16.828  0.00  0.00    +0.000 A 
ATOM      5  C   UNL     1       4.523   3.544  16.647  0.00  0.00    +0.000 A 
ATOM      6  C   UNL     1       3.915   2.929  17.749  0.00  0.00    +0.000 A 
ENDROOT
BRANCH   1   7
ATOM      7  O   UNL     1       3.693   2.570  20.100  0.00  0.00    +0.000 OA
BRANCH   7   9
ATOM      8  O   UNL     1       2.579   3.029  22.109  0.00  0.00    +0.000 OA
ATOM      9  C   UNL     1       2.643   3.058  20.885  0.00  0.00    +0.000 C 
BRANCH   9  10
ATOM     10  C   UNL     1       1.562   3.646  20.003  0.00  0.00    +0.000 C 
BRANCH  10  11
ATOM     11  C   UNL     1       1.744   5.112  19.689  0.00  0.00    +0.000 A 
ATOM     12  C   UNL     1       1.768   6.072  20.713  0.00  0.00    +0.000 A 
ATOM     13  C   UNL     1       1.971   7.423  20.418  0.00  0.00    +0.000 A 
ATOM     14  C   UNL     1       2.161   7.831  19.100  0.00  0.00    +0.000 A 
ATOM     15  C   UNL     1       2.155   6.887  18.076  0.00  0.00    +0.000 A 
ATOM     16  C   UNL     1       1.951   5.535  18.368  0.00  0.00    +0.000 A 
ENDBRANCH  10  11
ENDBRANCH   9  10
ENDBRANCH   7   9
ENDBRANCH   1   7
BRANCH   4  17
ATOM     17  C   UNL     1       6.163   5.187  15.632  0.00  0.00    +0.000 C 
BRANCH  17  18
ATOM     18  C   UNL     1       6.909   4.201  14.729  0.00  0.00    +0.000 C 
ATOM     19  N   UNL     1       6.039   3.306  13.989  0.00  0.00    +0.000 N 
ATOM     20  C   UNL     1       6.196   3.441  12.632  0.00  0.00    +0.000 C 
ATOM     21  S   UNL     1       5.397   2.559  11.494  0.00  0.00    +0.000 S 
ATOM     22  N   UNL     1       7.109   4.408  12.390  0.00  0.00    +0.000 N 
ATOM     23  C   UNL     1       7.580   4.935  13.557  0.00  0.00    +0.000 C 
ATOM     24  O   UNL     1       8.400   5.834  13.646  0.00  0.00    +0.000 OA
ATOM     25  H   UNL     1       5.444   2.601  14.409  0.00  0.00    +0.000 HD
ATOM     26  H   UNL     1       7.402   4.716  11.475  0.00  0.00    +0.000 HD
ENDBRANCH  17  18
ENDBRANCH   4  17
TORSDOF 6
ENDMDL
MODEL 9
REMARK VINA RESULT:      -7.3      4.060      8.225
REMARK  Name = 
REMARK  6 active torsions:
REMARK  status: ('A' for Active; 'I' for Inactive)
REMARK    1  A    between atoms: C_2  and  C_3
REMARK    2  A    between atoms: C_2  and  O_10
REMARK    3  A    between atoms: C_3  and  C_4
REMARK    4  A    between atoms: O_10  and  C_11
REMARK    5  A    between atoms: C_14  and  C_15
REMARK    6  A    between atoms: C_15  and  C_16
REMARK                            x       y       z     vdW  Elec       q    Type
REMARK                         _______ _______ _______ _____ _____    ______ ____
ROOT
ATOM      1  C   UNL     1       3.674   6.088  18.470  0.00  0.00    +0.000 A 
ATOM      2  C   UNL     1       2.811   6.335  19.534  0.00  0.00    +0.000 A 
ATOM      3  C   UNL     1       2.048   7.508  19.555  0.00  0.00    +0.000 A 
ATOM      4  C   UNL     1       2.165   8.460  18.532  0.00  0.00    +0.000 A 
ATOM      5  C   UNL     1       3.023   8.187  17.457  0.00  0.00    +0.000 A 
ATOM      6  C   UNL     1       3.778   7.007  17.426  0.00  0.00    +0.000 A 
ENDROOT
BRANCH   1   7
ATOM      7  O   UNL     1       4.553   4.979  18.422  0.00  0.00    +0.000 OA
BRANCH   7   9
ATOM      8  O   UNL     1       4.677   4.145  16.236  0.00  0.00    +0.000 OA
ATOM      9  C   UNL     1       4.468   3.992  17.434  0.00  0.00    +0.000 C 
BRANCH   9  10
ATOM     10  C   UNL     1       4.072   2.669  18.053  0.00  0.00    +0.000 C 
BRANCH  10  11
ATOM     11  C   UNL     1       3.039   2.780  19.151  0.00  0.00    +0.000 A 
ATOM     12  C   UNL     1       1.678   2.939  18.848  0.00  0.00    +0.000 A 
ATOM     13  C   UNL     1       0.726   3.008  19.869  0.00  0.00    +0.000 A 
ATOM     14  C   UNL     1       1.118   2.911  21.201  0.00  0.00    +0.000 A 
ATOM     15  C   UNL     1       2.465   2.737  21.515  0.00  0.00    +0.000 A 
ATOM     16  C   UNL     1       3.420   2.670  20.497  0.00  0.00    +0.000 A 
ENDBRANCH  10  11
ENDBRANCH   9  10
ENDBRANCH   7   9
ENDBRANCH   1   7
BRANCH   4  17
ATOM     17  C   UNL     1       1.371   9.751  18.572  0.00  0.00    +0.000 C 
BRANCH  17  18
ATOM     18  C   UNL     1       0.315   9.803  19.679  0.00  0.00    +0.000 C 
ATOM     19  N   UNL     1       0.609  10.760  20.729  0.00  0.00    +0.000 N 
ATOM     20  C   UNL     1      -0.370  11.715  20.842  0.00  0.00    +0.000 C 
ATOM     21  S   UNL     1      -0.380  12.933  21.952  0.00  0.00    +0.000 S 
ATOM     22  N   UNL     1      -1.315  11.489  19.903  0.00  0.00    +0.000 N 
ATOM     23  C   UNL     1      -1.001  10.395  19.151  0.00  0.00    +0.000 C 
ATOM     24  O   UNL     1      -1.662   9.965  18.220  0.00  0.00    +0.000 OA
ATOM     25  H   UNL     1       1.395  10.695  21.366  0.00  0.00    +0.000 HD
ATOM     26  H   UNL     1      -2.139  12.053  19.760  0.00  0.00    +0.000 HD
ENDBRANCH  17  18
ENDBRANCH   4  17
TORSDOF 6
ENDMDL
