MODEL 1
REMARK VINA RESULT:      -5.6      0.000      0.000
REMARK  Name = 
REMARK  4 active torsions:
REMARK  status: ('A' for Active; 'I' for Inactive)
REMARK    1  A    between atoms: C_1  and  C_2
REMARK    2  A    between atoms: C_4  and  C_5
REMARK    3  A    between atoms: C_11  and  C_12
REMARK    4  A    between atoms: C_14  and  C_15
REMARK                            x       y       z     vdW  Elec       q    Type
REMARK                         _______ _______ _______ _____ _____    ______ ____
ROOT
ATOM      1  C   UNL     1       9.311  12.749  22.544  0.00  0.00    +0.000 C 
ATOM      2  C   UNL     1       9.658  13.275  21.182  0.00  0.00    +0.000 C 
ATOM      3  C   UNL     1       8.745  13.314  20.212  0.00  0.00    +0.000 C 
ATOM      4  C   UNL     1       9.222  13.519  18.783  0.00  0.00    +0.000 C 
ATOM      5  C   UNL     1       9.758  12.123  18.206  0.00  0.00    +0.000 C 
ATOM      6  N   UNL     1      10.809  12.471  17.233  0.00  0.00    +0.000 NA
ATOM      7  C   UNL     1      11.205  13.686  17.431  0.00  0.00    +0.000 C 
ATOM      8  N   UNL     1      12.252  14.158  16.696  0.00  0.00    +0.000 N 
ATOM      9  C   UNL     1      10.468  14.516  18.433  0.00  0.00    +0.000 C 
ATOM     10  C   UNL     1      11.145  14.763  19.873  0.00  0.00    +0.000 C 
ATOM     11  N   UNL     1      10.953  13.636  20.841  0.00  0.00    +0.000 N 
ATOM     12  O   UNL     1      10.311  11.278  19.250  0.00  0.00    +0.000 OA
ATOM     13  C   UNL     1       9.315  10.299  19.545  0.00  0.00    +0.000 C 
ATOM     14  C   UNL     1       8.602  10.118  18.243  0.00  0.00    +0.000 C 
ATOM     15  O   UNL     1       8.656  11.396  17.622  0.00  0.00    +0.000 OA
ATOM     16  H   UNL     1      12.513  13.541  15.932  0.00  0.00    +0.000 HD
ATOM     17  H   UNL     1      12.268  15.144  16.417  0.00  0.00    +0.000 HD
ATOM     18  H   UNL     1      11.502  12.800  20.613  0.00  0.00    +0.000 HD
ENDROOT
BRANCH  10  19
ATOM     19  C   UNL     1      10.637  16.004  20.690  0.00  0.00    +0.000 A 
ATOM     20  C   UNL     1       9.266  16.277  20.930  0.00  0.00    +0.000 A 
ATOM     21  C   UNL     1       8.844  17.360  21.698  0.00  0.00    +0.000 A 
ATOM     22  C   UNL     1       9.789  18.181  22.299  0.00  0.00    +0.000 A 
ATOM     23  C   UNL     1      11.142  17.901  22.141  0.00  0.00    +0.000 A 
ATOM     24  C   UNL     1      11.565  16.822  21.351  0.00  0.00    +0.000 A 
ENDBRANCH  10  19
BRANCH   4  25
ATOM     25  C   UNL     1       7.937  13.864  18.047  0.00  0.00    +0.000 C 
ATOM     26  N   UNL     1       6.872  14.150  17.437  0.00  0.00    +0.000 NA
ENDBRANCH   4  25
BRANCH   9  27
ATOM     27  C   UNL     1      10.069  15.902  17.950  0.00  0.00    +0.000 C 
ATOM     28  N   UNL     1       9.739  17.050  17.549  0.00  0.00    +0.000 NA
ENDBRANCH   9  27
TORSDOF 3
ENDMDL
MODEL 2
REMARK VINA RESULT:      -5.5      7.986     10.342
REMARK  Name = 
REMARK  4 active torsions:
REMARK  status: ('A' for Active; 'I' for Inactive)
REMARK    1  A    between atoms: C_1  and  C_2
REMARK    2  A    between atoms: C_4  and  C_5
REMARK    3  A    between atoms: C_11  and  C_12
REMARK    4  A    between atoms: C_14  and  C_15
REMARK                            x       y       z     vdW  Elec       q    Type
REMARK                         _______ _______ _______ _____ _____    ______ ____
ROOT
ATOM      1  C   UNL     1      -0.748  17.018  19.383  0.00  0.00    +0.000 C 
ATOM      2  C   UNL     1      -0.054  15.688  19.418  0.00  0.00    +0.000 C 
ATOM      3  C   UNL     1       1.012  15.493  20.193  0.00  0.00    +0.000 C 
ATOM      4  C   UNL     1       1.875  14.268  19.937  0.00  0.00    +0.000 C 
ATOM      5  C   UNL     1       2.845  14.563  18.697  0.00  0.00    +0.000 C 
ATOM      6  N   UNL     1       3.075  13.258  18.051  0.00  0.00    +0.000 NA
ATOM      7  C   UNL     1       2.170  12.415  18.431  0.00  0.00    +0.000 C 
ATOM      8  N   UNL     1       2.151  11.178  17.859  0.00  0.00    +0.000 N 
ATOM      9  C   UNL     1       1.217  12.836  19.504  0.00  0.00    +0.000 C 
ATOM     10  C   UNL     1      -0.283  13.243  19.081  0.00  0.00    +0.000 C 
ATOM     11  N   UNL     1      -0.417  14.647  18.575  0.00  0.00    +0.000 N 
ATOM     12  O   UNL     1       2.251  15.486  17.747  0.00  0.00    +0.000 OA
ATOM     13  C   UNL     1       2.855  16.756  17.988  0.00  0.00    +0.000 C 
ATOM     14  C   UNL     1       4.225  16.408  18.476  0.00  0.00    +0.000 C 
ATOM     15  O   UNL     1       4.056  15.184  19.178  0.00  0.00    +0.000 OA
ATOM     16  H   UNL     1       2.975  10.986  17.296  0.00  0.00    +0.000 HD
ATOM     17  H   UNL     1       1.872  10.367  18.420  0.00  0.00    +0.000 HD
ATOM     18  H   UNL     1      -0.007  14.790  17.645  0.00  0.00    +0.000 HD
ENDROOT
BRANCH  10  19
ATOM     19  C   UNL     1      -1.376  13.181  20.207  0.00  0.00    +0.000 A 
ATOM     20  C   UNL     1      -1.220  13.777  21.484  0.00  0.00    +0.000 A 
ATOM     21  C   UNL     1      -2.225  13.747  22.450  0.00  0.00    +0.000 A 
ATOM     22  C   UNL     1      -3.447  13.162  22.146  0.00  0.00    +0.000 A 
ATOM     23  C   UNL     1      -3.657  12.631  20.878  0.00  0.00    +0.000 A 
ATOM     24  C   UNL     1      -2.638  12.643  19.915  0.00  0.00    +0.000 A 
ENDBRANCH  10  19
BRANCH   4  25
ATOM     25  C   UNL     1       2.731  14.193  21.191  0.00  0.00    +0.000 C 
ATOM     26  N   UNL     1       3.440  14.131  22.231  0.00  0.00    +0.000 NA
ENDBRANCH   4  25
BRANCH   9  27
ATOM     27  C   UNL     1       1.043  11.837  20.636  0.00  0.00    +0.000 C 
ATOM     28  N   UNL     1       0.899  11.008  21.575  0.00  0.00    +0.000 NA
ENDBRANCH   9  27
TORSDOF 3
ENDMDL
MODEL 3
REMARK VINA RESULT:      -5.5      9.987     12.461
REMARK  Name = 
REMARK  4 active torsions:
REMARK  status: ('A' for Active; 'I' for Inactive)
REMARK    1  A    between atoms: C_1  and  C_2
REMARK    2  A    between atoms: C_4  and  C_5
REMARK    3  A    between atoms: C_11  and  C_12
REMARK    4  A    between atoms: C_14  and  C_15
REMARK                            x       y       z     vdW  Elec       q    Type
REMARK                         _______ _______ _______ _____ _____    ______ ____
ROOT
ATOM      1  C   UNL     1      -4.406  13.599  20.348  0.00  0.00    +0.000 C 
ATOM      2  C   UNL     1      -2.955  13.220  20.379  0.00  0.00    +0.000 C 
ATOM      3  C   UNL     1      -2.463  12.480  21.373  0.00  0.00    +0.000 C 
ATOM      4  C   UNL     1      -0.954  12.419  21.546  0.00  0.00    +0.000 C 
ATOM      5  C   UNL     1      -0.462  13.742  22.305  0.00  0.00    +0.000 C 
ATOM      6  N   UNL     1       0.905  13.997  21.816  0.00  0.00    +0.000 NA
ATOM      7  C   UNL     1       1.108  13.343  20.719  0.00  0.00    +0.000 C 
ATOM      8  N   UNL     1       2.282  13.533  20.054  0.00  0.00    +0.000 N 
ATOM      9  C   UNL     1       0.053  12.387  20.260  0.00  0.00    +0.000 C 
ATOM     10  C   UNL     1      -0.905  12.828  19.043  0.00  0.00    +0.000 C 
ATOM     11  N   UNL     1      -2.047  13.708  19.450  0.00  0.00    +0.000 N 
ATOM     12  O   UNL     1      -1.310  14.884  22.015  0.00  0.00    +0.000 OA
ATOM     13  C   UNL     1      -2.161  15.051  23.150  0.00  0.00    +0.000 C 
ATOM     14  C   UNL     1      -1.330  14.558  24.290  0.00  0.00    +0.000 C 
ATOM     15  O   UNL     1      -0.529  13.525  23.730  0.00  0.00    +0.000 OA
ATOM     16  H   UNL     1       2.964  14.061  20.593  0.00  0.00    +0.000 HD
ATOM     17  H   UNL     1       2.712  12.749  19.554  0.00  0.00    +0.000 HD
ATOM     18  H   UNL     1      -1.762  14.660  19.705  0.00  0.00    +0.000 HD
ENDROOT
BRANCH  10  19
ATOM     19  C   UNL     1      -1.627  11.675  18.258  0.00  0.00    +0.000 A 
ATOM     20  C   UNL     1      -2.220  10.551  18.887  0.00  0.00    +0.000 A 
ATOM     21  C   UNL     1      -2.896   9.565  18.170  0.00  0.00    +0.000 A 
ATOM     22  C   UNL     1      -3.046   9.701  16.797  0.00  0.00    +0.000 A 
ATOM     23  C   UNL     1      -2.537  10.826  16.159  0.00  0.00    +0.000 A 
ATOM     24  C   UNL     1      -1.839  11.807  16.878  0.00  0.00    +0.000 A 
ENDBRANCH  10  19
BRANCH   4  25
ATOM     25  C   UNL     1      -0.773  11.245  22.494  0.00  0.00    +0.000 C 
ATOM     26  N   UNL     1      -0.624  10.271  23.280  0.00  0.00    +0.000 NA
ENDBRANCH   4  25
BRANCH   9  27
ATOM     27  C   UNL     1       0.562  11.007  19.872  0.00  0.00    +0.000 C 
ATOM     28  N   UNL     1       0.983   9.864  19.550  0.00  0.00    +0.000 NA
ENDBRANCH   9  27
TORSDOF 3
ENDMDL
MODEL 4
REMARK VINA RESULT:      -5.4      2.106      3.989
REMARK  Name = 
REMARK  4 active torsions:
REMARK  status: ('A' for Active; 'I' for Inactive)
REMARK    1  A    between atoms: C_1  and  C_2
REMARK    2  A    between atoms: C_4  and  C_5
REMARK    3  A    between atoms: C_11  and  C_12
REMARK    4  A    between atoms: C_14  and  C_15
REMARK                            x       y       z     vdW  Elec       q    Type
REMARK                         _______ _______ _______ _____ _____    ______ ____
ROOT
ATOM      1  C   UNL     1       9.348  10.404  19.804  0.00  0.00    +0.000 C 
ATOM      2  C   UNL     1       9.512  11.866  20.101  0.00  0.00    +0.000 C 
ATOM      3  C   UNL     1       9.005  12.789  19.284  0.00  0.00    +0.000 C 
ATOM      4  C   UNL     1       9.488  14.223  19.432  0.00  0.00    +0.000 C 
ATOM      5  C   UNL     1      10.907  14.374  18.704  0.00  0.00    +0.000 C 
ATOM      6  N   UNL     1      11.627  15.424  19.447  0.00  0.00    +0.000 NA
ATOM      7  C   UNL     1      11.076  15.598  20.605  0.00  0.00    +0.000 C 
ATOM      8  N   UNL     1      11.666  16.456  21.484  0.00  0.00    +0.000 N 
ATOM      9  C   UNL     1       9.803  14.871  20.899  0.00  0.00    +0.000 C 
ATOM     10  C   UNL     1       9.860  13.579  21.857  0.00  0.00    +0.000 C 
ATOM     11  N   UNL     1      10.281  12.319  21.163  0.00  0.00    +0.000 N 
ATOM     12  O   UNL     1      11.669  13.139  18.733  0.00  0.00    +0.000 OA
ATOM     13  C   UNL     1      11.534  12.553  17.438  0.00  0.00    +0.000 C 
ATOM     14  C   UNL     1      11.381  13.732  16.531  0.00  0.00    +0.000 C 
ATOM     15  O   UNL     1      10.696  14.701  17.314  0.00  0.00    +0.000 OA
ATOM     16  H   UNL     1      12.407  17.011  21.064  0.00  0.00    +0.000 HD
ATOM     17  H   UNL     1      11.081  17.013  22.116  0.00  0.00    +0.000 HD
ATOM     18  H   UNL     1      11.275  12.302  20.909  0.00  0.00    +0.000 HD
ENDROOT
BRANCH  10  19
ATOM     19  C   UNL     1       8.518  13.153  22.552  0.00  0.00    +0.000 A 
ATOM     20  C   UNL     1       7.239  13.575  22.109  0.00  0.00    +0.000 A 
ATOM     21  C   UNL     1       6.060  13.145  22.715  0.00  0.00    +0.000 A 
ATOM     22  C   UNL     1       6.122  12.230  23.757  0.00  0.00    +0.000 A 
ATOM     23  C   UNL     1       7.357  11.742  24.170  0.00  0.00    +0.000 A 
ATOM     24  C   UNL     1       8.543  12.192  23.573  0.00  0.00    +0.000 A 
ENDBRANCH  10  19
BRANCH   4  25
ATOM     25  C   UNL     1       8.465  15.006  18.625  0.00  0.00    +0.000 C 
ATOM     26  N   UNL     1       7.617  15.656  17.956  0.00  0.00    +0.000 NA
ENDBRANCH   4  25
BRANCH   9  27
ATOM     27  C   UNL     1       8.691  15.733  21.477  0.00  0.00    +0.000 C 
ATOM     28  N   UNL     1       7.769  16.446  21.956  0.00  0.00    +0.000 NA
ENDBRANCH   9  27
TORSDOF 3
ENDMDL
MODEL 5
REMARK VINA RESULT:      -5.3     12.231     14.302
REMARK  Name = 
REMARK  4 active torsions:
REMARK  status: ('A' for Active; 'I' for Inactive)
REMARK    1  A    between atoms: C_1  and  C_2
REMARK    2  A    between atoms: C_4  and  C_5
REMARK    3  A    between atoms: C_11  and  C_12
REMARK    4  A    between atoms: C_14  and  C_15
REMARK                            x       y       z     vdW  Elec       q    Type
REMARK                         _______ _______ _______ _____ _____    ______ ____
ROOT
ATOM      1  C   UNL     1      -3.571  16.561  20.199  0.00  0.00    +0.000 C 
ATOM      2  C   UNL     1      -3.247  15.418  21.117  0.00  0.00    +0.000 C 
ATOM      3  C   UNL     1      -2.936  15.635  22.394  0.00  0.00    +0.000 C 
ATOM      4  C   UNL     1      -2.286  14.507  23.179  0.00  0.00    +0.000 C 
ATOM      5  C   UNL     1      -0.725  14.454  22.821  0.00  0.00    +0.000 C 
ATOM      6  N   UNL     1      -0.331  13.041  22.963  0.00  0.00    +0.000 NA
ATOM      7  C   UNL     1      -1.383  12.289  22.950  0.00  0.00    +0.000 C 
ATOM      8  N   UNL     1      -1.217  10.936  22.965  0.00  0.00    +0.000 N 
ATOM      9  C   UNL     1      -2.725  12.949  22.956  0.00  0.00    +0.000 C 
ATOM     10  C   UNL     1      -3.559  13.004  21.579  0.00  0.00    +0.000 C 
ATOM     11  N   UNL     1      -3.148  14.113  20.659  0.00  0.00    +0.000 N 
ATOM     12  O   UNL     1      -0.461  14.906  21.466  0.00  0.00    +0.000 OA
ATOM     13  C   UNL     1       0.035  16.240  21.577  0.00  0.00    +0.000 C 
ATOM     14  C   UNL     1       0.736  16.248  22.898  0.00  0.00    +0.000 C 
ATOM     15  O   UNL     1      -0.005  15.340  23.703  0.00  0.00    +0.000 OA
ATOM     16  H   UNL     1      -0.259  10.654  23.155  0.00  0.00    +0.000 HD
ATOM     17  H   UNL     1      -1.896  10.349  23.460  0.00  0.00    +0.000 HD
ATOM     18  H   UNL     1      -2.234  13.963  20.218  0.00  0.00    +0.000 HD
ENDROOT
BRANCH  10  19
ATOM     19  C   UNL     1      -5.109  13.218  21.700  0.00  0.00    +0.000 A 
ATOM     20  C   UNL     1      -5.698  14.310  22.388  0.00  0.00    +0.000 A 
ATOM     21  C   UNL     1      -7.078  14.502  22.441  0.00  0.00    +0.000 A 
ATOM     22  C   UNL     1      -7.916  13.632  21.757  0.00  0.00    +0.000 A 
ATOM     23  C   UNL     1      -7.366  12.592  21.015  0.00  0.00    +0.000 A 
ATOM     24  C   UNL     1      -5.980  12.387  20.980  0.00  0.00    +0.000 A 
ENDBRANCH  10  19
BRANCH   4  25
ATOM     25  C   UNL     1      -2.418  14.979  24.617  0.00  0.00    +0.000 C 
ATOM     26  N   UNL     1      -2.527  15.372  25.810  0.00  0.00    +0.000 NA
ENDBRANCH   4  25
BRANCH   9  27
ATOM     27  C   UNL     1      -3.706  12.401  23.981  0.00  0.00    +0.000 C 
ATOM     28  N   UNL     1      -4.519  11.947  24.830  0.00  0.00    +0.000 NA
ENDBRANCH   9  27
TORSDOF 3
ENDMDL
MODEL 6
REMARK VINA RESULT:      -5.2      8.520     10.563
REMARK  Name = 
REMARK  4 active torsions:
REMARK  status: ('A' for Active; 'I' for Inactive)
REMARK    1  A    between atoms: C_1  and  C_2
REMARK    2  A    between atoms: C_4  and  C_5
REMARK    3  A    between atoms: C_11  and  C_12
REMARK    4  A    between atoms: C_14  and  C_15
REMARK                            x       y       z     vdW  Elec       q    Type
REMARK                         _______ _______ _______ _____ _____    ______ ____
ROOT
ATOM      1  C   UNL     1       3.206  13.281  18.484  0.00  0.00    +0.000 C 
ATOM      2  C   UNL     1       1.760  13.065  18.822  0.00  0.00    +0.000 C 
ATOM      3  C   UNL     1       1.406  12.445  19.947  0.00  0.00    +0.000 C 
ATOM      4  C   UNL     1      -0.025  11.946  20.075  0.00  0.00    +0.000 C 
ATOM      5  C   UNL     1      -0.167  10.562  19.281  0.00  0.00    +0.000 C 
ATOM      6  N   UNL     1      -1.565  10.513  18.813  0.00  0.00    +0.000 NA
ATOM      7  C   UNL     1      -2.082  11.697  18.853  0.00  0.00    +0.000 C 
ATOM      8  N   UNL     1      -3.339  11.876  18.357  0.00  0.00    +0.000 N 
ATOM      9  C   UNL     1      -1.283  12.798  19.474  0.00  0.00    +0.000 C 
ATOM     10  C   UNL     1      -0.565  13.866  18.506  0.00  0.00    +0.000 C 
ATOM     11  N   UNL     1       0.741  13.397  17.939  0.00  0.00    +0.000 N 
ATOM     12  O   UNL     1       0.736  10.488  18.147  0.00  0.00    +0.000 OA
ATOM     13  C   UNL     1       1.827   9.663  18.555  0.00  0.00    +0.000 C 
ATOM     14  C   UNL     1       1.207   8.717  19.533  0.00  0.00    +0.000 C 
ATOM     15  O   UNL     1       0.179   9.472  20.161  0.00  0.00    +0.000 OA
ATOM     16  H   UNL     1      -3.815  11.001  18.152  0.00  0.00    +0.000 HD
ATOM     17  H   UNL     1      -3.964  12.558  18.799  0.00  0.00    +0.000 HD
ATOM     18  H   UNL     1       0.642  12.665  17.228  0.00  0.00    +0.000 HD
ENDROOT
BRANCH  10  19
ATOM     19  C   UNL     1      -0.183  15.251  19.139  0.00  0.00    +0.000 A 
ATOM     20  C   UNL     1       0.575  15.385  20.330  0.00  0.00    +0.000 A 
ATOM     21  C   UNL     1       0.940  16.628  20.846  0.00  0.00    +0.000 A 
ATOM     22  C   UNL     1       0.600  17.782  20.153  0.00  0.00    +0.000 A 
ATOM     23  C   UNL     1      -0.084  17.681  18.946  0.00  0.00    +0.000 A 
ATOM     24  C   UNL     1      -0.468  16.432  18.439  0.00  0.00    +0.000 A 
ENDBRANCH  10  19
BRANCH   4  25
ATOM     25  C   UNL     1      -0.143  11.646  21.560  0.00  0.00    +0.000 C 
ATOM     26  N   UNL     1      -0.242  11.397  22.792  0.00  0.00    +0.000 NA
ENDBRANCH   4  25
BRANCH   9  27
ATOM     27  C   UNL     1      -2.035  13.643  20.491  0.00  0.00    +0.000 C 
ATOM     28  N   UNL     1      -2.659  14.342  21.333  0.00  0.00    +0.000 NA
ENDBRANCH   9  27
TORSDOF 3
ENDMDL
MODEL 7
REMARK VINA RESULT:      -5.2      8.610     11.099
REMARK  Name = 
REMARK  4 active torsions:
REMARK  status: ('A' for Active; 'I' for Inactive)
REMARK    1  A    between atoms: C_1  and  C_2
REMARK    2  A    between atoms: C_4  and  C_5
REMARK    3  A    between atoms: C_11  and  C_12
REMARK    4  A    between atoms: C_14  and  C_15
REMARK                            x       y       z     vdW  Elec       q    Type
REMARK                         _______ _______ _______ _____ _____    ______ ____
ROOT
ATOM      1  C   UNL     1      -0.490   9.080  22.714  0.00  0.00    +0.000 C 
ATOM      2  C   UNL     1      -0.189  10.055  21.614  0.00  0.00    +0.000 C 
ATOM      3  C   UNL     1       0.637  11.082  21.818  0.00  0.00    +0.000 C 
ATOM      4  C   UNL     1       0.638  12.217  20.808  0.00  0.00    +0.000 C 
ATOM      5  C   UNL     1      -0.610  13.178  21.103  0.00  0.00    +0.000 C 
ATOM      6  N   UNL     1      -0.994  13.746  19.797  0.00  0.00    +0.000 NA
ATOM      7  C   UNL     1      -0.487  13.033  18.844  0.00  0.00    +0.000 C 
ATOM      8  N   UNL     1      -0.818  13.338  17.557  0.00  0.00    +0.000 N 
ATOM      9  C   UNL     1       0.462  11.937  19.208  0.00  0.00    +0.000 C 
ATOM     10  C   UNL     1      -0.068  10.417  19.165  0.00  0.00    +0.000 C 
ATOM     11  N   UNL     1      -0.832  10.001  20.386  0.00  0.00    +0.000 N 
ATOM     12  O   UNL     1      -1.731  12.456  21.676  0.00  0.00    +0.000 OA
ATOM     13  C   UNL     1      -1.716  12.736  23.076  0.00  0.00    +0.000 C 
ATOM     14  C   UNL     1      -1.136  14.112  23.155  0.00  0.00    +0.000 C 
ATOM     15  O   UNL     1      -0.221  14.179  22.068  0.00  0.00    +0.000 OA
ATOM     16  H   UNL     1      -1.313  14.221  17.471  0.00  0.00    +0.000 HD
ATOM     17  H   UNL     1      -0.123  13.213  16.814  0.00  0.00    +0.000 HD
ATOM     18  H   UNL     1      -1.760  10.431  20.456  0.00  0.00    +0.000 HD
ENDROOT
BRANCH  10  19
ATOM     19  C   UNL     1       1.020   9.291  19.044  0.00  0.00    +0.000 A 
ATOM     20  C   UNL     1       1.345   8.399  20.097  0.00  0.00    +0.000 A 
ATOM     21  C   UNL     1       2.282   7.378  19.947  0.00  0.00    +0.000 A 
ATOM     22  C   UNL     1       2.890   7.183  18.714  0.00  0.00    +0.000 A 
ATOM     23  C   UNL     1       2.542   7.997  17.642  0.00  0.00    +0.000 A 
ATOM     24  C   UNL     1       1.614   9.036  17.799  0.00  0.00    +0.000 A 
ENDBRANCH  10  19
BRANCH   4  25
ATOM     25  C   UNL     1       1.905  12.978  21.160  0.00  0.00    +0.000 C 
ATOM     26  N   UNL     1       2.956  13.610  21.452  0.00  0.00    +0.000 NA
ENDBRANCH   4  25
BRANCH   9  27
ATOM     27  C   UNL     1       1.757  11.917  18.410  0.00  0.00    +0.000 C 
ATOM     28  N   UNL     1       2.829  11.902  17.748  0.00  0.00    +0.000 NA
ENDBRANCH   9  27
TORSDOF 3
ENDMDL
MODEL 8
REMARK VINA RESULT:      -5.1     10.270     12.071
REMARK  Name = 
REMARK  4 active torsions:
REMARK  status: ('A' for Active; 'I' for Inactive)
REMARK    1  A    between atoms: C_1  and  C_2
REMARK    2  A    between atoms: C_4  and  C_5
REMARK    3  A    between atoms: C_11  and  C_12
REMARK    4  A    between atoms: C_14  and  C_15
REMARK                            x       y       z     vdW  Elec       q    Type
REMARK                         _______ _______ _______ _____ _____    ______ ____
ROOT
ATOM      1  C   UNL     1       1.419  15.394  21.720  0.00  0.00    +0.000 C 
ATOM      2  C   UNL     1       0.164  14.589  21.554  0.00  0.00    +0.000 C 
ATOM      3  C   UNL     1       0.133  13.296  21.876  0.00  0.00    +0.000 C 
ATOM      4  C   UNL     1      -1.029  12.456  21.372  0.00  0.00    +0.000 C 
ATOM      5  C   UNL     1      -0.760  12.057  19.844  0.00  0.00    +0.000 C 
ATOM      6  N   UNL     1      -2.092  11.935  19.222  0.00  0.00    +0.000 NA
ATOM      7  C   UNL     1      -2.974  12.531  19.957  0.00  0.00    +0.000 C 
ATOM      8  N   UNL     1      -4.254  12.619  19.496  0.00  0.00    +0.000 N 
ATOM      9  C   UNL     1      -2.546  13.058  21.289  0.00  0.00    +0.000 C 
ATOM     10  C   UNL     1      -2.312  14.644  21.447  0.00  0.00    +0.000 C 
ATOM     11  N   UNL     1      -0.975  15.117  20.962  0.00  0.00    +0.000 N 
ATOM     12  O   UNL     1       0.019  13.063  19.146  0.00  0.00    +0.000 OA
ATOM     13  C   UNL     1       1.354  12.562  19.078  0.00  0.00    +0.000 C 
ATOM     14  C   UNL     1       1.172  11.079  19.027  0.00  0.00    +0.000 C 
ATOM     15  O   UNL     1       0.004  10.833  19.800  0.00  0.00    +0.000 OA
ATOM     16  H   UNL     1      -4.421  12.047  18.672  0.00  0.00    +0.000 HD
ATOM     17  H   UNL     1      -5.034  12.575  20.159  0.00  0.00    +0.000 HD
ATOM     18  H   UNL     1      -0.879  15.101  19.941  0.00  0.00    +0.000 HD
ENDROOT
BRANCH  10  19
ATOM     19  C   UNL     1      -2.370  15.226  22.904  0.00  0.00    +0.000 A 
ATOM     20  C   UNL     1      -1.610  14.710  23.985  0.00  0.00    +0.000 A 
ATOM     21  C   UNL     1      -1.646  15.275  25.259  0.00  0.00    +0.000 A 
ATOM     22  C   UNL     1      -2.408  16.414  25.480  0.00  0.00    +0.000 A 
ATOM     23  C   UNL     1      -3.110  16.986  24.425  0.00  0.00    +0.000 A 
ATOM     24  C   UNL     1      -3.090  16.404  23.149  0.00  0.00    +0.000 A 
ENDBRANCH  10  19
BRANCH   4  25
ATOM     25  C   UNL     1      -0.918  11.193  22.209  0.00  0.00    +0.000 C 
ATOM     26  N   UNL     1      -0.826  10.145  22.904  0.00  0.00    +0.000 NA
ENDBRANCH   4  25
BRANCH   9  27
ATOM     27  C   UNL     1      -3.454  12.684  22.450  0.00  0.00    +0.000 C 
ATOM     28  N   UNL     1      -4.205  12.373  23.413  0.00  0.00    +0.000 NA
ENDBRANCH   9  27
TORSDOF 3
ENDMDL
MODEL 9
REMARK VINA RESULT:      -5.1     12.576     14.632
REMARK  Name = 
REMARK  4 active torsions:
REMARK  status: ('A' for Active; 'I' for Inactive)
REMARK    1  A    between atoms: C_1  and  C_2
REMARK    2  A    between atoms: C_4  and  C_5
REMARK    3  A    between atoms: C_11  and  C_12
REMARK    4  A    between atoms: C_14  and  C_15
REMARK                            x       y       z     vdW  Elec       q    Type
REMARK                         _______ _______ _______ _____ _____    ______ ____
ROOT
ATOM      1  C   UNL     1      -5.223  12.240  19.149  0.00  0.00    +0.000 C 
ATOM      2  C   UNL     1      -4.630  13.023  20.283  0.00  0.00    +0.000 C 
ATOM      3  C   UNL     1      -4.753  12.601  21.542  0.00  0.00    +0.000 C 
ATOM      4  C   UNL     1      -4.451  13.583  22.663  0.00  0.00    +0.000 C 
ATOM      5  C   UNL     1      -5.718  14.541  22.872  0.00  0.00    +0.000 C 
ATOM      6  N   UNL     1      -5.173  15.824  23.353  0.00  0.00    +0.000 NA
ATOM      7  C   UNL     1      -3.907  15.886  23.096  0.00  0.00    +0.000 C 
ATOM      8  N   UNL     1      -3.243  17.045  23.370  0.00  0.00    +0.000 N 
ATOM      9  C   UNL     1      -3.237  14.670  22.542  0.00  0.00    +0.000 C 
ATOM     10  C   UNL     1      -2.881  14.637  20.972  0.00  0.00    +0.000 C 
ATOM     11  N   UNL     1      -4.033  14.260  20.090  0.00  0.00    +0.000 N 
ATOM     12  O   UNL     1      -6.455  14.750  21.638  0.00  0.00    +0.000 OA
ATOM     13  C   UNL     1      -7.604  13.906  21.708  0.00  0.00    +0.000 C 
ATOM     14  C   UNL     1      -7.904  13.839  23.172  0.00  0.00    +0.000 C 
ATOM     15  O   UNL     1      -6.632  13.924  23.803  0.00  0.00    +0.000 OA
ATOM     16  H   UNL     1      -3.795  17.701  23.917  0.00  0.00    +0.000 HD
ATOM     17  H   UNL     1      -2.269  17.005  23.686  0.00  0.00    +0.000 HD
ATOM     18  H   UNL     1      -4.750  14.989  20.017  0.00  0.00    +0.000 HD
ENDROOT
BRANCH  10  19
ATOM     19  C   UNL     1      -1.763  13.631  20.521  0.00  0.00    +0.000 A 
ATOM     20  C   UNL     1      -1.770  12.253  20.852  0.00  0.00    +0.000 A 
ATOM     21  C   UNL     1      -0.789  11.371  20.400  0.00  0.00    +0.000 A 
ATOM     22  C   UNL     1       0.208  11.835  19.552  0.00  0.00    +0.000 A 
ATOM     23  C   UNL     1       0.204  13.167  19.152  0.00  0.00    +0.000 A 
ATOM     24  C   UNL     1      -0.772  14.057  19.624  0.00  0.00    +0.000 A 
ENDBRANCH  10  19
BRANCH   4  25
ATOM     25  C   UNL     1      -4.345  12.680  23.880  0.00  0.00    +0.000 C 
ATOM     26  N   UNL     1      -4.257  11.930  24.890  0.00  0.00    +0.000 NA
ENDBRANCH   4  25
BRANCH   9  27
ATOM     27  C   UNL     1      -1.945  14.275  23.240  0.00  0.00    +0.000 C 
ATOM     28  N   UNL     1      -0.875  13.948  23.819  0.00  0.00    +0.000 NA
ENDBRANCH   9  27
TORSDOF 3
ENDMDL
