MODEL 1
REMARK VINA RESULT:      -7.3      0.000      0.000
REMARK  Name = 
REMARK  6 active torsions:
REMARK  status: ('A' for Active; 'I' for Inactive)
REMARK    1  A    between atoms: C_1  and  C_2
REMARK    2  A    between atoms: C_2  and  O_3
REMARK    3  A    between atoms: O_3  and  C_4
REMARK    4  A    between atoms: C_4  and  C_6
REMARK    5  A    between atoms: N_8  and  C_9
REMARK    6  A    between atoms: C_9  and  C_10
REMARK                            x       y       z     vdW  Elec       q    Type
REMARK                         _______ _______ _______ _____ _____    ______ ____
ROOT
ATOM      1  C   UNL     1       5.532   4.650  16.454  0.00  0.00    +0.000 A 
ATOM      2  C   UNL     1       5.150   3.791  17.409  0.00  0.00    +0.000 A 
ATOM      3  N   UNL     1       4.193   4.010  18.394  0.00  0.00    +0.000 N 
ATOM      4  C   UNL     1       3.611   5.294  18.500  0.00  0.00    +0.000 A 
ATOM      5  C   UNL     1       2.723   5.663  19.521  0.00  0.00    +0.000 A 
ATOM      6  C   UNL     1       2.198   6.954  19.584  0.00  0.00    +0.000 A 
ATOM      7  F   UNL     1       1.360   7.268  20.581  0.00  0.00    +0.000 F 
ATOM      8  C   UNL     1       2.536   7.908  18.636  0.00  0.00    +0.000 A 
ATOM      9  F   UNL     1       2.032   9.146  18.711  0.00  0.00    +0.000 F 
ATOM     10  C   UNL     1       3.400   7.583  17.608  0.00  0.00    +0.000 A 
ATOM     11  C   UNL     1       3.930   6.285  17.541  0.00  0.00    +0.000 A 
ATOM     12  C   UNL     1       4.848   5.963  16.422  0.00  0.00    +0.000 A 
ATOM     13  O   UNL     1       4.999   6.775  15.515  0.00  0.00    +0.000 OA
ENDROOT
BRANCH   1  14
ATOM     14  C   UNL     1       6.663   4.271  15.583  0.00  0.00    +0.000 C 
ATOM     15  O   UNL     1       7.805   4.685  15.727  0.00  0.00    +0.000 OA
BRANCH  14  16
ATOM     16  O   UNL     1       6.202   3.571  14.519  0.00  0.00    +0.000 OA
BRANCH  16  18
ATOM     17  C   UNL     1       5.808   3.224  12.195  0.00  0.00    +0.000 C 
ATOM     18  C   UNL     1       6.449   4.135  13.226  0.00  0.00    +0.000 C 
ENDBRANCH  16  18
ENDBRANCH  14  16
ENDBRANCH   1  14
BRANCH   3  19
ATOM     19  C   UNL     1       3.858   2.959  19.373  0.00  0.00    +0.000 C 
ATOM     20  C   UNL     1       2.962   1.889  18.767  0.00  0.00    +0.000 C 
ENDBRANCH   3  19
TORSDOF 4
ENDMDL
MODEL 2
REMARK VINA RESULT:      -7.2      2.746      4.518
REMARK  Name = 
REMARK  6 active torsions:
REMARK  status: ('A' for Active; 'I' for Inactive)
REMARK    1  A    between atoms: C_1  and  C_2
REMARK    2  A    between atoms: C_2  and  O_3
REMARK    3  A    between atoms: O_3  and  C_4
REMARK    4  A    between atoms: C_4  and  C_6
REMARK    5  A    between atoms: N_8  and  C_9
REMARK    6  A    between atoms: C_9  and  C_10
REMARK                            x       y       z     vdW  Elec       q    Type
REMARK                         _______ _______ _______ _____ _____    ______ ____
ROOT
ATOM      1  C   UNL     1       5.667   6.169  17.532  0.00  0.00    +0.000 A 
ATOM      2  C   UNL     1       4.539   6.865  17.332  0.00  0.00    +0.000 A 
ATOM      3  N   UNL     1       3.307   6.651  17.941  0.00  0.00    +0.000 N 
ATOM      4  C   UNL     1       3.156   5.530  18.789  0.00  0.00    +0.000 A 
ATOM      5  C   UNL     1       1.935   5.150  19.366  0.00  0.00    +0.000 A 
ATOM      6  C   UNL     1       1.846   4.019  20.178  0.00  0.00    +0.000 A 
ATOM      7  F   UNL     1       0.658   3.687  20.701  0.00  0.00    +0.000 F 
ATOM      8  C   UNL     1       2.963   3.242  20.442  0.00  0.00    +0.000 A 
ATOM      9  F   UNL     1       2.863   2.154  21.216  0.00  0.00    +0.000 F 
ATOM     10  C   UNL     1       4.187   3.585  19.901  0.00  0.00    +0.000 A 
ATOM     11  C   UNL     1       4.281   4.722  19.084  0.00  0.00    +0.000 A 
ATOM     12  C   UNL     1       5.609   5.072  18.526  0.00  0.00    +0.000 A 
ATOM     13  O   UNL     1       6.601   4.461  18.906  0.00  0.00    +0.000 OA
ENDROOT
BRANCH   1  14
ATOM     14  C   UNL     1       6.837   6.475  16.685  0.00  0.00    +0.000 C 
ATOM     15  O   UNL     1       7.423   5.643  16.005  0.00  0.00    +0.000 OA
BRANCH  14  16
ATOM     16  O   UNL     1       7.261   7.737  16.932  0.00  0.00    +0.000 OA
BRANCH  16  18
ATOM     17  C   UNL     1       8.416   9.398  18.190  0.00  0.00    +0.000 C 
ATOM     18  C   UNL     1       8.130   7.913  18.056  0.00  0.00    +0.000 C 
ENDBRANCH  16  18
ENDBRANCH  14  16
ENDBRANCH   1  14
BRANCH   3  19
ATOM     19  C   UNL     1       2.151   7.515  17.637  0.00  0.00    +0.000 C 
ATOM     20  C   UNL     1       2.395   8.955  18.065  0.00  0.00    +0.000 C 
ENDBRANCH   3  19
TORSDOF 4
ENDMDL
MODEL 3
REMARK VINA RESULT:      -7.2      2.199      3.755
REMARK  Name = 
REMARK  6 active torsions:
REMARK  status: ('A' for Active; 'I' for Inactive)
REMARK    1  A    between atoms: C_1  and  C_2
REMARK    2  A    between atoms: C_2  and  O_3
REMARK    3  A    between atoms: O_3  and  C_4
REMARK    4  A    between atoms: C_4  and  C_6
REMARK    5  A    between atoms: N_8  and  C_9
REMARK    6  A    between atoms: C_9  and  C_10
REMARK                            x       y       z     vdW  Elec       q    Type
REMARK                         _______ _______ _______ _____ _____    ______ ____
ROOT
ATOM      1  C   UNL     1       5.621   6.114  17.449  0.00  0.00    +0.000 A 
ATOM      2  C   UNL     1       4.501   6.836  17.301  0.00  0.00    +0.000 A 
ATOM      3  N   UNL     1       3.292   6.644  17.963  0.00  0.00    +0.000 N 
ATOM      4  C   UNL     1       3.154   5.523  18.812  0.00  0.00    +0.000 A 
ATOM      5  C   UNL     1       1.951   5.167  19.440  0.00  0.00    +0.000 A 
ATOM      6  C   UNL     1       1.874   4.034  20.251  0.00  0.00    +0.000 A 
ATOM      7  F   UNL     1       0.704   3.724  20.825  0.00  0.00    +0.000 F 
ATOM      8  C   UNL     1       2.984   3.231  20.463  0.00  0.00    +0.000 A 
ATOM      9  F   UNL     1       2.895   2.142  21.236  0.00  0.00    +0.000 F 
ATOM     10  C   UNL     1       4.191   3.551  19.870  0.00  0.00    +0.000 A 
ATOM     11  C   UNL     1       4.273   4.690  19.054  0.00  0.00    +0.000 A 
ATOM     12  C   UNL     1       5.583   5.014  18.440  0.00  0.00    +0.000 A 
ATOM     13  O   UNL     1       6.578   4.380  18.774  0.00  0.00    +0.000 OA
ENDROOT
BRANCH   1  14
ATOM     14  C   UNL     1       6.759   6.399  16.553  0.00  0.00    +0.000 C 
ATOM     15  O   UNL     1       7.725   7.081  16.871  0.00  0.00    +0.000 OA
BRANCH  14  16
ATOM     16  O   UNL     1       6.476   5.963  15.303  0.00  0.00    +0.000 OA
BRANCH  16  18
ATOM     17  C   UNL     1       5.894   3.933  14.200  0.00  0.00    +0.000 C 
ATOM     18  C   UNL     1       6.990   4.676  14.941  0.00  0.00    +0.000 C 
ENDBRANCH  16  18
ENDBRANCH  14  16
ENDBRANCH   1  14
BRANCH   3  19
ATOM     19  C   UNL     1       2.142   7.535  17.714  0.00  0.00    +0.000 C 
ATOM     20  C   UNL     1       2.489   8.992  17.985  0.00  0.00    +0.000 C 
ENDBRANCH   3  19
TORSDOF 4
ENDMDL
MODEL 4
REMARK VINA RESULT:      -7.1      3.666      6.013
REMARK  Name = 
REMARK  6 active torsions:
REMARK  status: ('A' for Active; 'I' for Inactive)
REMARK    1  A    between atoms: C_1  and  C_2
REMARK    2  A    between atoms: C_2  and  O_3
REMARK    3  A    between atoms: O_3  and  C_4
REMARK    4  A    between atoms: C_4  and  C_6
REMARK    5  A    between atoms: N_8  and  C_9
REMARK    6  A    between atoms: C_9  and  C_10
REMARK                            x       y       z     vdW  Elec       q    Type
REMARK                         _______ _______ _______ _____ _____    ______ ____
ROOT
ATOM      1  C   UNL     1       2.286   4.236  18.417  0.00  0.00    +0.000 A 
ATOM      2  C   UNL     1       2.166   5.559  18.240  0.00  0.00    +0.000 A 
ATOM      3  N   UNL     1       3.163   6.440  17.833  0.00  0.00    +0.000 N 
ATOM      4  C   UNL     1       4.479   5.948  17.676  0.00  0.00    +0.000 A 
ATOM      5  C   UNL     1       5.583   6.762  17.381  0.00  0.00    +0.000 A 
ATOM      6  C   UNL     1       6.863   6.219  17.260  0.00  0.00    +0.000 A 
ATOM      7  F   UNL     1       7.891   7.033  16.985  0.00  0.00    +0.000 F 
ATOM      8  C   UNL     1       7.079   4.860  17.423  0.00  0.00    +0.000 A 
ATOM      9  F   UNL     1       8.313   4.352  17.313  0.00  0.00    +0.000 F 
ATOM     10  C   UNL     1       6.018   4.021  17.706  0.00  0.00    +0.000 A 
ATOM     11  C   UNL     1       4.729   4.563  17.828  0.00  0.00    +0.000 A 
ATOM     12  C   UNL     1       3.608   3.638  18.123  0.00  0.00    +0.000 A 
ATOM     13  O   UNL     1       3.806   2.428  18.102  0.00  0.00    +0.000 OA
ENDROOT
BRANCH   1  14
ATOM     14  C   UNL     1       1.138   3.500  18.983  0.00  0.00    +0.000 C 
ATOM     15  O   UNL     1       0.509   2.644  18.375  0.00  0.00    +0.000 OA
BRANCH  14  16
ATOM     16  O   UNL     1       0.786   4.047  20.171  0.00  0.00    +0.000 OA
BRANCH  16  18
ATOM     17  C   UNL     1       1.764   2.495  21.690  0.00  0.00    +0.000 C 
ATOM     18  C   UNL     1       1.740   3.942  21.233  0.00  0.00    +0.000 C 
ENDBRANCH  16  18
ENDBRANCH  14  16
ENDBRANCH   1  14
BRANCH   3  19
ATOM     19  C   UNL     1       2.880   7.877  17.659  0.00  0.00    +0.000 C 
ATOM     20  C   UNL     1       1.956   8.405  18.747  0.00  0.00    +0.000 C 
ENDBRANCH   3  19
TORSDOF 4
ENDMDL
MODEL 5
REMARK VINA RESULT:      -7.0      3.959      6.143
REMARK  Name = 
REMARK  6 active torsions:
REMARK  status: ('A' for Active; 'I' for Inactive)
REMARK    1  A    between atoms: C_1  and  C_2
REMARK    2  A    between atoms: C_2  and  O_3
REMARK    3  A    between atoms: O_3  and  C_4
REMARK    4  A    between atoms: C_4  and  C_6
REMARK    5  A    between atoms: N_8  and  C_9
REMARK    6  A    between atoms: C_9  and  C_10
REMARK                            x       y       z     vdW  Elec       q    Type
REMARK                         _______ _______ _______ _____ _____    ______ ____
ROOT
ATOM      1  C   UNL     1       4.577   4.041  18.836  0.00  0.00    +0.000 A 
ATOM      2  C   UNL     1       5.692   4.749  19.062  0.00  0.00    +0.000 A 
ATOM      3  N   UNL     1       6.573   5.246  18.107  0.00  0.00    +0.000 N 
ATOM      4  C   UNL     1       6.364   4.906  16.751  0.00  0.00    +0.000 A 
ATOM      5  C   UNL     1       7.248   5.254  15.718  0.00  0.00    +0.000 A 
ATOM      6  C   UNL     1       6.997   4.870  14.400  0.00  0.00    +0.000 A 
ATOM      7  F   UNL     1       7.871   5.215  13.445  0.00  0.00    +0.000 F 
ATOM      8  C   UNL     1       5.866   4.138  14.074  0.00  0.00    +0.000 A 
ATOM      9  F   UNL     1       5.641   3.768  12.807  0.00  0.00    +0.000 F 
ATOM     10  C   UNL     1       4.965   3.783  15.059  0.00  0.00    +0.000 A 
ATOM     11  C   UNL     1       5.213   4.168  16.386  0.00  0.00    +0.000 A 
ATOM     12  C   UNL     1       4.225   3.781  17.421  0.00  0.00    +0.000 A 
ATOM     13  O   UNL     1       3.161   3.276  17.078  0.00  0.00    +0.000 OA
ENDROOT
BRANCH   1  14
ATOM     14  C   UNL     1       3.849   3.492  19.998  0.00  0.00    +0.000 C 
ATOM     15  O   UNL     1       4.048   2.378  20.464  0.00  0.00    +0.000 OA
BRANCH  14  16
ATOM     16  O   UNL     1       2.826   4.317  20.325  0.00  0.00    +0.000 OA
BRANCH  16  18
ATOM     17  C   UNL     1       0.811   3.142  19.842  0.00  0.00    +0.000 C 
ATOM     18  C   UNL     1       1.686   3.710  20.944  0.00  0.00    +0.000 C 
ENDBRANCH  16  18
ENDBRANCH  14  16
ENDBRANCH   1  14
BRANCH   3  19
ATOM     19  C   UNL     1       7.757   6.032  18.504  0.00  0.00    +0.000 C 
ATOM     20  C   UNL     1       7.691   7.457  17.973  0.00  0.00    +0.000 C 
ENDBRANCH   3  19
TORSDOF 4
ENDMDL
MODEL 6
REMARK VINA RESULT:      -7.0      2.229      3.771
REMARK  Name = 
REMARK  6 active torsions:
REMARK  status: ('A' for Active; 'I' for Inactive)
REMARK    1  A    between atoms: C_1  and  C_2
REMARK    2  A    between atoms: C_2  and  O_3
REMARK    3  A    between atoms: O_3  and  C_4
REMARK    4  A    between atoms: C_4  and  C_6
REMARK    5  A    between atoms: N_8  and  C_9
REMARK    6  A    between atoms: C_9  and  C_10
REMARK                            x       y       z     vdW  Elec       q    Type
REMARK                         _______ _______ _______ _____ _____    ______ ____
ROOT
ATOM      1  C   UNL     1       5.201   5.852  17.130  0.00  0.00    +0.000 A 
ATOM      2  C   UNL     1       4.358   6.779  17.606  0.00  0.00    +0.000 A 
ATOM      3  N   UNL     1       3.225   6.556  18.381  0.00  0.00    +0.000 N 
ATOM      4  C   UNL     1       2.826   5.224  18.631  0.00  0.00    +0.000 A 
ATOM      5  C   UNL     1       1.642   4.880  19.302  0.00  0.00    +0.000 A 
ATOM      6  C   UNL     1       1.292   3.544  19.500  0.00  0.00    +0.000 A 
ATOM      7  F   UNL     1       0.149   3.258  20.137  0.00  0.00    +0.000 F 
ATOM      8  C   UNL     1       2.107   2.519  19.044  0.00  0.00    +0.000 A 
ATOM      9  F   UNL     1       1.756   1.240  19.233  0.00  0.00    +0.000 F 
ATOM     10  C   UNL     1       3.286   2.813  18.387  0.00  0.00    +0.000 A 
ATOM     11  C   UNL     1       3.642   4.156  18.186  0.00  0.00    +0.000 A 
ATOM     12  C   UNL     1       4.917   4.443  17.487  0.00  0.00    +0.000 A 
ATOM     13  O   UNL     1       5.689   3.521  17.241  0.00  0.00    +0.000 OA
ENDROOT
BRANCH   1  14
ATOM     14  C   UNL     1       6.275   6.286  16.214  0.00  0.00    +0.000 C 
ATOM     15  O   UNL     1       7.184   7.039  16.536  0.00  0.00    +0.000 OA
BRANCH  14  16
ATOM     16  O   UNL     1       5.986   5.887  14.953  0.00  0.00    +0.000 OA
BRANCH  16  18
ATOM     17  C   UNL     1       6.086   3.841  13.737  0.00  0.00    +0.000 C 
ATOM     18  C   UNL     1       6.900   4.968  14.346  0.00  0.00    +0.000 C 
ENDBRANCH  16  18
ENDBRANCH  14  16
ENDBRANCH   1  14
BRANCH   3  19
ATOM     19  C   UNL     1       2.397   7.683  18.854  0.00  0.00    +0.000 C 
ATOM     20  C   UNL     1       2.135   8.693  17.747  0.00  0.00    +0.000 C 
ENDBRANCH   3  19
TORSDOF 4
ENDMDL
MODEL 7
REMARK VINA RESULT:      -6.9      2.630      4.360
REMARK  Name = 
REMARK  6 active torsions:
REMARK  status: ('A' for Active; 'I' for Inactive)
REMARK    1  A    between atoms: C_1  and  C_2
REMARK    2  A    between atoms: C_2  and  O_3
REMARK    3  A    between atoms: O_3  and  C_4
REMARK    4  A    between atoms: C_4  and  C_6
REMARK    5  A    between atoms: N_8  and  C_9
REMARK    6  A    between atoms: C_9  and  C_10
REMARK                            x       y       z     vdW  Elec       q    Type
REMARK                         _______ _______ _______ _____ _____    ______ ____
ROOT
ATOM      1  C   UNL     1       4.678   5.988  17.029  0.00  0.00    +0.000 A 
ATOM      2  C   UNL     1       3.935   6.846  17.740  0.00  0.00    +0.000 A 
ATOM      3  N   UNL     1       2.966   6.526  18.686  0.00  0.00    +0.000 N 
ATOM      4  C   UNL     1       2.627   5.167  18.875  0.00  0.00    +0.000 A 
ATOM      5  C   UNL     1       1.590   4.735  19.716  0.00  0.00    +0.000 A 
ATOM      6  C   UNL     1       1.289   3.379  19.844  0.00  0.00    +0.000 A 
ATOM      7  F   UNL     1       0.285   3.009  20.650  0.00  0.00    +0.000 F 
ATOM      8  C   UNL     1       2.009   2.420  19.149  0.00  0.00    +0.000 A 
ATOM      9  F   UNL     1       1.705   1.121  19.274  0.00  0.00    +0.000 F 
ATOM     10  C   UNL     1       3.044   2.802  18.317  0.00  0.00    +0.000 A 
ATOM     11  C   UNL     1       3.350   4.165  18.185  0.00  0.00    +0.000 A 
ATOM     12  C   UNL     1       4.472   4.545  17.294  0.00  0.00    +0.000 A 
ATOM     13  O   UNL     1       5.188   3.669  16.821  0.00  0.00    +0.000 OA
ENDROOT
BRANCH   1  14
ATOM     14  C   UNL     1       5.561   6.531  15.977  0.00  0.00    +0.000 C 
ATOM     15  O   UNL     1       5.155   7.008  14.925  0.00  0.00    +0.000 OA
BRANCH  14  16
ATOM     16  O   UNL     1       6.850   6.243  16.271  0.00  0.00    +0.000 OA
BRANCH  16  18
ATOM     17  C   UNL     1       7.718   8.084  17.509  0.00  0.00    +0.000 C 
ATOM     18  C   UNL     1       7.311   6.623  17.572  0.00  0.00    +0.000 C 
ENDBRANCH  16  18
ENDBRANCH  14  16
ENDBRANCH   1  14
BRANCH   3  19
ATOM     19  C   UNL     1       2.236   7.584  19.410  0.00  0.00    +0.000 C 
ATOM     20  C   UNL     1       1.836   8.726  18.488  0.00  0.00    +0.000 C 
ENDBRANCH   3  19
TORSDOF 4
ENDMDL
MODEL 8
REMARK VINA RESULT:      -6.8      2.786      4.506
REMARK  Name = 
REMARK  6 active torsions:
REMARK  status: ('A' for Active; 'I' for Inactive)
REMARK    1  A    between atoms: C_1  and  C_2
REMARK    2  A    between atoms: C_2  and  O_3
REMARK    3  A    between atoms: O_3  and  C_4
REMARK    4  A    between atoms: C_4  and  C_6
REMARK    5  A    between atoms: N_8  and  C_9
REMARK    6  A    between atoms: C_9  and  C_10
REMARK                            x       y       z     vdW  Elec       q    Type
REMARK                         _______ _______ _______ _____ _____    ______ ____
ROOT
ATOM      1  C   UNL     1       3.765   4.109  19.505  0.00  0.00    +0.000 A 
ATOM      2  C   UNL     1       4.378   4.460  18.366  0.00  0.00    +0.000 A 
ATOM      3  N   UNL     1       4.299   5.690  17.721  0.00  0.00    +0.000 N 
ATOM      4  C   UNL     1       3.411   6.666  18.230  0.00  0.00    +0.000 A 
ATOM      5  C   UNL     1       3.164   7.895  17.600  0.00  0.00    +0.000 A 
ATOM      6  C   UNL     1       2.259   8.809  18.141  0.00  0.00    +0.000 A 
ATOM      7  F   UNL     1       2.045   9.968  17.504  0.00  0.00    +0.000 F 
ATOM      8  C   UNL     1       1.582   8.530  19.318  0.00  0.00    +0.000 A 
ATOM      9  F   UNL     1       0.709   9.411  19.823  0.00  0.00    +0.000 F 
ATOM     10  C   UNL     1       1.803   7.335  19.975  0.00  0.00    +0.000 A 
ATOM     11  C   UNL     1       2.713   6.413  19.435  0.00  0.00    +0.000 A 
ATOM     12  C   UNL     1       2.937   5.143  20.166  0.00  0.00    +0.000 A 
ATOM     13  O   UNL     1       2.448   4.997  21.281  0.00  0.00    +0.000 OA
ENDROOT
BRANCH   1  14
ATOM     14  C   UNL     1       3.875   2.706  19.955  0.00  0.00    +0.000 C 
ATOM     15  O   UNL     1       4.938   2.118  20.101  0.00  0.00    +0.000 OA
BRANCH  14  16
ATOM     16  O   UNL     1       2.646   2.141  19.986  0.00  0.00    +0.000 OA
BRANCH  16  18
ATOM     17  C   UNL     1       0.612   2.495  18.797  0.00  0.00    +0.000 C 
ATOM     18  C   UNL     1       2.012   1.913  18.722  0.00  0.00    +0.000 C 
ENDBRANCH  16  18
ENDBRANCH  14  16
ENDBRANCH   1  14
BRANCH   3  19
ATOM     19  C   UNL     1       5.050   5.944  16.477  0.00  0.00    +0.000 C 
ATOM     20  C   UNL     1       5.304   4.660  15.700  0.00  0.00    +0.000 C 
ENDBRANCH   3  19
TORSDOF 4
ENDMDL
MODEL 9
REMARK VINA RESULT:      -6.8      3.029      4.785
REMARK  Name = 
REMARK  6 active torsions:
REMARK  status: ('A' for Active; 'I' for Inactive)
REMARK    1  A    between atoms: C_1  and  C_2
REMARK    2  A    between atoms: C_2  and  O_3
REMARK    3  A    between atoms: O_3  and  C_4
REMARK    4  A    between atoms: C_4  and  C_6
REMARK    5  A    between atoms: N_8  and  C_9
REMARK    6  A    between atoms: C_9  and  C_10
REMARK                            x       y       z     vdW  Elec       q    Type
REMARK                         _______ _______ _______ _____ _____    ______ ____
ROOT
ATOM      1  C   UNL     1       5.640   6.311  17.499  0.00  0.00    +0.000 A 
ATOM      2  C   UNL     1       4.501   7.014  17.432  0.00  0.00    +0.000 A 
ATOM      3  N   UNL     1       3.221   6.559  17.729  0.00  0.00    +0.000 N 
ATOM      4  C   UNL     1       3.042   5.192  18.040  0.00  0.00    +0.000 A 
ATOM      5  C   UNL     1       1.787   4.598  18.245  0.00  0.00    +0.000 A 
ATOM      6  C   UNL     1       1.676   3.237  18.527  0.00  0.00    +0.000 A 
ATOM      7  F   UNL     1       0.458   2.707  18.707  0.00  0.00    +0.000 F 
ATOM      8  C   UNL     1       2.801   2.433  18.619  0.00  0.00    +0.000 A 
ATOM      9  F   UNL     1       2.681   1.125  18.883  0.00  0.00    +0.000 F 
ATOM     10  C   UNL     1       4.057   2.979  18.434  0.00  0.00    +0.000 A 
ATOM     11  C   UNL     1       4.174   4.348  18.150  0.00  0.00    +0.000 A 
ATOM     12  C   UNL     1       5.534   4.908  17.965  0.00  0.00    +0.000 A 
ATOM     13  O   UNL     1       6.511   4.209  18.210  0.00  0.00    +0.000 OA
ENDROOT
BRANCH   1  14
ATOM     14  C   UNL     1       6.883   6.943  17.013  0.00  0.00    +0.000 C 
ATOM     15  O   UNL     1       7.679   6.394  16.262  0.00  0.00    +0.000 OA
BRANCH  14  16
ATOM     16  O   UNL     1       7.087   8.110  17.668  0.00  0.00    +0.000 OA
BRANCH  16  18
ATOM     17  C   UNL     1       8.656   9.785  18.305  0.00  0.00    +0.000 C 
ATOM     18  C   UNL     1       8.376   8.294  18.264  0.00  0.00    +0.000 C 
ENDBRANCH  16  18
ENDBRANCH  14  16
ENDBRANCH   1  14
BRANCH   3  19
ATOM     19  C   UNL     1       2.055   7.458  17.630  0.00  0.00    +0.000 C 
ATOM     20  C   UNL     1       2.023   8.468  18.768  0.00  0.00    +0.000 C 
ENDBRANCH   3  19
TORSDOF 4
ENDMDL
