MODEL 1
REMARK VINA RESULT:      -7.9      0.000      0.000
REMARK  Name = 
REMARK  14 active torsions:
REMARK  status: ('A' for Active; 'I' for Inactive)
REMARK    1  A    between atoms: C_1  and  C_2
REMARK    2  A    between atoms: C_2  and  C_3
REMARK    3  A    between atoms: C_2  and  C_4
REMARK    4  A    between atoms: C_2  and  C_5
REMARK    5  A    between atoms: C_7  and  C_8
REMARK    6  A    between atoms: C_8  and  N_10
REMARK    7  A    between atoms: N_10  and  C_11
REMARK    8  A    between atoms: C_11  and  C_12
REMARK    9  A    between atoms: C_19  and  O_20
REMARK   10  A    between atoms: N_23  and  C_24
REMARK   11  A    between atoms: C_24  and  C_25
REMARK   12  A    between atoms: C_25  and  C_26
REMARK   13  A    between atoms: C_26  and  N_27
REMARK   14  A    between atoms: C_28  and  C_30
REMARK                            x       y       z     vdW  Elec       q    Type
REMARK                         _______ _______ _______ _____ _____    ______ ____
ROOT
ATOM      1  C   UNL     1       2.613   5.070  19.150  0.00  0.00    +0.000 A 
ATOM      2  N   UNL     1       1.978   6.019  19.777  0.00  0.00    +0.000 NA
ATOM      3  C   UNL     1       2.060   7.342  19.363  0.00  0.00    +0.000 A 
ATOM      4  C   UNL     1       2.831   7.718  18.339  0.00  0.00    +0.000 A 
ATOM      5  C   UNL     1       3.624   6.659  17.678  0.00  0.00    +0.000 A 
ATOM      6  O   UNL     1       4.427   6.977  16.793  0.00  0.00    +0.000 OA
ATOM      7  N   UNL     1       3.467   5.345  18.093  0.00  0.00    +0.000 N 
ENDROOT
BRANCH   1   9
ATOM      8  C   UNL     1       1.249   3.798  20.891  0.00  0.00    +0.000 C 
ATOM      9  C   UNL     1       2.321   3.609  19.754  0.00  0.00    +0.000 C 
ATOM     10  C   UNL     1       3.555   2.817  20.267  0.00  0.00    +0.000 C 
ATOM     11  C   UNL     1       1.713   2.628  18.746  0.00  0.00    +0.000 C 
ENDBRANCH   1   9
BRANCH   3  12
ATOM     12  C   UNL     1       1.280   8.419  20.192  0.00  0.00    +0.000 C 
ATOM     13  O   UNL     1       1.117   8.245  21.399  0.00  0.00    +0.000 OA
BRANCH  12  14
ATOM     14  N   UNL     1       0.877   9.473  19.446  0.00  0.00    +0.000 NA
BRANCH  14  15
ATOM     15  C   UNL     1      -0.177  10.333  20.013  0.00  0.00    +0.000 C 
BRANCH  15  16
ATOM     16  C   UNL     1      -1.259  10.608  18.953  0.00  0.00    +0.000 A 
ATOM     17  C   UNL     1      -1.197   9.968  17.691  0.00  0.00    +0.000 A 
ATOM     18  C   UNL     1      -2.165  10.206  16.715  0.00  0.00    +0.000 A 
ATOM     19  C   UNL     1      -3.226  11.089  16.990  0.00  0.00    +0.000 A 
ATOM     20  F   UNL     1      -4.142  11.308  16.030  0.00  0.00    +0.000 F 
ATOM     21  C   UNL     1      -3.329  11.693  18.209  0.00  0.00    +0.000 A 
ATOM     22  C   UNL     1      -2.365  11.461  19.194  0.00  0.00    +0.000 A 
ENDBRANCH  15  16
ENDBRANCH  14  15
ENDBRANCH  12  14
ENDBRANCH   3  12
BRANCH   4  23
ATOM     23  O   UNL     1       3.023   9.015  17.902  0.00  0.00    +0.000 OA
ATOM     24  H   UNL     1       2.641   9.028  16.984  0.00  0.00    +0.000 HD
ENDBRANCH   4  23
BRANCH   7  25
ATOM     25  C   UNL     1       4.385   4.437  17.372  0.00  0.00    +0.000 C 
BRANCH  25  26
ATOM     26  C   UNL     1       5.865   4.360  17.836  0.00  0.00    +0.000 C 
BRANCH  26  27
ATOM     27  C   UNL     1       7.069   4.541  16.902  0.00  0.00    +0.000 C 
BRANCH  27  28
ATOM     28  N   UNL     1       6.868   3.726  15.678  0.00  0.00    +0.000 N 
ATOM     29  C   UNL     1       6.446   4.287  14.489  0.00  0.00    +0.000 C 
ATOM     30  O   UNL     1       6.245   5.485  14.346  0.00  0.00    +0.000 OA
ATOM     31  H   UNL     1       6.962   2.724  15.735  0.00  0.00    +0.000 HD
BRANCH  29  32
ATOM     32  C   UNL     1       6.192   3.380  13.324  0.00  0.00    +0.000 C 
ATOM     33  C   UNL     1       5.309   3.632  12.127  0.00  0.00    +0.000 C 
ATOM     34  C   UNL     1       6.800   3.706  11.974  0.00  0.00    +0.000 C 
ENDBRANCH  29  32
ENDBRANCH  27  28
ENDBRANCH  26  27
ENDBRANCH  25  26
ENDBRANCH   7  25
TORSDOF 11
ENDMDL
MODEL 2
REMARK VINA RESULT:      -7.6      4.116      6.820
REMARK  Name = 
REMARK  14 active torsions:
REMARK  status: ('A' for Active; 'I' for Inactive)
REMARK    1  A    between atoms: C_1  and  C_2
REMARK    2  A    between atoms: C_2  and  C_3
REMARK    3  A    between atoms: C_2  and  C_4
REMARK    4  A    between atoms: C_2  and  C_5
REMARK    5  A    between atoms: C_7  and  C_8
REMARK    6  A    between atoms: C_8  and  N_10
REMARK    7  A    between atoms: N_10  and  C_11
REMARK    8  A    between atoms: C_11  and  C_12
REMARK    9  A    between atoms: C_19  and  O_20
REMARK   10  A    between atoms: N_23  and  C_24
REMARK   11  A    between atoms: C_24  and  C_25
REMARK   12  A    between atoms: C_25  and  C_26
REMARK   13  A    between atoms: C_26  and  N_27
REMARK   14  A    between atoms: C_28  and  C_30
REMARK                            x       y       z     vdW  Elec       q    Type
REMARK                         _______ _______ _______ _____ _____    ______ ____
ROOT
ATOM      1  C   UNL     1       5.700   4.574  16.570  0.00  0.00    +0.000 A 
ATOM      2  N   UNL     1       4.779   3.672  16.757  0.00  0.00    +0.000 NA
ATOM      3  C   UNL     1       4.447   3.231  18.032  0.00  0.00    +0.000 A 
ATOM      4  C   UNL     1       5.087   3.663  19.122  0.00  0.00    +0.000 A 
ATOM      5  C   UNL     1       6.195   4.620  18.908  0.00  0.00    +0.000 A 
ATOM      6  O   UNL     1       6.879   4.968  19.877  0.00  0.00    +0.000 OA
ATOM      7  N   UNL     1       6.452   5.071  17.623  0.00  0.00    +0.000 N 
ENDROOT
BRANCH   1   9
ATOM      8  C   UNL     1       5.227   6.415  14.869  0.00  0.00    +0.000 C 
ATOM      9  C   UNL     1       5.872   4.989  15.026  0.00  0.00    +0.000 C 
ATOM     10  C   UNL     1       5.305   3.993  13.978  0.00  0.00    +0.000 C 
ATOM     11  C   UNL     1       7.331   5.123  14.576  0.00  0.00    +0.000 C 
ENDBRANCH   1   9
BRANCH   3  12
ATOM     12  C   UNL     1       3.341   2.127  18.160  0.00  0.00    +0.000 C 
ATOM     13  O   UNL     1       3.670   0.979  18.458  0.00  0.00    +0.000 OA
BRANCH  12  14
ATOM     14  N   UNL     1       2.094   2.598  17.935  0.00  0.00    +0.000 NA
BRANCH  14  15
ATOM     15  C   UNL     1       1.354   3.122  19.097  0.00  0.00    +0.000 C 
BRANCH  15  16
ATOM     16  C   UNL     1       1.611   4.632  19.247  0.00  0.00    +0.000 A 
ATOM     17  C   UNL     1       1.920   5.418  18.109  0.00  0.00    +0.000 A 
ATOM     18  C   UNL     1       2.161   6.788  18.225  0.00  0.00    +0.000 A 
ATOM     19  C   UNL     1       2.089   7.402  19.489  0.00  0.00    +0.000 A 
ATOM     20  F   UNL     1       2.333   8.721  19.574  0.00  0.00    +0.000 F 
ATOM     21  C   UNL     1       1.761   6.675  20.596  0.00  0.00    +0.000 A 
ATOM     22  C   UNL     1       1.516   5.303  20.492  0.00  0.00    +0.000 A 
ENDBRANCH  15  16
ENDBRANCH  14  15
ENDBRANCH  12  14
ENDBRANCH   3  12
BRANCH   4  23
ATOM     23  O   UNL     1       4.868   3.229  20.415  0.00  0.00    +0.000 OA
ATOM     24  H   UNL     1       5.718   3.429  20.892  0.00  0.00    +0.000 HD
ENDBRANCH   4  23
BRANCH   7  25
ATOM     25  C   UNL     1       7.632   5.964  17.590  0.00  0.00    +0.000 C 
BRANCH  25  26
ATOM     26  C   UNL     1       7.402   7.496  17.696  0.00  0.00    +0.000 C 
BRANCH  26  27
ATOM     27  C   UNL     1       8.285   8.442  18.520  0.00  0.00    +0.000 C 
BRANCH  27  28
ATOM     28  N   UNL     1       8.310   9.779  17.875  0.00  0.00    +0.000 N 
ATOM     29  C   UNL     1       9.132  10.792  18.326  0.00  0.00    +0.000 C 
ATOM     30  O   UNL     1       9.917  10.655  19.254  0.00  0.00    +0.000 OA
ATOM     31  H   UNL     1       7.649   9.981  17.141  0.00  0.00    +0.000 HD
BRANCH  29  32
ATOM     32  C   UNL     1       9.035  12.134  17.669  0.00  0.00    +0.000 C 
ATOM     33  C   UNL     1       7.796  12.841  17.178  0.00  0.00    +0.000 C 
ATOM     34  C   UNL     1       8.461  13.306  18.440  0.00  0.00    +0.000 C 
ENDBRANCH  29  32
ENDBRANCH  27  28
ENDBRANCH  26  27
ENDBRANCH  25  26
ENDBRANCH   7  25
TORSDOF 11
ENDMDL
MODEL 3
REMARK VINA RESULT:      -7.4      0.647      1.010
REMARK  Name = 
REMARK  14 active torsions:
REMARK  status: ('A' for Active; 'I' for Inactive)
REMARK    1  A    between atoms: C_1  and  C_2
REMARK    2  A    between atoms: C_2  and  C_3
REMARK    3  A    between atoms: C_2  and  C_4
REMARK    4  A    between atoms: C_2  and  C_5
REMARK    5  A    between atoms: C_7  and  C_8
REMARK    6  A    between atoms: C_8  and  N_10
REMARK    7  A    between atoms: N_10  and  C_11
REMARK    8  A    between atoms: C_11  and  C_12
REMARK    9  A    between atoms: C_19  and  O_20
REMARK   10  A    between atoms: N_23  and  C_24
REMARK   11  A    between atoms: C_24  and  C_25
REMARK   12  A    between atoms: C_25  and  C_26
REMARK   13  A    between atoms: C_26  and  N_27
REMARK   14  A    between atoms: C_28  and  C_30
REMARK                            x       y       z     vdW  Elec       q    Type
REMARK                         _______ _______ _______ _____ _____    ______ ____
ROOT
ATOM      1  C   UNL     1       2.288   4.992  19.518  0.00  0.00    +0.000 A 
ATOM      2  N   UNL     1       1.809   5.899  20.321  0.00  0.00    +0.000 NA
ATOM      3  C   UNL     1       1.814   7.245  19.978  0.00  0.00    +0.000 A 
ATOM      4  C   UNL     1       2.355   7.685  18.838  0.00  0.00    +0.000 A 
ATOM      5  C   UNL     1       2.980   6.670  17.963  0.00  0.00    +0.000 A 
ATOM      6  O   UNL     1       3.580   7.044  16.949  0.00  0.00    +0.000 OA
ATOM      7  N   UNL     1       2.903   5.333  18.323  0.00  0.00    +0.000 N 
ENDROOT
BRANCH   1   9
ATOM      8  C   UNL     1       3.562   2.984  20.441  0.00  0.00    +0.000 C 
ATOM      9  C   UNL     1       2.118   3.496  20.083  0.00  0.00    +0.000 C 
ATOM     10  C   UNL     1       1.375   2.491  19.160  0.00  0.00    +0.000 C 
ATOM     11  C   UNL     1       1.296   3.408  21.373  0.00  0.00    +0.000 C 
ENDBRANCH   1   9
BRANCH   3  12
ATOM     12  C   UNL     1       1.236   8.267  21.016  0.00  0.00    +0.000 C 
ATOM     13  O   UNL     1       1.878   8.513  22.037  0.00  0.00    +0.000 OA
BRANCH  12  14
ATOM     14  N   UNL     1       0.052   8.798  20.636  0.00  0.00    +0.000 NA
BRANCH  14  15
ATOM     15  C   UNL     1      -0.002  10.259  20.451  0.00  0.00    +0.000 C 
BRANCH  15  16
ATOM     16  C   UNL     1      -1.012  10.612  19.345  0.00  0.00    +0.000 A 
ATOM     17  C   UNL     1      -0.936   9.977  18.082  0.00  0.00    +0.000 A 
ATOM     18  C   UNL     1      -1.840  10.286  17.064  0.00  0.00    +0.000 A 
ATOM     19  C   UNL     1      -2.849  11.238  17.298  0.00  0.00    +0.000 A 
ATOM     20  F   UNL     1      -3.703  11.524  16.299  0.00  0.00    +0.000 F 
ATOM     21  C   UNL     1      -2.967  11.841  18.517  0.00  0.00    +0.000 A 
ATOM     22  C   UNL     1      -2.068  11.538  19.542  0.00  0.00    +0.000 A 
ENDBRANCH  15  16
ENDBRANCH  14  15
ENDBRANCH  12  14
ENDBRANCH   3  12
BRANCH   4  23
ATOM     23  O   UNL     1       2.461   9.006  18.450  0.00  0.00    +0.000 OA
ATOM     24  H   UNL     1       2.841   9.470  19.244  0.00  0.00    +0.000 HD
ENDBRANCH   4  23
BRANCH   7  25
ATOM     25  C   UNL     1       3.639   4.473  17.371  0.00  0.00    +0.000 C 
BRANCH  25  26
ATOM     26  C   UNL     1       5.059   3.983  17.764  0.00  0.00    +0.000 C 
BRANCH  26  27
ATOM     27  C   UNL     1       6.350   4.455  17.083  0.00  0.00    +0.000 C 
BRANCH  27  28
ATOM     28  N   UNL     1       6.530   3.719  15.807  0.00  0.00    +0.000 N 
ATOM     29  C   UNL     1       6.391   4.339  14.581  0.00  0.00    +0.000 C 
ATOM     30  O   UNL     1       6.149   5.532  14.456  0.00  0.00    +0.000 OA
ATOM     31  H   UNL     1       6.676   2.722  15.832  0.00  0.00    +0.000 HD
BRANCH  29  32
ATOM     32  C   UNL     1       6.510   3.505  13.343  0.00  0.00    +0.000 C 
ATOM     33  C   UNL     1       5.563   3.443  12.170  0.00  0.00    +0.000 C 
ATOM     34  C   UNL     1       6.870   4.165  12.027  0.00  0.00    +0.000 C 
ENDBRANCH  29  32
ENDBRANCH  27  28
ENDBRANCH  26  27
ENDBRANCH  25  26
ENDBRANCH   7  25
TORSDOF 11
ENDMDL
MODEL 4
REMARK VINA RESULT:      -7.3      2.915      8.274
REMARK  Name = 
REMARK  14 active torsions:
REMARK  status: ('A' for Active; 'I' for Inactive)
REMARK    1  A    between atoms: C_1  and  C_2
REMARK    2  A    between atoms: C_2  and  C_3
REMARK    3  A    between atoms: C_2  and  C_4
REMARK    4  A    between atoms: C_2  and  C_5
REMARK    5  A    between atoms: C_7  and  C_8
REMARK    6  A    between atoms: C_8  and  N_10
REMARK    7  A    between atoms: N_10  and  C_11
REMARK    8  A    between atoms: C_11  and  C_12
REMARK    9  A    between atoms: C_19  and  O_20
REMARK   10  A    between atoms: N_23  and  C_24
REMARK   11  A    between atoms: C_24  and  C_25
REMARK   12  A    between atoms: C_25  and  C_26
REMARK   13  A    between atoms: C_26  and  N_27
REMARK   14  A    between atoms: C_28  and  C_30
REMARK                            x       y       z     vdW  Elec       q    Type
REMARK                         _______ _______ _______ _____ _____    ______ ____
ROOT
ATOM      1  C   UNL     1       4.052   3.909  19.204  0.00  0.00    +0.000 A 
ATOM      2  N   UNL     1       5.323   3.873  18.920  0.00  0.00    +0.000 NA
ATOM      3  C   UNL     1       5.967   4.958  18.340  0.00  0.00    +0.000 A 
ATOM      4  C   UNL     1       5.311   6.070  17.994  0.00  0.00    +0.000 A 
ATOM      5  C   UNL     1       3.851   6.082  18.231  0.00  0.00    +0.000 A 
ATOM      6  O   UNL     1       3.189   7.049  17.835  0.00  0.00    +0.000 OA
ATOM      7  N   UNL     1       3.264   4.996  18.862  0.00  0.00    +0.000 N 
ENDROOT
BRANCH   1   9
ATOM      8  C   UNL     1       4.806   1.708  20.251  0.00  0.00    +0.000 C 
ATOM      9  C   UNL     1       3.531   2.574  19.934  0.00  0.00    +0.000 C 
ATOM     10  C   UNL     1       2.460   1.746  19.172  0.00  0.00    +0.000 C 
ATOM     11  C   UNL     1       2.837   2.830  21.276  0.00  0.00    +0.000 C 
ENDBRANCH   1   9
BRANCH   3  12
ATOM     12  C   UNL     1       7.493   4.817  18.014  0.00  0.00    +0.000 C 
ATOM     13  O   UNL     1       8.320   5.091  18.883  0.00  0.00    +0.000 OA
BRANCH  12  14
ATOM     14  N   UNL     1       7.728   4.370  16.760  0.00  0.00    +0.000 NA
BRANCH  14  15
ATOM     15  C   UNL     1       7.578   5.341  15.661  0.00  0.00    +0.000 C 
BRANCH  15  16
ATOM     16  C   UNL     1       6.848   4.684  14.476  0.00  0.00    +0.000 A 
ATOM     17  C   UNL     1       7.501   4.547  13.226  0.00  0.00    +0.000 A 
ATOM     18  C   UNL     1       6.857   3.958  12.137  0.00  0.00    +0.000 A 
ATOM     19  C   UNL     1       5.540   3.485  12.283  0.00  0.00    +0.000 A 
ATOM     20  F   UNL     1       4.938   2.930  11.217  0.00  0.00    +0.000 F 
ATOM     21  C   UNL     1       4.898   3.575  13.485  0.00  0.00    +0.000 A 
ATOM     22  C   UNL     1       5.535   4.161  14.581  0.00  0.00    +0.000 A 
ENDBRANCH  15  16
ENDBRANCH  14  15
ENDBRANCH  12  14
ENDBRANCH   3  12
BRANCH   4  23
ATOM     23  O   UNL     1       5.856   7.166  17.355  0.00  0.00    +0.000 OA
ATOM     24  H   UNL     1       6.779   7.235  17.722  0.00  0.00    +0.000 HD
ENDBRANCH   4  23
BRANCH   7  25
ATOM     25  C   UNL     1       1.796   5.152  18.953  0.00  0.00    +0.000 C 
BRANCH  25  26
ATOM     26  C   UNL     1       1.192   5.714  20.269  0.00  0.00    +0.000 C 
BRANCH  26  27
ATOM     27  C   UNL     1       1.778   6.900  21.046  0.00  0.00    +0.000 C 
BRANCH  27  28
ATOM     28  N   UNL     1       1.466   8.161  20.327  0.00  0.00    +0.000 N 
ATOM     29  C   UNL     1       0.955   9.265  20.979  0.00  0.00    +0.000 C 
ATOM     30  O   UNL     1       0.758   9.300  22.186  0.00  0.00    +0.000 OA
ATOM     31  H   UNL     1       1.551   8.187  19.323  0.00  0.00    +0.000 HD
BRANCH  29  32
ATOM     32  C   UNL     1       0.592  10.469  20.165  0.00  0.00    +0.000 C 
ATOM     33  C   UNL     1       0.363  10.549  18.676  0.00  0.00    +0.000 C 
ATOM     34  C   UNL     1      -0.811  10.602  19.608  0.00  0.00    +0.000 C 
ENDBRANCH  29  32
ENDBRANCH  27  28
ENDBRANCH  26  27
ENDBRANCH  25  26
ENDBRANCH   7  25
TORSDOF 11
ENDMDL
MODEL 5
REMARK VINA RESULT:      -7.3      4.203      6.985
REMARK  Name = 
REMARK  14 active torsions:
REMARK  status: ('A' for Active; 'I' for Inactive)
REMARK    1  A    between atoms: C_1  and  C_2
REMARK    2  A    between atoms: C_2  and  C_3
REMARK    3  A    between atoms: C_2  and  C_4
REMARK    4  A    between atoms: C_2  and  C_5
REMARK    5  A    between atoms: C_7  and  C_8
REMARK    6  A    between atoms: C_8  and  N_10
REMARK    7  A    between atoms: N_10  and  C_11
REMARK    8  A    between atoms: C_11  and  C_12
REMARK    9  A    between atoms: C_19  and  O_20
REMARK   10  A    between atoms: N_23  and  C_24
REMARK   11  A    between atoms: C_24  and  C_25
REMARK   12  A    between atoms: C_25  and  C_26
REMARK   13  A    between atoms: C_26  and  N_27
REMARK   14  A    between atoms: C_28  and  C_30
REMARK                            x       y       z     vdW  Elec       q    Type
REMARK                         _______ _______ _______ _____ _____    ______ ____
ROOT
ATOM      1  C   UNL     1       5.782   4.596  16.553  0.00  0.00    +0.000 A 
ATOM      2  N   UNL     1       4.896   3.651  16.692  0.00  0.00    +0.000 NA
ATOM      3  C   UNL     1       4.522   3.189  17.947  0.00  0.00    +0.000 A 
ATOM      4  C   UNL     1       5.086   3.646  19.070  0.00  0.00    +0.000 A 
ATOM      5  C   UNL     1       6.157   4.655  18.913  0.00  0.00    +0.000 A 
ATOM      6  O   UNL     1       6.774   5.031  19.916  0.00  0.00    +0.000 OA
ATOM      7  N   UNL     1       6.456   5.124  17.643  0.00  0.00    +0.000 N 
ENDROOT
BRANCH   1   9
ATOM      8  C   UNL     1       5.233   3.979  14.140  0.00  0.00    +0.000 C 
ATOM      9  C   UNL     1       6.010   5.026  15.020  0.00  0.00    +0.000 C 
ATOM     10  C   UNL     1       7.486   5.170  14.558  0.00  0.00    +0.000 C 
ATOM     11  C   UNL     1       5.433   6.401  14.667  0.00  0.00    +0.000 C 
ENDBRANCH   1   9
BRANCH   3  12
ATOM     12  C   UNL     1       3.465   2.033  18.018  0.00  0.00    +0.000 C 
ATOM     13  O   UNL     1       3.779   0.964  18.541  0.00  0.00    +0.000 OA
BRANCH  12  14
ATOM     14  N   UNL     1       2.270   2.375  17.486  0.00  0.00    +0.000 NA
BRANCH  14  15
ATOM     15  C   UNL     1       1.219   2.814  18.422  0.00  0.00    +0.000 C 
BRANCH  15  16
ATOM     16  C   UNL     1       1.518   4.240  18.918  0.00  0.00    +0.000 A 
ATOM     17  C   UNL     1       1.413   4.551  20.296  0.00  0.00    +0.000 A 
ATOM     18  C   UNL     1       1.676   5.839  20.765  0.00  0.00    +0.000 A 
ATOM     19  C   UNL     1       2.060   6.844  19.859  0.00  0.00    +0.000 A 
ATOM     20  F   UNL     1       2.300   8.078  20.335  0.00  0.00    +0.000 F 
ATOM     21  C   UNL     1       2.202   6.564  18.530  0.00  0.00    +0.000 A 
ATOM     22  C   UNL     1       1.942   5.278  18.050  0.00  0.00    +0.000 A 
ENDBRANCH  15  16
ENDBRANCH  14  15
ENDBRANCH  12  14
ENDBRANCH   3  12
BRANCH   4  23
ATOM     23  O   UNL     1       4.824   3.196  20.349  0.00  0.00    +0.000 OA
ATOM     24  H   UNL     1       3.841   3.041  20.362  0.00  0.00    +0.000 HD
ENDBRANCH   4  23
BRANCH   7  25
ATOM     25  C   UNL     1       7.591   6.071  17.671  0.00  0.00    +0.000 C 
BRANCH  25  26
ATOM     26  C   UNL     1       7.364   7.514  17.143  0.00  0.00    +0.000 C 
BRANCH  26  27
ATOM     27  C   UNL     1       7.316   8.759  18.038  0.00  0.00    +0.000 C 
BRANCH  27  28
ATOM     28  N   UNL     1       8.684   9.319  18.175  0.00  0.00    +0.000 N 
ATOM     29  C   UNL     1       8.954  10.654  17.949  0.00  0.00    +0.000 C 
ATOM     30  O   UNL     1       8.091  11.472  17.659  0.00  0.00    +0.000 OA
ATOM     31  H   UNL     1       9.454   8.693  18.356  0.00  0.00    +0.000 HD
BRANCH  29  32
ATOM     32  C   UNL     1      10.375  11.118  18.030  0.00  0.00    +0.000 C 
ATOM     33  C   UNL     1      10.883  12.527  18.210  0.00  0.00    +0.000 C 
ATOM     34  C   UNL     1      10.941  11.568  19.362  0.00  0.00    +0.000 C 
ENDBRANCH  29  32
ENDBRANCH  27  28
ENDBRANCH  26  27
ENDBRANCH  25  26
ENDBRANCH   7  25
TORSDOF 11
ENDMDL
MODEL 6
REMARK VINA RESULT:      -7.3      1.853      3.039
REMARK  Name = 
REMARK  14 active torsions:
REMARK  status: ('A' for Active; 'I' for Inactive)
REMARK    1  A    between atoms: C_1  and  C_2
REMARK    2  A    between atoms: C_2  and  C_3
REMARK    3  A    between atoms: C_2  and  C_4
REMARK    4  A    between atoms: C_2  and  C_5
REMARK    5  A    between atoms: C_7  and  C_8
REMARK    6  A    between atoms: C_8  and  N_10
REMARK    7  A    between atoms: N_10  and  C_11
REMARK    8  A    between atoms: C_11  and  C_12
REMARK    9  A    between atoms: C_19  and  O_20
REMARK   10  A    between atoms: N_23  and  C_24
REMARK   11  A    between atoms: C_24  and  C_25
REMARK   12  A    between atoms: C_25  and  C_26
REMARK   13  A    between atoms: C_26  and  N_27
REMARK   14  A    between atoms: C_28  and  C_30
REMARK                            x       y       z     vdW  Elec       q    Type
REMARK                         _______ _______ _______ _____ _____    ______ ____
ROOT
ATOM      1  C   UNL     1       2.872   5.005  18.471  0.00  0.00    +0.000 A 
ATOM      2  N   UNL     1       2.250   5.910  19.172  0.00  0.00    +0.000 NA
ATOM      3  C   UNL     1       2.339   7.259  18.853  0.00  0.00    +0.000 A 
ATOM      4  C   UNL     1       3.105   7.703  17.852  0.00  0.00    +0.000 A 
ATOM      5  C   UNL     1       3.883   6.688  17.109  0.00  0.00    +0.000 A 
ATOM      6  O   UNL     1       4.680   7.064  16.241  0.00  0.00    +0.000 OA
ATOM      7  N   UNL     1       3.719   5.350  17.429  0.00  0.00    +0.000 N 
ENDROOT
BRANCH   1   9
ATOM      8  C   UNL     1       3.739   3.121  19.956  0.00  0.00    +0.000 C 
ATOM      9  C   UNL     1       2.574   3.506  18.971  0.00  0.00    +0.000 C 
ATOM     10  C   UNL     1       2.393   2.433  17.862  0.00  0.00    +0.000 C 
ATOM     11  C   UNL     1       1.271   3.362  19.765  0.00  0.00    +0.000 C 
ENDBRANCH   1   9
BRANCH   3  12
ATOM     12  C   UNL     1       1.575   8.279  19.765  0.00  0.00    +0.000 C 
ATOM     13  O   UNL     1       1.521   8.077  20.978  0.00  0.00    +0.000 OA
BRANCH  12  14
ATOM     14  N   UNL     1       1.058   9.322  19.077  0.00  0.00    +0.000 NA
BRANCH  14  15
ATOM     15  C   UNL     1       0.173  10.241  19.815  0.00  0.00    +0.000 C 
BRANCH  15  16
ATOM     16  C   UNL     1      -1.054  10.595  18.956  0.00  0.00    +0.000 A 
ATOM     17  C   UNL     1      -2.001  11.539  19.421  0.00  0.00    +0.000 A 
ATOM     18  C   UNL     1      -3.122  11.871  18.659  0.00  0.00    +0.000 A 
ATOM     19  C   UNL     1      -3.312  11.264  17.404  0.00  0.00    +0.000 A 
ATOM     20  F   UNL     1      -4.404  11.594  16.692  0.00  0.00    +0.000 F 
ATOM     21  C   UNL     1      -2.398  10.376  16.916  0.00  0.00    +0.000 A 
ATOM     22  C   UNL     1      -1.272  10.038  17.670  0.00  0.00    +0.000 A 
ENDBRANCH  15  16
ENDBRANCH  14  15
ENDBRANCH  12  14
ENDBRANCH   3  12
BRANCH   4  23
ATOM     23  O   UNL     1       3.302   9.027  17.509  0.00  0.00    +0.000 OA
ATOM     24  H   UNL     1       3.240   9.039  16.516  0.00  0.00    +0.000 HD
ENDBRANCH   4  23
BRANCH   7  25
ATOM     25  C   UNL     1       4.623   4.489  16.635  0.00  0.00    +0.000 C 
BRANCH  25  26
ATOM     26  C   UNL     1       5.953   4.017  17.284  0.00  0.00    +0.000 C 
BRANCH  26  27
ATOM     27  C   UNL     1       7.336   4.560  16.901  0.00  0.00    +0.000 C 
BRANCH  27  28
ATOM     28  N   UNL     1       7.323   6.042  16.986  0.00  0.00    +0.000 N 
ATOM     29  C   UNL     1       7.764   6.713  18.109  0.00  0.00    +0.000 C 
ATOM     30  O   UNL     1       8.227   6.147  19.090  0.00  0.00    +0.000 OA
ATOM     31  H   UNL     1       6.904   6.572  16.238  0.00  0.00    +0.000 HD
BRANCH  29  32
ATOM     32  C   UNL     1       7.641   8.205  18.142  0.00  0.00    +0.000 C 
ATOM     33  C   UNL     1       8.593   9.202  18.756  0.00  0.00    +0.000 C 
ATOM     34  C   UNL     1       8.542   9.051  17.264  0.00  0.00    +0.000 C 
ENDBRANCH  29  32
ENDBRANCH  27  28
ENDBRANCH  26  27
ENDBRANCH  25  26
ENDBRANCH   7  25
TORSDOF 11
ENDMDL
MODEL 7
REMARK VINA RESULT:      -7.3      1.583      1.997
REMARK  Name = 
REMARK  14 active torsions:
REMARK  status: ('A' for Active; 'I' for Inactive)
REMARK    1  A    between atoms: C_1  and  C_2
REMARK    2  A    between atoms: C_2  and  C_3
REMARK    3  A    between atoms: C_2  and  C_4
REMARK    4  A    between atoms: C_2  and  C_5
REMARK    5  A    between atoms: C_7  and  C_8
REMARK    6  A    between atoms: C_8  and  N_10
REMARK    7  A    between atoms: N_10  and  C_11
REMARK    8  A    between atoms: C_11  and  C_12
REMARK    9  A    between atoms: C_19  and  O_20
REMARK   10  A    between atoms: N_23  and  C_24
REMARK   11  A    between atoms: C_24  and  C_25
REMARK   12  A    between atoms: C_25  and  C_26
REMARK   13  A    between atoms: C_26  and  N_27
REMARK   14  A    between atoms: C_28  and  C_30
REMARK                            x       y       z     vdW  Elec       q    Type
REMARK                         _______ _______ _______ _____ _____    ______ ____
ROOT
ATOM      1  C   UNL     1       2.782   4.945  19.441  0.00  0.00    +0.000 A 
ATOM      2  N   UNL     1       2.175   5.896  20.094  0.00  0.00    +0.000 NA
ATOM      3  C   UNL     1       2.152   7.200  19.618  0.00  0.00    +0.000 A 
ATOM      4  C   UNL     1       2.792   7.560  18.501  0.00  0.00    +0.000 A 
ATOM      5  C   UNL     1       3.557   6.503  17.803  0.00  0.00    +0.000 A 
ATOM      6  O   UNL     1       4.245   6.812  16.824  0.00  0.00    +0.000 OA
ATOM      7  N   UNL     1       3.505   5.205  18.288  0.00  0.00    +0.000 N 
ENDROOT
BRANCH   1   9
ATOM      8  C   UNL     1       1.913   3.745  21.518  0.00  0.00    +0.000 C 
ATOM      9  C   UNL     1       2.623   3.503  20.135  0.00  0.00    +0.000 C 
ATOM     10  C   UNL     1       3.925   2.673  20.305  0.00  0.00    +0.000 C 
ATOM     11  C   UNL     1       1.730   2.533  19.355  0.00  0.00    +0.000 C 
ENDBRANCH   1   9
BRANCH   3  12
ATOM     12  C   UNL     1       1.417   8.282  20.481  0.00  0.00    +0.000 C 
ATOM     13  O   UNL     1       1.392   8.158  21.705  0.00  0.00    +0.000 OA
BRANCH  12  14
ATOM     14  N   UNL     1       0.888   9.282  19.740  0.00  0.00    +0.000 NA
BRANCH  14  15
ATOM     15  C   UNL     1      -0.352   9.905  20.238  0.00  0.00    +0.000 C 
BRANCH  15  16
ATOM     16  C   UNL     1      -0.380  11.396  19.862  0.00  0.00    +0.000 A 
ATOM     17  C   UNL     1      -0.102  12.383  20.841  0.00  0.00    +0.000 A 
ATOM     18  C   UNL     1      -0.126  13.741  20.521  0.00  0.00    +0.000 A 
ATOM     19  C   UNL     1      -0.422  14.139  19.205  0.00  0.00    +0.000 A 
ATOM     20  F   UNL     1      -0.447  15.454  18.924  0.00  0.00    +0.000 F 
ATOM     21  C   UNL     1      -0.660  13.210  18.234  0.00  0.00    +0.000 A 
ATOM     22  C   UNL     1      -0.638  11.847  18.543  0.00  0.00    +0.000 A 
ENDBRANCH  15  16
ENDBRANCH  14  15
ENDBRANCH  12  14
ENDBRANCH   3  12
BRANCH   4  23
ATOM     23  O   UNL     1       2.877   8.841  17.993  0.00  0.00    +0.000 OA
ATOM     24  H   UNL     1       3.340   9.361  18.704  0.00  0.00    +0.000 HD
ENDBRANCH   4  23
BRANCH   7  25
ATOM     25  C   UNL     1       4.381   4.302  17.510  0.00  0.00    +0.000 C 
BRANCH  25  26
ATOM     26  C   UNL     1       5.892   4.250  17.866  0.00  0.00    +0.000 C 
BRANCH  26  27
ATOM     27  C   UNL     1       7.018   4.600  16.885  0.00  0.00    +0.000 C 
BRANCH  27  28
ATOM     28  N   UNL     1       6.874   3.779  15.657  0.00  0.00    +0.000 N 
ATOM     29  C   UNL     1       6.394   4.310  14.476  0.00  0.00    +0.000 C 
ATOM     30  O   UNL     1       6.093   5.488  14.344  0.00  0.00    +0.000 OA
ATOM     31  H   UNL     1       7.051   2.787  15.706  0.00  0.00    +0.000 HD
BRANCH  29  32
ATOM     32  C   UNL     1       6.204   3.393  13.307  0.00  0.00    +0.000 C 
ATOM     33  C   UNL     1       5.357   3.616  12.080  0.00  0.00    +0.000 C 
ATOM     34  C   UNL     1       6.849   3.730  11.978  0.00  0.00    +0.000 C 
ENDBRANCH  29  32
ENDBRANCH  27  28
ENDBRANCH  26  27
ENDBRANCH  25  26
ENDBRANCH   7  25
TORSDOF 11
ENDMDL
MODEL 8
REMARK VINA RESULT:      -7.2      3.631      9.419
REMARK  Name = 
REMARK  14 active torsions:
REMARK  status: ('A' for Active; 'I' for Inactive)
REMARK    1  A    between atoms: C_1  and  C_2
REMARK    2  A    between atoms: C_2  and  C_3
REMARK    3  A    between atoms: C_2  and  C_4
REMARK    4  A    between atoms: C_2  and  C_5
REMARK    5  A    between atoms: C_7  and  C_8
REMARK    6  A    between atoms: C_8  and  N_10
REMARK    7  A    between atoms: N_10  and  C_11
REMARK    8  A    between atoms: C_11  and  C_12
REMARK    9  A    between atoms: C_19  and  O_20
REMARK   10  A    between atoms: N_23  and  C_24
REMARK   11  A    between atoms: C_24  and  C_25
REMARK   12  A    between atoms: C_25  and  C_26
REMARK   13  A    between atoms: C_26  and  N_27
REMARK   14  A    between atoms: C_28  and  C_30
REMARK                            x       y       z     vdW  Elec       q    Type
REMARK                         _______ _______ _______ _____ _____    ______ ____
ROOT
ATOM      1  C   UNL     1      -0.703  10.726  19.633  0.00  0.00    +0.000 A 
ATOM      2  N   UNL     1       0.172   9.949  19.059  0.00  0.00    +0.000 NA
ATOM      3  C   UNL     1       1.034   9.155  19.805  0.00  0.00    +0.000 A 
ATOM      4  C   UNL     1       1.050   9.186  21.141  0.00  0.00    +0.000 A 
ATOM      5  C   UNL     1       0.122  10.133  21.796  0.00  0.00    +0.000 A 
ATOM      6  O   UNL     1       0.174  10.268  23.024  0.00  0.00    +0.000 OA
ATOM      7  N   UNL     1      -0.756  10.864  21.011  0.00  0.00    +0.000 N 
ENDROOT
BRANCH   1   9
ATOM      8  C   UNL     1      -0.882  12.817  18.183  0.00  0.00    +0.000 C 
ATOM      9  C   UNL     1      -1.644  11.500  18.583  0.00  0.00    +0.000 C 
ATOM     10  C   UNL     1      -3.093  11.804  19.051  0.00  0.00    +0.000 C 
ATOM     11  C   UNL     1      -1.887  10.729  17.281  0.00  0.00    +0.000 C 
ENDBRANCH   1   9
BRANCH   3  12
ATOM     12  C   UNL     1       2.067   8.268  19.030  0.00  0.00    +0.000 C 
ATOM     13  O   UNL     1       2.626   8.728  18.035  0.00  0.00    +0.000 OA
BRANCH  12  14
ATOM     14  N   UNL     1       2.244   7.049  19.589  0.00  0.00    +0.000 NA
BRANCH  14  15
ATOM     15  C   UNL     1       2.237   5.887  18.682  0.00  0.00    +0.000 C 
BRANCH  15  16
ATOM     16  C   UNL     1       3.680   5.450  18.375  0.00  0.00    +0.000 A 
ATOM     17  C   UNL     1       4.666   5.483  19.393  0.00  0.00    +0.000 A 
ATOM     18  C   UNL     1       5.981   5.094  19.134  0.00  0.00    +0.000 A 
ATOM     19  C   UNL     1       6.334   4.654  17.845  0.00  0.00    +0.000 A 
ATOM     20  F   UNL     1       7.609   4.293  17.620  0.00  0.00    +0.000 F 
ATOM     21  C   UNL     1       5.397   4.581  16.855  0.00  0.00    +0.000 A 
ATOM     22  C   UNL     1       4.078   4.966  17.104  0.00  0.00    +0.000 A 
ENDBRANCH  15  16
ENDBRANCH  14  15
ENDBRANCH  12  14
ENDBRANCH   3  12
BRANCH   4  23
ATOM     23  O   UNL     1       1.916   8.483  21.957  0.00  0.00    +0.000 OA
ATOM     24  H   UNL     1       1.444   7.626  22.140  0.00  0.00    +0.000 HD
ENDBRANCH   4  23
BRANCH   7  25
ATOM     25  C   UNL     1      -1.557  11.804  21.826  0.00  0.00    +0.000 C 
BRANCH  25  26
ATOM     26  C   UNL     1      -1.258  13.323  21.708  0.00  0.00    +0.000 C 
BRANCH  26  27
ATOM     27  C   UNL     1      -0.027  14.007  22.318  0.00  0.00    +0.000 C 
BRANCH  27  28
ATOM     28  N   UNL     1       0.820  14.555  21.230  0.00  0.00    +0.000 N 
ATOM     29  C   UNL     1       1.871  13.840  20.692  0.00  0.00    +0.000 C 
ATOM     30  O   UNL     1       2.156  12.702  21.040  0.00  0.00    +0.000 OA
ATOM     31  H   UNL     1       0.679  15.508  20.932  0.00  0.00    +0.000 HD
BRANCH  29  32
ATOM     32  C   UNL     1       2.725  14.500  19.654  0.00  0.00    +0.000 C 
ATOM     33  C   UNL     1       2.997  14.038  18.244  0.00  0.00    +0.000 C 
ATOM     34  C   UNL     1       2.071  15.195  18.477  0.00  0.00    +0.000 C 
ENDBRANCH  29  32
ENDBRANCH  27  28
ENDBRANCH  26  27
ENDBRANCH  25  26
ENDBRANCH   7  25
TORSDOF 11
ENDMDL
MODEL 9
REMARK VINA RESULT:      -7.2      4.108     10.370
REMARK  Name = 
REMARK  14 active torsions:
REMARK  status: ('A' for Active; 'I' for Inactive)
REMARK    1  A    between atoms: C_1  and  C_2
REMARK    2  A    between atoms: C_2  and  C_3
REMARK    3  A    between atoms: C_2  and  C_4
REMARK    4  A    between atoms: C_2  and  C_5
REMARK    5  A    between atoms: C_7  and  C_8
REMARK    6  A    between atoms: C_8  and  N_10
REMARK    7  A    between atoms: N_10  and  C_11
REMARK    8  A    between atoms: C_11  and  C_12
REMARK    9  A    between atoms: C_19  and  O_20
REMARK   10  A    between atoms: N_23  and  C_24
REMARK   11  A    between atoms: C_24  and  C_25
REMARK   12  A    between atoms: C_25  and  C_26
REMARK   13  A    between atoms: C_26  and  N_27
REMARK   14  A    between atoms: C_28  and  C_30
REMARK                            x       y       z     vdW  Elec       q    Type
REMARK                         _______ _______ _______ _____ _____    ______ ____
ROOT
ATOM      1  C   UNL     1      -0.995  10.817  19.652  0.00  0.00    +0.000 A 
ATOM      2  N   UNL     1      -0.165   9.826  19.493  0.00  0.00    +0.000 NA
ATOM      3  C   UNL     1       0.550   9.302  20.561  0.00  0.00    +0.000 A 
ATOM      4  C   UNL     1       0.467   9.817  21.792  0.00  0.00    +0.000 A 
ATOM      5  C   UNL     1      -0.407  10.998  21.961  0.00  0.00    +0.000 A 
ATOM      6  O   UNL     1      -0.436  11.568  23.059  0.00  0.00    +0.000 OA
ATOM      7  N   UNL     1      -1.141  11.451  20.876  0.00  0.00    +0.000 N 
ENDROOT
BRANCH   1   9
ATOM      8  C   UNL     1      -1.064  12.512  17.747  0.00  0.00    +0.000 C 
ATOM      9  C   UNL     1      -1.767  11.217  18.299  0.00  0.00    +0.000 C 
ATOM     10  C   UNL     1      -3.304  11.414  18.415  0.00  0.00    +0.000 C 
ATOM     11  C   UNL     1      -1.666  10.164  17.191  0.00  0.00    +0.000 C 
ENDBRANCH   1   9
BRANCH   3  12
ATOM     12  C   UNL     1       1.544   8.125  20.272  0.00  0.00    +0.000 C 
ATOM     13  O   UNL     1       1.953   7.440  21.209  0.00  0.00    +0.000 OA
BRANCH  12  14
ATOM     14  N   UNL     1       1.831   7.984  18.958  0.00  0.00    +0.000 NA
BRANCH  14  15
ATOM     15  C   UNL     1       3.138   7.396  18.615  0.00  0.00    +0.000 C 
BRANCH  15  16
ATOM     16  C   UNL     1       3.014   5.867  18.500  0.00  0.00    +0.000 A 
ATOM     17  C   UNL     1       4.017   5.028  19.045  0.00  0.00    +0.000 A 
ATOM     18  C   UNL     1       3.925   3.639  18.949  0.00  0.00    +0.000 A 
ATOM     19  C   UNL     1       2.816   3.059  18.306  0.00  0.00    +0.000 A 
ATOM     20  F   UNL     1       2.755   1.719  18.219  0.00  0.00    +0.000 F 
ATOM     21  C   UNL     1       1.818   3.842  17.801  0.00  0.00    +0.000 A 
ATOM     22  C   UNL     1       1.900   5.234  17.894  0.00  0.00    +0.000 A 
ENDBRANCH  15  16
ENDBRANCH  14  15
ENDBRANCH  12  14
ENDBRANCH   3  12
BRANCH   4  23
ATOM     23  O   UNL     1       1.189   9.402  22.894  0.00  0.00    +0.000 OA
ATOM     24  H   UNL     1       0.781   8.530  23.145  0.00  0.00    +0.000 HD
ENDBRANCH   4  23
BRANCH   7  25
ATOM     25  C   UNL     1      -1.900  12.676  21.210  0.00  0.00    +0.000 C 
BRANCH  25  26
ATOM     26  C   UNL     1      -3.291  12.522  21.884  0.00  0.00    +0.000 C 
BRANCH  26  27
ATOM     27  C   UNL     1      -4.457  13.498  21.680  0.00  0.00    +0.000 C 
BRANCH  27  28
ATOM     28  N   UNL     1      -5.376  12.958  20.649  0.00  0.00    +0.000 N 
ATOM     29  C   UNL     1      -6.449  12.152  20.976  0.00  0.00    +0.000 C 
ATOM     30  O   UNL     1      -6.740  11.859  22.127  0.00  0.00    +0.000 OA
ATOM     31  H   UNL     1      -5.166  13.113  19.675  0.00  0.00    +0.000 HD
BRANCH  29  32
ATOM     32  C   UNL     1      -7.279  11.584  19.866  0.00  0.00    +0.000 C 
ATOM     33  C   UNL     1      -6.995  11.613  18.385  0.00  0.00    +0.000 C 
ATOM     34  C   UNL     1      -6.812  10.334  19.147  0.00  0.00    +0.000 C 
ENDBRANCH  29  32
ENDBRANCH  27  28
ENDBRANCH  26  27
ENDBRANCH  25  26
ENDBRANCH   7  25
TORSDOF 11
ENDMDL
