MODEL 1
REMARK VINA RESULT:      -8.4      0.000      0.000
REMARK  Name = 
REMARK  7 active torsions:
REMARK  status: ('A' for Active; 'I' for Inactive)
REMARK    1  A    between atoms: C_1  and  O_2
REMARK    2  A    between atoms: O_2  and  C_3
REMARK    3  A    between atoms: C_8  and  C_9
REMARK    4  A    between atoms: C_12  and  C_13
REMARK    5  A    between atoms: N_15  and  N_16
REMARK    6  A    between atoms: N_20  and  C_21
REMARK    7  A    between atoms: C_28  and  C_29
REMARK                            x       y       z     vdW  Elec       q    Type
REMARK                         _______ _______ _______ _____ _____    ______ ____
ROOT
ATOM      1  C   UNL     1       0.291  10.184  20.450  0.00  0.00    +0.000 C 
ATOM      2  O   UNL     1       0.618  10.853  21.423  0.00  0.00    +0.000 OA
ATOM      3  N   UNL     1      -0.852  10.391  19.679  0.00  0.00    +0.000 N 
ATOM      4  H   UNL     1      -1.047   9.748  18.910  0.00  0.00    +0.000 HD
ENDROOT
BRANCH   3   5
ATOM      5  N   UNL     1      -1.777  11.412  19.888  0.00  0.00    +0.000 NA
ATOM      6  C   UNL     1      -2.822  11.356  19.105  0.00  0.00    +0.000 C 
ATOM      7  C   UNL     1      -2.970  10.400  17.921  0.00  0.00    +0.000 C 
ATOM      8  O   UNL     1      -2.329   9.380  17.782  0.00  0.00    +0.000 OA
ATOM      9  N   UNL     1      -3.949  10.913  17.104  0.00  0.00    +0.000 N 
ATOM     10  C   UNL     1      -3.559  11.249  15.749  0.00  0.00    +0.000 C 
ATOM     11  C   UNL     1      -4.672  11.859  17.843  0.00  0.00    +0.000 A 
ATOM     12  C   UNL     1      -5.931  12.324  17.516  0.00  0.00    +0.000 A 
ATOM     13  C   UNL     1      -6.545  13.186  18.422  0.00  0.00    +0.000 A 
ATOM     14  C   UNL     1      -5.863  13.611  19.581  0.00  0.00    +0.000 A 
ATOM     15  C   UNL     1      -4.581  13.127  19.897  0.00  0.00    +0.000 A 
ATOM     16  C   UNL     1      -4.026  12.198  19.040  0.00  0.00    +0.000 A 
ENDBRANCH   3   5
BRANCH   1  20
ATOM     17  C   UNL     1       2.375   6.575  19.322  0.00  0.00    +0.000 A 
ATOM     18  C   UNL     1       1.891   6.726  20.613  0.00  0.00    +0.000 A 
ATOM     19  C   UNL     1       1.261   7.934  20.979  0.00  0.00    +0.000 A 
ATOM     20  C   UNL     1       1.132   8.986  20.060  0.00  0.00    +0.000 A 
ATOM     21  C   UNL     1       1.794   8.813  18.847  0.00  0.00    +0.000 A 
ATOM     22  C   UNL     1       1.958   9.843  17.783  0.00  0.00    +0.000 C 
ATOM     23  N   UNL     1       2.371   7.635  18.482  0.00  0.00    +0.000 NA
BRANCH  17  29
ATOM     24  C   UNL     1       4.133   4.744  18.935  0.00  0.00    +0.000 A 
ATOM     25  C   UNL     1       4.421   3.445  18.472  0.00  0.00    +0.000 A 
ATOM     26  C   UNL     1       3.498   2.727  17.713  0.00  0.00    +0.000 A 
ATOM     27  C   UNL     1       2.279   3.302  17.397  0.00  0.00    +0.000 A 
ATOM     28  C   UNL     1       1.972   4.576  17.880  0.00  0.00    +0.000 A 
ATOM     29  C   UNL     1       2.868   5.322  18.688  0.00  0.00    +0.000 A 
BRANCH  24  31
ATOM     30  C   UNL     1       6.378   5.427  19.251  0.00  0.00    +0.000 C 
ATOM     31  O   UNL     1       5.028   5.444  19.711  0.00  0.00    +0.000 OA
ENDBRANCH  24  31
ENDBRANCH  17  29
ENDBRANCH   1  20
TORSDOF 4
ENDMDL
MODEL 2
REMARK VINA RESULT:      -8.2      2.591      3.559
REMARK  Name = 
REMARK  7 active torsions:
REMARK  status: ('A' for Active; 'I' for Inactive)
REMARK    1  A    between atoms: C_1  and  O_2
REMARK    2  A    between atoms: O_2  and  C_3
REMARK    3  A    between atoms: C_8  and  C_9
REMARK    4  A    between atoms: C_12  and  C_13
REMARK    5  A    between atoms: N_15  and  N_16
REMARK    6  A    between atoms: N_20  and  C_21
REMARK    7  A    between atoms: C_28  and  C_29
REMARK                            x       y       z     vdW  Elec       q    Type
REMARK                         _______ _______ _______ _____ _____    ______ ____
ROOT
ATOM      1  C   UNL     1       1.278   7.930  20.764  0.00  0.00    +0.000 C 
ATOM      2  O   UNL     1       0.560   7.212  21.448  0.00  0.00    +0.000 OA
ATOM      3  N   UNL     1       1.336   9.321  20.844  0.00  0.00    +0.000 N 
ATOM      4  H   UNL     1       1.946   9.825  20.198  0.00  0.00    +0.000 HD
ENDROOT
BRANCH   3   5
ATOM      5  N   UNL     1       0.602  10.096  21.740  0.00  0.00    +0.000 NA
ATOM      6  C   UNL     1      -0.348  10.800  21.185  0.00  0.00    +0.000 C 
ATOM      7  C   UNL     1      -0.549  10.950  19.677  0.00  0.00    +0.000 C 
ATOM      8  O   UNL     1      -0.100  10.188  18.848  0.00  0.00    +0.000 OA
ATOM      9  N   UNL     1      -1.326  12.068  19.480  0.00  0.00    +0.000 N 
ATOM     10  C   UNL     1      -0.742  13.139  18.695  0.00  0.00    +0.000 C 
ATOM     11  C   UNL     1      -1.931  12.391  20.702  0.00  0.00    +0.000 A 
ATOM     12  C   UNL     1      -3.040  13.202  20.845  0.00  0.00    +0.000 A 
ATOM     13  C   UNL     1      -3.572  13.330  22.126  0.00  0.00    +0.000 A 
ATOM     14  C   UNL     1      -2.946  12.709  23.227  0.00  0.00    +0.000 A 
ATOM     15  C   UNL     1      -1.816  11.888  23.061  0.00  0.00    +0.000 A 
ATOM     16  C   UNL     1      -1.360  11.691  21.774  0.00  0.00    +0.000 A 
ENDBRANCH   3   5
BRANCH   1  20
ATOM     17  C   UNL     1       4.000   6.374  17.795  0.00  0.00    +0.000 A 
ATOM     18  C   UNL     1       3.403   7.613  17.613  0.00  0.00    +0.000 A 
ATOM     19  C   UNL     1       2.475   8.080  18.566  0.00  0.00    +0.000 A 
ATOM     20  C   UNL     1       2.138   7.304  19.686  0.00  0.00    +0.000 A 
ATOM     21  C   UNL     1       2.653   6.010  19.700  0.00  0.00    +0.000 A 
ATOM     22  C   UNL     1       2.306   4.939  20.675  0.00  0.00    +0.000 C 
ATOM     23  N   UNL     1       3.575   5.572  18.798  0.00  0.00    +0.000 NA
BRANCH  17  29
ATOM     24  C   UNL     1       6.339   5.331  17.617  0.00  0.00    +0.000 A 
ATOM     25  C   UNL     1       7.266   4.603  16.844  0.00  0.00    +0.000 A 
ATOM     26  C   UNL     1       7.060   4.388  15.483  0.00  0.00    +0.000 A 
ATOM     27  C   UNL     1       5.931   4.906  14.872  0.00  0.00    +0.000 A 
ATOM     28  C   UNL     1       4.991   5.599  15.637  0.00  0.00    +0.000 A 
ATOM     29  C   UNL     1       5.144   5.806  17.032  0.00  0.00    +0.000 A 
BRANCH  24  31
ATOM     30  C   UNL     1       7.865   5.779  19.371  0.00  0.00    +0.000 C 
ATOM     31  O   UNL     1       6.522   5.520  18.967  0.00  0.00    +0.000 OA
ENDBRANCH  24  31
ENDBRANCH  17  29
ENDBRANCH   1  20
TORSDOF 4
ENDMDL
MODEL 3
REMARK VINA RESULT:      -8.1      2.971      9.570
REMARK  Name = 
REMARK  7 active torsions:
REMARK  status: ('A' for Active; 'I' for Inactive)
REMARK    1  A    between atoms: C_1  and  O_2
REMARK    2  A    between atoms: O_2  and  C_3
REMARK    3  A    between atoms: C_8  and  C_9
REMARK    4  A    between atoms: C_12  and  C_13
REMARK    5  A    between atoms: N_15  and  N_16
REMARK    6  A    between atoms: N_20  and  C_21
REMARK    7  A    between atoms: C_28  and  C_29
REMARK                            x       y       z     vdW  Elec       q    Type
REMARK                         _______ _______ _______ _____ _____    ______ ____
ROOT
ATOM      1  C   UNL     1       1.469   8.893  19.395  0.00  0.00    +0.000 C 
ATOM      2  O   UNL     1       1.685   9.359  18.284  0.00  0.00    +0.000 OA
ATOM      3  N   UNL     1       1.969   7.681  19.871  0.00  0.00    +0.000 N 
ATOM      4  H   UNL     1       1.694   7.369  20.804  0.00  0.00    +0.000 HD
ENDROOT
BRANCH   3   5
ATOM      5  N   UNL     1       2.815   6.835  19.156  0.00  0.00    +0.000 NA
ATOM      6  C   UNL     1       2.538   5.565  19.288  0.00  0.00    +0.000 C 
ATOM      7  C   UNL     1       1.521   4.996  20.276  0.00  0.00    +0.000 C 
ATOM      8  O   UNL     1       0.628   5.639  20.785  0.00  0.00    +0.000 OA
ATOM      9  N   UNL     1       1.813   3.663  20.438  0.00  0.00    +0.000 N 
ATOM     10  C   UNL     1       2.155   3.226  21.779  0.00  0.00    +0.000 C 
ATOM     11  C   UNL     1       2.646   3.274  19.380  0.00  0.00    +0.000 A 
ATOM     12  C   UNL     1       2.862   1.969  18.981  0.00  0.00    +0.000 A 
ATOM     13  C   UNL     1       3.637   1.773  17.842  0.00  0.00    +0.000 A 
ATOM     14  C   UNL     1       4.228   2.870  17.180  0.00  0.00    +0.000 A 
ATOM     15  C   UNL     1       3.997   4.192  17.601  0.00  0.00    +0.000 A 
ATOM     16  C   UNL     1       3.147   4.375  18.672  0.00  0.00    +0.000 A 
ENDBRANCH   3   5
BRANCH   1  20
ATOM     17  C   UNL     1      -0.907  11.186  22.177  0.00  0.00    +0.000 A 
ATOM     18  C   UNL     1      -0.027  10.219  22.643  0.00  0.00    +0.000 A 
ATOM     19  C   UNL     1       0.700   9.443  21.717  0.00  0.00    +0.000 A 
ATOM     20  C   UNL     1       0.535   9.625  20.336  0.00  0.00    +0.000 A 
ATOM     21  C   UNL     1      -0.488  10.493  19.960  0.00  0.00    +0.000 A 
ATOM     22  C   UNL     1      -0.978  10.721  18.572  0.00  0.00    +0.000 C 
ATOM     23  N   UNL     1      -1.165  11.267  20.853  0.00  0.00    +0.000 NA
BRANCH  17  29
ATOM     24  C   UNL     1      -1.095  13.545  23.172  0.00  0.00    +0.000 A 
ATOM     25  C   UNL     1      -1.916  14.536  23.745  0.00  0.00    +0.000 A 
ATOM     26  C   UNL     1      -3.205  14.242  24.186  0.00  0.00    +0.000 A 
ATOM     27  C   UNL     1      -3.688  12.949  24.071  0.00  0.00    +0.000 A 
ATOM     28  C   UNL     1      -2.893  11.968  23.473  0.00  0.00    +0.000 A 
ATOM     29  C   UNL     1      -1.592  12.237  22.977  0.00  0.00    +0.000 A 
BRANCH  24  31
ATOM     30  C   UNL     1       0.211  14.651  21.535  0.00  0.00    +0.000 C 
ATOM     31  O   UNL     1       0.166  13.838  22.707  0.00  0.00    +0.000 OA
ENDBRANCH  24  31
ENDBRANCH  17  29
ENDBRANCH   1  20
TORSDOF 4
ENDMDL
MODEL 4
REMARK VINA RESULT:      -8.1      1.457      2.437
REMARK  Name = 
REMARK  7 active torsions:
REMARK  status: ('A' for Active; 'I' for Inactive)
REMARK    1  A    between atoms: C_1  and  O_2
REMARK    2  A    between atoms: O_2  and  C_3
REMARK    3  A    between atoms: C_8  and  C_9
REMARK    4  A    between atoms: C_12  and  C_13
REMARK    5  A    between atoms: N_15  and  N_16
REMARK    6  A    between atoms: N_20  and  C_21
REMARK    7  A    between atoms: C_28  and  C_29
REMARK                            x       y       z     vdW  Elec       q    Type
REMARK                         _______ _______ _______ _____ _____    ______ ____
ROOT
ATOM      1  C   UNL     1       0.815   9.691  19.698  0.00  0.00    +0.000 C 
ATOM      2  O   UNL     1       1.047  10.050  20.846  0.00  0.00    +0.000 OA
ATOM      3  N   UNL     1      -0.257  10.125  18.920  0.00  0.00    +0.000 N 
ATOM      4  H   UNL     1      -0.376   9.731  17.986  0.00  0.00    +0.000 HD
ENDROOT
BRANCH   3   5
ATOM      5  N   UNL     1      -1.210  11.057  19.329  0.00  0.00    +0.000 NA
ATOM      6  C   UNL     1      -2.322  11.022  18.644  0.00  0.00    +0.000 C 
ATOM      7  C   UNL     1      -2.535  10.195  17.377  0.00  0.00    +0.000 C 
ATOM      8  O   UNL     1      -1.859   9.239  17.063  0.00  0.00    +0.000 OA
ATOM      9  N   UNL     1      -3.615  10.732  16.717  0.00  0.00    +0.000 N 
ATOM     10  C   UNL     1      -3.378  11.239  15.379  0.00  0.00    +0.000 C 
ATOM     11  C   UNL     1      -4.310  11.545  17.623  0.00  0.00    +0.000 A 
ATOM     12  C   UNL     1      -5.618  11.963  17.469  0.00  0.00    +0.000 A 
ATOM     13  C   UNL     1      -6.184  12.679  18.520  0.00  0.00    +0.000 A 
ATOM     14  C   UNL     1      -5.415  13.016  19.653  0.00  0.00    +0.000 A 
ATOM     15  C   UNL     1      -4.084  12.582  19.792  0.00  0.00    +0.000 A 
ATOM     16  C   UNL     1      -3.569  11.790  18.787  0.00  0.00    +0.000 A 
ENDBRANCH   3   5
BRANCH   1  20
ATOM     17  C   UNL     1       3.620   6.935  17.916  0.00  0.00    +0.000 A 
ATOM     18  C   UNL     1       3.172   8.036  17.199  0.00  0.00    +0.000 A 
ATOM     19  C   UNL     1       2.215   8.894  17.778  0.00  0.00    +0.000 A 
ATOM     20  C   UNL     1       1.701   8.643  19.058  0.00  0.00    +0.000 A 
ATOM     21  C   UNL     1       2.077   7.430  19.632  0.00  0.00    +0.000 A 
ATOM     22  C   UNL     1       1.535   6.852  20.893  0.00  0.00    +0.000 C 
ATOM     23  N   UNL     1       3.027   6.619  19.089  0.00  0.00    +0.000 NA
BRANCH  17  29
ATOM     24  C   UNL     1       4.636   4.732  17.076  0.00  0.00    +0.000 A 
ATOM     25  C   UNL     1       5.762   4.055  16.567  0.00  0.00    +0.000 A 
ATOM     26  C   UNL     1       7.030   4.633  16.600  0.00  0.00    +0.000 A 
ATOM     27  C   UNL     1       7.192   5.893  17.152  0.00  0.00    +0.000 A 
ATOM     28  C   UNL     1       6.076   6.585  17.627  0.00  0.00    +0.000 A 
ATOM     29  C   UNL     1       4.765   6.047  17.576  0.00  0.00    +0.000 A 
BRANCH  24  31
ATOM     30  C   UNL     1       3.208   2.970  17.756  0.00  0.00    +0.000 C 
ATOM     31  O   UNL     1       3.379   4.178  17.017  0.00  0.00    +0.000 OA
ENDBRANCH  24  31
ENDBRANCH  17  29
ENDBRANCH   1  20
TORSDOF 4
ENDMDL
MODEL 5
REMARK VINA RESULT:      -8.1      1.092      1.667
REMARK  Name = 
REMARK  7 active torsions:
REMARK  status: ('A' for Active; 'I' for Inactive)
REMARK    1  A    between atoms: C_1  and  O_2
REMARK    2  A    between atoms: O_2  and  C_3
REMARK    3  A    between atoms: C_8  and  C_9
REMARK    4  A    between atoms: C_12  and  C_13
REMARK    5  A    between atoms: N_15  and  N_16
REMARK    6  A    between atoms: N_20  and  C_21
REMARK    7  A    between atoms: C_28  and  C_29
REMARK                            x       y       z     vdW  Elec       q    Type
REMARK                         _______ _______ _______ _____ _____    ______ ____
ROOT
ATOM      1  C   UNL     1       0.080   9.930  20.523  0.00  0.00    +0.000 C 
ATOM      2  O   UNL     1      -0.006  10.184  21.718  0.00  0.00    +0.000 OA
ATOM      3  N   UNL     1      -0.722  10.480  19.523  0.00  0.00    +0.000 N 
ATOM      4  H   UNL     1      -0.588  10.168  18.560  0.00  0.00    +0.000 HD
ENDROOT
BRANCH   3   5
ATOM      5  N   UNL     1      -1.724  11.425  19.738  0.00  0.00    +0.000 NA
ATOM      6  C   UNL     1      -2.754  11.303  18.944  0.00  0.00    +0.000 C 
ATOM      7  C   UNL     1      -2.818  10.359  17.744  0.00  0.00    +0.000 C 
ATOM      8  O   UNL     1      -2.101   9.393  17.595  0.00  0.00    +0.000 OA
ATOM      9  N   UNL     1      -3.825  10.811  16.924  0.00  0.00    +0.000 N 
ATOM     10  C   UNL     1      -3.449  11.198  15.578  0.00  0.00    +0.000 C 
ATOM     11  C   UNL     1      -4.624  11.688  17.670  0.00  0.00    +0.000 A 
ATOM     12  C   UNL     1      -5.912  12.062  17.338  0.00  0.00    +0.000 A 
ATOM     13  C   UNL     1      -6.598  12.859  18.250  0.00  0.00    +0.000 A 
ATOM     14  C   UNL     1      -5.961  13.315  19.423  0.00  0.00    +0.000 A 
ATOM     15  C   UNL     1      -4.649  12.924  19.745  0.00  0.00    +0.000 A 
ATOM     16  C   UNL     1      -4.018  12.054  18.880  0.00  0.00    +0.000 A 
ENDBRANCH   3   5
BRANCH   1  20
ATOM     17  C   UNL     1       2.643   6.741  19.145  0.00  0.00    +0.000 A 
ATOM     18  C   UNL     1       2.093   6.693  20.417  0.00  0.00    +0.000 A 
ATOM     19  C   UNL     1       1.303   7.769  20.870  0.00  0.00    +0.000 A 
ATOM     20  C   UNL     1       1.079   8.891  20.058  0.00  0.00    +0.000 A 
ATOM     21  C   UNL     1       1.805   8.930  18.869  0.00  0.00    +0.000 A 
ATOM     22  C   UNL     1       1.880  10.080  17.926  0.00  0.00    +0.000 C 
ATOM     23  N   UNL     1       2.539   7.876  18.417  0.00  0.00    +0.000 NA
BRANCH  17  29
ATOM     24  C   UNL     1       2.655   4.478  17.931  0.00  0.00    +0.000 A 
ATOM     25  C   UNL     1       3.320   3.598  17.054  0.00  0.00    +0.000 A 
ATOM     26  C   UNL     1       4.649   3.806  16.691  0.00  0.00    +0.000 A 
ATOM     27  C   UNL     1       5.337   4.891  17.208  0.00  0.00    +0.000 A 
ATOM     28  C   UNL     1       4.675   5.787  18.051  0.00  0.00    +0.000 A 
ATOM     29  C   UNL     1       3.313   5.632  18.413  0.00  0.00    +0.000 A 
BRANCH  24  31
ATOM     30  C   UNL     1       1.081   3.240  19.194  0.00  0.00    +0.000 C 
ATOM     31  O   UNL     1       1.334   4.294  18.268  0.00  0.00    +0.000 OA
ENDBRANCH  24  31
ENDBRANCH  17  29
ENDBRANCH   1  20
TORSDOF 4
ENDMDL
MODEL 6
REMARK VINA RESULT:      -8.0      3.849      4.845
REMARK  Name = 
REMARK  7 active torsions:
REMARK  status: ('A' for Active; 'I' for Inactive)
REMARK    1  A    between atoms: C_1  and  O_2
REMARK    2  A    between atoms: O_2  and  C_3
REMARK    3  A    between atoms: C_8  and  C_9
REMARK    4  A    between atoms: C_12  and  C_13
REMARK    5  A    between atoms: N_15  and  N_16
REMARK    6  A    between atoms: N_20  and  C_21
REMARK    7  A    between atoms: C_28  and  C_29
REMARK                            x       y       z     vdW  Elec       q    Type
REMARK                         _______ _______ _______ _____ _____    ______ ____
ROOT
ATOM      1  C   UNL     1       0.270  10.926  19.869  0.00  0.00    +0.000 C 
ATOM      2  O   UNL     1      -0.909  10.991  19.548  0.00  0.00    +0.000 OA
ATOM      3  N   UNL     1       1.107  12.019  20.088  0.00  0.00    +0.000 N 
ATOM      4  H   UNL     1       2.088  11.849  20.317  0.00  0.00    +0.000 HD
ENDROOT
BRANCH   3   5
ATOM      5  N   UNL     1       0.711  13.353  20.002  0.00  0.00    +0.000 NA
ATOM      6  C   UNL     1       1.400  14.062  19.148  0.00  0.00    +0.000 C 
ATOM      7  C   UNL     1       2.661  13.576  18.434  0.00  0.00    +0.000 C 
ATOM      8  O   UNL     1       2.964  12.409  18.299  0.00  0.00    +0.000 OA
ATOM      9  N   UNL     1       3.330  14.690  17.986  0.00  0.00    +0.000 N 
ATOM     10  C   UNL     1       4.672  14.897  18.497  0.00  0.00    +0.000 C 
ATOM     11  C   UNL     1       2.435  15.768  18.013  0.00  0.00    +0.000 A 
ATOM     12  C   UNL     1       2.598  16.950  17.317  0.00  0.00    +0.000 A 
ATOM     13  C   UNL     1       1.557  17.872  17.376  0.00  0.00    +0.000 A 
ATOM     14  C   UNL     1       0.423  17.621  18.177  0.00  0.00    +0.000 A 
ATOM     15  C   UNL     1       0.274  16.411  18.879  0.00  0.00    +0.000 A 
ATOM     16  C   UNL     1       1.269  15.467  18.732  0.00  0.00    +0.000 A 
ENDBRANCH   3   5
BRANCH   1  20
ATOM     17  C   UNL     1       1.820   6.912  20.225  0.00  0.00    +0.000 A 
ATOM     18  C   UNL     1       1.352   7.580  21.346  0.00  0.00    +0.000 A 
ATOM     19  C   UNL     1       0.900   8.910  21.220  0.00  0.00    +0.000 A 
ATOM     20  C   UNL     1       0.932   9.568  19.981  0.00  0.00    +0.000 A 
ATOM     21  C   UNL     1       1.573   8.883  18.950  0.00  0.00    +0.000 A 
ATOM     22  C   UNL     1       1.893   9.429  17.602  0.00  0.00    +0.000 C 
ATOM     23  N   UNL     1       1.976   7.587  19.064  0.00  0.00    +0.000 NA
BRANCH  17  29
ATOM     24  C   UNL     1       3.391   4.941  19.736  0.00  0.00    +0.000 A 
ATOM     25  C   UNL     1       3.659   3.565  19.876  0.00  0.00    +0.000 A 
ATOM     26  C   UNL     1       2.679   2.680  20.323  0.00  0.00    +0.000 A 
ATOM     27  C   UNL     1       1.415   3.156  20.625  0.00  0.00    +0.000 A 
ATOM     28  C   UNL     1       1.151   4.523  20.521  0.00  0.00    +0.000 A 
ATOM     29  C   UNL     1       2.132   5.461  20.108  0.00  0.00    +0.000 A 
BRANCH  24  31
ATOM     30  C   UNL     1       5.669   5.267  19.177  0.00  0.00    +0.000 C 
ATOM     31  O   UNL     1       4.364   5.823  19.325  0.00  0.00    +0.000 OA
ENDBRANCH  24  31
ENDBRANCH  17  29
ENDBRANCH   1  20
TORSDOF 4
ENDMDL
MODEL 7
REMARK VINA RESULT:      -8.0      3.912      5.043
REMARK  Name = 
REMARK  7 active torsions:
REMARK  status: ('A' for Active; 'I' for Inactive)
REMARK    1  A    between atoms: C_1  and  O_2
REMARK    2  A    between atoms: O_2  and  C_3
REMARK    3  A    between atoms: C_8  and  C_9
REMARK    4  A    between atoms: C_12  and  C_13
REMARK    5  A    between atoms: N_15  and  N_16
REMARK    6  A    between atoms: N_20  and  C_21
REMARK    7  A    between atoms: C_28  and  C_29
REMARK                            x       y       z     vdW  Elec       q    Type
REMARK                         _______ _______ _______ _____ _____    ______ ____
ROOT
ATOM      1  C   UNL     1       0.522  10.842  19.852  0.00  0.00    +0.000 C 
ATOM      2  O   UNL     1      -0.689  10.946  19.996  0.00  0.00    +0.000 OA
ATOM      3  N   UNL     1       1.447  11.868  20.046  0.00  0.00    +0.000 N 
ATOM      4  H   UNL     1       2.433  11.680  19.860  0.00  0.00    +0.000 HD
ENDROOT
BRANCH   3   5
ATOM      5  N   UNL     1       1.126  13.159  20.462  0.00  0.00    +0.000 NA
ATOM      6  C   UNL     1       1.444  14.092  19.605  0.00  0.00    +0.000 C 
ATOM      7  C   UNL     1       2.272  13.864  18.340  0.00  0.00    +0.000 C 
ATOM      8  O   UNL     1       2.426  12.785  17.809  0.00  0.00    +0.000 OA
ATOM      9  N   UNL     1       2.760  15.088  17.948  0.00  0.00    +0.000 N 
ATOM     10  C   UNL     1       4.202  15.230  17.897  0.00  0.00    +0.000 C 
ATOM     11  C   UNL     1       2.016  16.077  18.605  0.00  0.00    +0.000 A 
ATOM     12  C   UNL     1       1.947  17.402  18.219  0.00  0.00    +0.000 A 
ATOM     13  C   UNL     1       1.075  18.225  18.927  0.00  0.00    +0.000 A 
ATOM     14  C   UNL     1       0.357  17.725  20.033  0.00  0.00    +0.000 A 
ATOM     15  C   UNL     1       0.440  16.373  20.411  0.00  0.00    +0.000 A 
ATOM     16  C   UNL     1       1.233  15.548  19.640  0.00  0.00    +0.000 A 
ENDBRANCH   3   5
BRANCH   1  20
ATOM     17  C   UNL     1       2.470   7.291  18.358  0.00  0.00    +0.000 A 
ATOM     18  C   UNL     1       1.965   8.233  17.474  0.00  0.00    +0.000 A 
ATOM     19  C   UNL     1       1.284   9.360  17.980  0.00  0.00    +0.000 A 
ATOM     20  C   UNL     1       1.099   9.531  19.360  0.00  0.00    +0.000 A 
ATOM     21  C   UNL     1       1.486   8.457  20.159  0.00  0.00    +0.000 A 
ATOM     22  C   UNL     1       1.236   8.317  21.620  0.00  0.00    +0.000 C 
ATOM     23  N   UNL     1       2.174   7.386  19.674  0.00  0.00    +0.000 NA
BRANCH  17  29
ATOM     24  C   UNL     1       2.975   4.836  17.800  0.00  0.00    +0.000 A 
ATOM     25  C   UNL     1       3.886   3.892  17.284  0.00  0.00    +0.000 A 
ATOM     26  C   UNL     1       5.221   4.224  17.059  0.00  0.00    +0.000 A 
ATOM     27  C   UNL     1       5.667   5.500  17.357  0.00  0.00    +0.000 A 
ATOM     28  C   UNL     1       4.764   6.451  17.836  0.00  0.00    +0.000 A 
ATOM     29  C   UNL     1       3.390   6.164  18.042  0.00  0.00    +0.000 A 
BRANCH  24  31
ATOM     30  C   UNL     1       1.388   3.616  19.064  0.00  0.00    +0.000 C 
ATOM     31  O   UNL     1       1.650   4.522  17.994  0.00  0.00    +0.000 OA
ENDBRANCH  24  31
ENDBRANCH  17  29
ENDBRANCH   1  20
TORSDOF 4
ENDMDL
MODEL 8
REMARK VINA RESULT:      -7.9      3.929      5.128
REMARK  Name = 
REMARK  7 active torsions:
REMARK  status: ('A' for Active; 'I' for Inactive)
REMARK    1  A    between atoms: C_1  and  O_2
REMARK    2  A    between atoms: O_2  and  C_3
REMARK    3  A    between atoms: C_8  and  C_9
REMARK    4  A    between atoms: C_12  and  C_13
REMARK    5  A    between atoms: N_15  and  N_16
REMARK    6  A    between atoms: N_20  and  C_21
REMARK    7  A    between atoms: C_28  and  C_29
REMARK                            x       y       z     vdW  Elec       q    Type
REMARK                         _______ _______ _______ _____ _____    ______ ____
ROOT
ATOM      1  C   UNL     1       0.346  10.947  19.370  0.00  0.00    +0.000 C 
ATOM      2  O   UNL     1      -0.809  11.108  18.997  0.00  0.00    +0.000 OA
ATOM      3  N   UNL     1       1.196  11.957  19.818  0.00  0.00    +0.000 N 
ATOM      4  H   UNL     1       2.155  11.716  20.070  0.00  0.00    +0.000 HD
ENDROOT
BRANCH   3   5
ATOM      5  N   UNL     1       0.841  13.300  19.936  0.00  0.00    +0.000 NA
ATOM      6  C   UNL     1       1.445  14.090  19.088  0.00  0.00    +0.000 C 
ATOM      7  C   UNL     1       2.590  13.664  18.169  0.00  0.00    +0.000 C 
ATOM      8  O   UNL     1       2.830  12.515  17.864  0.00  0.00    +0.000 OA
ATOM      9  N   UNL     1       3.238  14.808  17.771  0.00  0.00    +0.000 N 
ATOM     10  C   UNL     1       4.639  14.924  18.128  0.00  0.00    +0.000 C 
ATOM     11  C   UNL     1       2.393  15.895  18.034  0.00  0.00    +0.000 A 
ATOM     12  C   UNL     1       2.513  17.147  17.462  0.00  0.00    +0.000 A 
ATOM     13  C   UNL     1       1.520  18.078  17.758  0.00  0.00    +0.000 A 
ATOM     14  C   UNL     1       0.486  17.758  18.662  0.00  0.00    +0.000 A 
ATOM     15  C   UNL     1       0.380  16.478  19.234  0.00  0.00    +0.000 A 
ATOM     16  C   UNL     1       1.315  15.537  18.855  0.00  0.00    +0.000 A 
ENDBRANCH   3   5
BRANCH   1  20
ATOM     17  C   UNL     1       2.425   7.175  19.060  0.00  0.00    +0.000 A 
ATOM     18  C   UNL     1       2.090   7.883  17.914  0.00  0.00    +0.000 A 
ATOM     19  C   UNL     1       1.363   9.085  18.033  0.00  0.00    +0.000 A 
ATOM     20  C   UNL     1       0.964   9.566  19.289  0.00  0.00    +0.000 A 
ATOM     21  C   UNL     1       1.193   8.710  20.364  0.00  0.00    +0.000 A 
ATOM     22  C   UNL     1       0.710   8.905  21.759  0.00  0.00    +0.000 C 
ATOM     23  N   UNL     1       1.925   7.566  20.253  0.00  0.00    +0.000 NA
BRANCH  17  29
ATOM     24  C   UNL     1       3.074   4.822  19.854  0.00  0.00    +0.000 A 
ATOM     25  C   UNL     1       3.915   3.701  19.703  0.00  0.00    +0.000 A 
ATOM     26  C   UNL     1       5.069   3.762  18.925  0.00  0.00    +0.000 A 
ATOM     27  C   UNL     1       5.406   4.948  18.294  0.00  0.00    +0.000 A 
ATOM     28  C   UNL     1       4.560   6.054  18.411  0.00  0.00    +0.000 A 
ATOM     29  C   UNL     1       3.358   6.020  19.161  0.00  0.00    +0.000 A 
BRANCH  24  31
ATOM     30  C   UNL     1       1.015   3.714  20.230  0.00  0.00    +0.000 C 
ATOM     31  O   UNL     1       1.918   4.757  20.596  0.00  0.00    +0.000 OA
ENDBRANCH  24  31
ENDBRANCH  17  29
ENDBRANCH   1  20
TORSDOF 4
ENDMDL
MODEL 9
REMARK VINA RESULT:      -7.9      1.349      2.229
REMARK  Name = 
REMARK  7 active torsions:
REMARK  status: ('A' for Active; 'I' for Inactive)
REMARK    1  A    between atoms: C_1  and  O_2
REMARK    2  A    between atoms: O_2  and  C_3
REMARK    3  A    between atoms: C_8  and  C_9
REMARK    4  A    between atoms: C_12  and  C_13
REMARK    5  A    between atoms: N_15  and  N_16
REMARK    6  A    between atoms: N_20  and  C_21
REMARK    7  A    between atoms: C_28  and  C_29
REMARK                            x       y       z     vdW  Elec       q    Type
REMARK                         _______ _______ _______ _____ _____    ______ ____
ROOT
ATOM      1  C   UNL     1       0.485  10.706  19.768  0.00  0.00    +0.000 C 
ATOM      2  O   UNL     1       1.138  11.520  20.409  0.00  0.00    +0.000 OA
ATOM      3  N   UNL     1      -0.883  10.790  19.515  0.00  0.00    +0.000 N 
ATOM      4  H   UNL     1      -1.335  10.034  18.999  0.00  0.00    +0.000 HD
ENDROOT
BRANCH   3   5
ATOM      5  N   UNL     1      -1.705  11.836  19.934  0.00  0.00    +0.000 NA
ATOM      6  C   UNL     1      -2.921  11.785  19.458  0.00  0.00    +0.000 C 
ATOM      7  C   UNL     1      -3.391  10.806  18.381  0.00  0.00    +0.000 C 
ATOM      8  O   UNL     1      -2.825   9.770  18.105  0.00  0.00    +0.000 OA
ATOM      9  N   UNL     1      -4.544  11.322  17.839  0.00  0.00    +0.000 N 
ATOM     10  C   UNL     1      -4.523  11.620  16.420  0.00  0.00    +0.000 C 
ATOM     11  C   UNL     1      -5.031  12.300  18.717  0.00  0.00    +0.000 A 
ATOM     12  C   UNL     1      -6.325  12.785  18.723  0.00  0.00    +0.000 A 
ATOM     13  C   UNL     1      -6.664  13.679  19.735  0.00  0.00    +0.000 A 
ATOM     14  C   UNL     1      -5.693  14.115  20.660  0.00  0.00    +0.000 A 
ATOM     15  C   UNL     1      -4.380  13.611  20.638  0.00  0.00    +0.000 A 
ATOM     16  C   UNL     1      -4.086  12.651  19.691  0.00  0.00    +0.000 A 
ENDBRANCH   3   5
BRANCH   1  20
ATOM     17  C   UNL     1       2.728   7.350  18.234  0.00  0.00    +0.000 A 
ATOM     18  C   UNL     1       2.257   8.328  17.370  0.00  0.00    +0.000 A 
ATOM     19  C   UNL     1       1.480   9.387  17.882  0.00  0.00    +0.000 A 
ATOM     20  C   UNL     1       1.166   9.457  19.248  0.00  0.00    +0.000 A 
ATOM     21  C   UNL     1       1.534   8.349  20.009  0.00  0.00    +0.000 A 
ATOM     22  C   UNL     1       1.165   8.101  21.430  0.00  0.00    +0.000 C 
ATOM     23  N   UNL     1       2.314   7.344  19.521  0.00  0.00    +0.000 NA
BRANCH  17  29
ATOM     24  C   UNL     1       3.403   4.944  17.645  0.00  0.00    +0.000 A 
ATOM     25  C   UNL     1       4.388   4.069  17.146  0.00  0.00    +0.000 A 
ATOM     26  C   UNL     1       5.708   4.485  16.983  0.00  0.00    +0.000 A 
ATOM     27  C   UNL     1       6.065   5.778  17.326  0.00  0.00    +0.000 A 
ATOM     28  C   UNL     1       5.087   6.662  17.788  0.00  0.00    +0.000 A 
ATOM     29  C   UNL     1       3.727   6.289  17.932  0.00  0.00    +0.000 A 
BRANCH  24  31
ATOM     30  C   UNL     1       1.838   3.626  18.837  0.00  0.00    +0.000 C 
ATOM     31  O   UNL     1       2.092   4.548  17.779  0.00  0.00    +0.000 OA
ENDBRANCH  24  31
ENDBRANCH  17  29
ENDBRANCH   1  20
TORSDOF 4
ENDMDL
