MODEL 1
REMARK VINA RESULT:      -6.9      0.000      0.000
REMARK  Name = 
REMARK  11 active torsions:
REMARK  status: ('A' for Active; 'I' for Inactive)
REMARK    1  A    between atoms: C_1  and  O_2
REMARK    2  A    between atoms: O_2  and  C_3
REMARK    3  A    between atoms: C_6  and  C_7
REMARK    4  A    between atoms: C_7  and  N_8
REMARK    5  A    between atoms: C_9  and  C_11
REMARK    6  A    between atoms: C_11  and  O_12
REMARK    7  A    between atoms: O_12  and  C_13
REMARK    8  A    between atoms: C_13  and  C_15
REMARK    9  A    between atoms: C_19  and  C_20
REMARK   10  A    between atoms: C_22  and  O_23
REMARK   11  A    between atoms: O_23  and  C_24
REMARK                            x       y       z     vdW  Elec       q    Type
REMARK                         _______ _______ _______ _____ _____    ______ ____
ROOT
ATOM      1  N   UNL     1       6.772   7.354  16.933  0.00  0.00    +0.000 N 
ATOM      2  C   UNL     1       7.686   7.770  17.880  0.00  0.00    +0.000 C 
ATOM      3  O   UNL     1       8.225   7.006  18.676  0.00  0.00    +0.000 OA
ATOM      4  H   UNL     1       6.304   8.046  16.361  0.00  0.00    +0.000 HD
ENDROOT
BRANCH   1   5
ATOM      5  C   UNL     1       6.475   5.954  16.718  0.00  0.00    +0.000 C 
BRANCH   5   9
ATOM      6  C   UNL     1       2.730   4.676  18.484  0.00  0.00    +0.000 A 
ATOM      7  C   UNL     1       2.941   6.014  18.107  0.00  0.00    +0.000 A 
ATOM      8  C   UNL     1       4.142   6.424  17.530  0.00  0.00    +0.000 A 
ATOM      9  C   UNL     1       5.195   5.524  17.386  0.00  0.00    +0.000 A 
ATOM     10  C   UNL     1       5.025   4.220  17.869  0.00  0.00    +0.000 A 
ATOM     11  C   UNL     1       3.808   3.781  18.424  0.00  0.00    +0.000 A 
BRANCH   6  13
ATOM     12  C   UNL     1       1.267   4.319  20.298  0.00  0.00    +0.000 C 
ATOM     13  O   UNL     1       1.482   4.263  18.879  0.00  0.00    +0.000 OA
ENDBRANCH   6  13
BRANCH  11  14
ATOM     14  O   UNL     1       3.891   2.469  18.800  0.00  0.00    +0.000 OA
ATOM     15  C   UNL     1       4.387   2.118  20.079  0.00  0.00    +0.000 C 
ENDBRANCH  11  14
ENDBRANCH   5   9
ENDBRANCH   1   5
BRANCH   2  16
ATOM     16  C   UNL     1       7.935   9.277  17.907  0.00  0.00    +0.000 C 
BRANCH  16  17
ATOM     17  O   UNL     1       9.294   9.609  18.185  0.00  0.00    +0.000 OA
BRANCH  17  18
ATOM     18  C   UNL     1       9.464  10.586  19.129  0.00  0.00    +0.000 C 
ATOM     19  O   UNL     1       9.132  10.460  20.294  0.00  0.00    +0.000 OA
BRANCH  18  20
ATOM     20  C   UNL     1      10.120  11.742  18.528  0.00  0.00    +0.000 A 
ATOM     21  S   UNL     1      11.813  11.918  18.788  0.00  0.00    +0.000 S 
ATOM     22  C   UNL     1      11.892  13.327  17.835  0.00  0.00    +0.000 A 
ATOM     23  C   UNL     1      10.661  13.678  17.338  0.00  0.00    +0.000 A 
ATOM     24  C   UNL     1       9.617  12.780  17.745  0.00  0.00    +0.000 A 
ATOM     25  C   UNL     1       8.184  12.974  17.357  0.00  0.00    +0.000 C 
ENDBRANCH  18  20
ENDBRANCH  17  18
ENDBRANCH  16  17
ENDBRANCH   2  16
TORSDOF 8
ENDMDL
MODEL 2
REMARK VINA RESULT:      -6.7      5.743      8.714
REMARK  Name = 
REMARK  11 active torsions:
REMARK  status: ('A' for Active; 'I' for Inactive)
REMARK    1  A    between atoms: C_1  and  O_2
REMARK    2  A    between atoms: O_2  and  C_3
REMARK    3  A    between atoms: C_6  and  C_7
REMARK    4  A    between atoms: C_7  and  N_8
REMARK    5  A    between atoms: C_9  and  C_11
REMARK    6  A    between atoms: C_11  and  O_12
REMARK    7  A    between atoms: O_12  and  C_13
REMARK    8  A    between atoms: C_13  and  C_15
REMARK    9  A    between atoms: C_19  and  C_20
REMARK   10  A    between atoms: C_22  and  O_23
REMARK   11  A    between atoms: O_23  and  C_24
REMARK                            x       y       z     vdW  Elec       q    Type
REMARK                         _______ _______ _______ _____ _____    ______ ____
ROOT
ATOM      1  N   UNL     1       3.152   6.225  17.798  0.00  0.00    +0.000 N 
ATOM      2  C   UNL     1       4.503   5.959  17.702  0.00  0.00    +0.000 C 
ATOM      3  O   UNL     1       5.334   6.804  17.378  0.00  0.00    +0.000 OA
ATOM      4  H   UNL     1       2.512   5.465  17.992  0.00  0.00    +0.000 HD
ENDROOT
BRANCH   1   5
ATOM      5  C   UNL     1       2.623   7.563  17.651  0.00  0.00    +0.000 C 
BRANCH   5   9
ATOM      6  C   UNL     1       1.084   9.163  21.373  0.00  0.00    +0.000 A 
ATOM      7  C   UNL     1       1.587   7.853  21.294  0.00  0.00    +0.000 A 
ATOM      8  C   UNL     1       2.092   7.341  20.099  0.00  0.00    +0.000 A 
ATOM      9  C   UNL     1       2.034   8.097  18.931  0.00  0.00    +0.000 A 
ATOM     10  C   UNL     1       1.425   9.358  18.985  0.00  0.00    +0.000 A 
ATOM     11  C   UNL     1       0.941   9.903  20.190  0.00  0.00    +0.000 A 
BRANCH   6  13
ATOM     12  C   UNL     1      -0.620   9.561  22.954  0.00  0.00    +0.000 C 
ATOM     13  O   UNL     1       0.763   9.704  22.593  0.00  0.00    +0.000 OA
ENDBRANCH   6  13
BRANCH  11  14
ATOM     14  O   UNL     1       0.414  11.147  19.982  0.00  0.00    +0.000 OA
ATOM     15  C   UNL     1       0.125  11.594  18.669  0.00  0.00    +0.000 C 
ENDBRANCH  11  14
ENDBRANCH   5   9
ENDBRANCH   1   5
BRANCH   2  16
ATOM     16  C   UNL     1       4.888   4.505  17.972  0.00  0.00    +0.000 C 
BRANCH  16  17
ATOM     17  O   UNL     1       4.927   4.191  19.362  0.00  0.00    +0.000 OA
BRANCH  17  18
ATOM     18  C   UNL     1       4.471   2.941  19.681  0.00  0.00    +0.000 C 
ATOM     19  O   UNL     1       5.196   2.032  20.045  0.00  0.00    +0.000 OA
BRANCH  18  20
ATOM     20  C   UNL     1       3.018   2.899  19.551  0.00  0.00    +0.000 A 
ATOM     21  S   UNL     1       2.369   2.240  18.100  0.00  0.00    +0.000 S 
ATOM     22  C   UNL     1       0.764   2.446  18.631  0.00  0.00    +0.000 A 
ATOM     23  C   UNL     1       0.709   3.020  19.878  0.00  0.00    +0.000 A 
ATOM     24  C   UNL     1       2.006   3.307  20.420  0.00  0.00    +0.000 A 
ATOM     25  C   UNL     1       2.202   3.964  21.750  0.00  0.00    +0.000 C 
ENDBRANCH  18  20
ENDBRANCH  17  18
ENDBRANCH  16  17
ENDBRANCH   2  16
TORSDOF 8
ENDMDL
MODEL 3
REMARK VINA RESULT:      -6.6      5.964      8.928
REMARK  Name = 
REMARK  11 active torsions:
REMARK  status: ('A' for Active; 'I' for Inactive)
REMARK    1  A    between atoms: C_1  and  O_2
REMARK    2  A    between atoms: O_2  and  C_3
REMARK    3  A    between atoms: C_6  and  C_7
REMARK    4  A    between atoms: C_7  and  N_8
REMARK    5  A    between atoms: C_9  and  C_11
REMARK    6  A    between atoms: C_11  and  O_12
REMARK    7  A    between atoms: O_12  and  C_13
REMARK    8  A    between atoms: C_13  and  C_15
REMARK    9  A    between atoms: C_19  and  C_20
REMARK   10  A    between atoms: C_22  and  O_23
REMARK   11  A    between atoms: O_23  and  C_24
REMARK                            x       y       z     vdW  Elec       q    Type
REMARK                         _______ _______ _______ _____ _____    ______ ____
ROOT
ATOM      1  N   UNL     1       3.017   6.662  18.804  0.00  0.00    +0.000 N 
ATOM      2  C   UNL     1       4.045   5.879  18.318  0.00  0.00    +0.000 C 
ATOM      3  O   UNL     1       4.338   5.816  17.127  0.00  0.00    +0.000 OA
ATOM      4  H   UNL     1       2.776   6.607  19.785  0.00  0.00    +0.000 HD
ENDROOT
BRANCH   1   5
ATOM      5  C   UNL     1       2.285   7.576  17.955  0.00  0.00    +0.000 C 
BRANCH   5   9
ATOM      6  C   UNL     1       0.735  11.044  20.041  0.00  0.00    +0.000 A 
ATOM      7  C   UNL     1       1.187  11.133  18.713  0.00  0.00    +0.000 A 
ATOM      8  C   UNL     1       1.676  10.015  18.038  0.00  0.00    +0.000 A 
ATOM      9  C   UNL     1       1.802   8.795  18.698  0.00  0.00    +0.000 A 
ATOM     10  C   UNL     1       1.461   8.737  20.055  0.00  0.00    +0.000 A 
ATOM     11  C   UNL     1       0.934   9.847  20.743  0.00  0.00    +0.000 A 
BRANCH   6  13
ATOM     12  C   UNL     1      -1.339  12.067  20.505  0.00  0.00    +0.000 C 
ATOM     13  O   UNL     1       0.092  12.110  20.620  0.00  0.00    +0.000 OA
ENDBRANCH   6  13
BRANCH  11  14
ATOM     14  O   UNL     1       0.665   9.528  22.045  0.00  0.00    +0.000 OA
ATOM     15  C   UNL     1      -0.506   8.806  22.381  0.00  0.00    +0.000 C 
ENDBRANCH  11  14
ENDBRANCH   5   9
ENDBRANCH   1   5
BRANCH   2  16
ATOM     16  C   UNL     1       4.761   5.040  19.375  0.00  0.00    +0.000 C 
BRANCH  16  17
ATOM     17  O   UNL     1       5.038   3.712  18.935  0.00  0.00    +0.000 OA
BRANCH  17  18
ATOM     18  C   UNL     1       4.510   2.725  19.723  0.00  0.00    +0.000 C 
ATOM     19  O   UNL     1       5.177   2.026  20.464  0.00  0.00    +0.000 OA
BRANCH  18  20
ATOM     20  C   UNL     1       3.061   2.685  19.556  0.00  0.00    +0.000 A 
ATOM     21  S   UNL     1       2.451   2.289  17.996  0.00  0.00    +0.000 S 
ATOM     22  C   UNL     1       0.833   2.370  18.520  0.00  0.00    +0.000 A 
ATOM     23  C   UNL     1       0.744   2.709  19.848  0.00  0.00    +0.000 A 
ATOM     24  C   UNL     1       2.025   2.914  20.461  0.00  0.00    +0.000 A 
ATOM     25  C   UNL     1       2.183   3.322  21.892  0.00  0.00    +0.000 C 
ENDBRANCH  18  20
ENDBRANCH  17  18
ENDBRANCH  16  17
ENDBRANCH   2  16
TORSDOF 8
ENDMDL
MODEL 4
REMARK VINA RESULT:      -6.5      6.085      8.987
REMARK  Name = 
REMARK  11 active torsions:
REMARK  status: ('A' for Active; 'I' for Inactive)
REMARK    1  A    between atoms: C_1  and  O_2
REMARK    2  A    between atoms: O_2  and  C_3
REMARK    3  A    between atoms: C_6  and  C_7
REMARK    4  A    between atoms: C_7  and  N_8
REMARK    5  A    between atoms: C_9  and  C_11
REMARK    6  A    between atoms: C_11  and  O_12
REMARK    7  A    between atoms: O_12  and  C_13
REMARK    8  A    between atoms: C_13  and  C_15
REMARK    9  A    between atoms: C_19  and  C_20
REMARK   10  A    between atoms: C_22  and  O_23
REMARK   11  A    between atoms: O_23  and  C_24
REMARK                            x       y       z     vdW  Elec       q    Type
REMARK                         _______ _______ _______ _____ _____    ______ ____
ROOT
ATOM      1  N   UNL     1       0.887   9.781  19.291  0.00  0.00    +0.000 N 
ATOM      2  C   UNL     1       1.712   8.953  18.557  0.00  0.00    +0.000 C 
ATOM      3  O   UNL     1       2.035   9.182  17.395  0.00  0.00    +0.000 OA
ATOM      4  H   UNL     1       0.596   9.495  20.217  0.00  0.00    +0.000 HD
ENDROOT
BRANCH   1   5
ATOM      5  C   UNL     1       0.442  11.061  18.784  0.00  0.00    +0.000 C 
BRANCH   5   9
ATOM      6  C   UNL     1      -3.780  11.263  17.823  0.00  0.00    +0.000 A 
ATOM      7  C   UNL     1      -3.258  11.904  18.961  0.00  0.00    +0.000 A 
ATOM      8  C   UNL     1      -1.898  11.848  19.264  0.00  0.00    +0.000 A 
ATOM      9  C   UNL     1      -1.035  11.083  18.484  0.00  0.00    +0.000 A 
ATOM     10  C   UNL     1      -1.576  10.350  17.420  0.00  0.00    +0.000 A 
ATOM     11  C   UNL     1      -2.940  10.422  17.078  0.00  0.00    +0.000 A 
BRANCH   6  13
ATOM     12  C   UNL     1      -6.053  10.853  18.296  0.00  0.00    +0.000 C 
ATOM     13  O   UNL     1      -5.081  11.483  17.447  0.00  0.00    +0.000 OA
ENDBRANCH   6  13
BRANCH  11  14
ATOM     14  O   UNL     1      -3.211   9.633  15.995  0.00  0.00    +0.000 OA
ATOM     15  C   UNL     1      -3.050  10.137  14.682  0.00  0.00    +0.000 C 
ENDBRANCH  11  14
ENDBRANCH   5   9
ENDBRANCH   1   5
BRANCH   2  16
ATOM     16  C   UNL     1       2.152   7.684  19.286  0.00  0.00    +0.000 C 
BRANCH  16  17
ATOM     17  O   UNL     1       2.408   6.596  18.400  0.00  0.00    +0.000 OA
BRANCH  17  18
ATOM     18  C   UNL     1       3.488   5.826  18.736  0.00  0.00    +0.000 C 
ATOM     19  O   UNL     1       3.771   5.527  19.882  0.00  0.00    +0.000 OA
BRANCH  18  20
ATOM     20  C   UNL     1       4.191   5.408  17.527  0.00  0.00    +0.000 A 
ATOM     21  S   UNL     1       4.979   6.630  16.605  0.00  0.00    +0.000 S 
ATOM     22  C   UNL     1       5.577   5.503  15.477  0.00  0.00    +0.000 A 
ATOM     23  C   UNL     1       5.177   4.223  15.773  0.00  0.00    +0.000 A 
ATOM     24  C   UNL     1       4.356   4.150  16.949  0.00  0.00    +0.000 A 
ATOM     25  C   UNL     1       3.772   2.868  17.452  0.00  0.00    +0.000 C 
ENDBRANCH  18  20
ENDBRANCH  17  18
ENDBRANCH  16  17
ENDBRANCH   2  16
TORSDOF 8
ENDMDL
MODEL 5
REMARK VINA RESULT:      -6.5      6.391      9.870
REMARK  Name = 
REMARK  11 active torsions:
REMARK  status: ('A' for Active; 'I' for Inactive)
REMARK    1  A    between atoms: C_1  and  O_2
REMARK    2  A    between atoms: O_2  and  C_3
REMARK    3  A    between atoms: C_6  and  C_7
REMARK    4  A    between atoms: C_7  and  N_8
REMARK    5  A    between atoms: C_9  and  C_11
REMARK    6  A    between atoms: C_11  and  O_12
REMARK    7  A    between atoms: O_12  and  C_13
REMARK    8  A    between atoms: C_13  and  C_15
REMARK    9  A    between atoms: C_19  and  C_20
REMARK   10  A    between atoms: C_22  and  O_23
REMARK   11  A    between atoms: O_23  and  C_24
REMARK                            x       y       z     vdW  Elec       q    Type
REMARK                         _______ _______ _______ _____ _____    ______ ____
ROOT
ATOM      1  N   UNL     1       0.830   9.793  19.231  0.00  0.00    +0.000 N 
ATOM      2  C   UNL     1       1.696   8.961  18.553  0.00  0.00    +0.000 C 
ATOM      3  O   UNL     1       2.067   9.170  17.401  0.00  0.00    +0.000 OA
ATOM      4  H   UNL     1       0.501   9.522  20.149  0.00  0.00    +0.000 HD
ENDROOT
BRANCH   1   5
ATOM      5  C   UNL     1       0.392  11.056  18.678  0.00  0.00    +0.000 C 
BRANCH   5   9
ATOM      6  C   UNL     1      -3.848  11.289  17.812  0.00  0.00    +0.000 A 
ATOM      7  C   UNL     1      -3.296  11.929  18.936  0.00  0.00    +0.000 A 
ATOM      8  C   UNL     1      -1.930  11.862  19.209  0.00  0.00    +0.000 A 
ATOM      9  C   UNL     1      -1.091  11.089  18.412  0.00  0.00    +0.000 A 
ATOM     10  C   UNL     1      -1.661  10.358  17.362  0.00  0.00    +0.000 A 
ATOM     11  C   UNL     1      -3.033  10.439  17.051  0.00  0.00    +0.000 A 
BRANCH   6  13
ATOM     12  C   UNL     1      -6.112  10.842  18.297  0.00  0.00    +0.000 C 
ATOM     13  O   UNL     1      -5.156  11.518  17.465  0.00  0.00    +0.000 OA
ENDBRANCH   6  13
BRANCH  11  14
ATOM     14  O   UNL     1      -3.334   9.650  15.976  0.00  0.00    +0.000 OA
ATOM     15  C   UNL     1      -3.029  10.079  14.662  0.00  0.00    +0.000 C 
ENDBRANCH  11  14
ENDBRANCH   5   9
ENDBRANCH   1   5
BRANCH   2  16
ATOM     16  C   UNL     1       2.118   7.713  19.327  0.00  0.00    +0.000 C 
BRANCH  16  17
ATOM     17  O   UNL     1       2.259   6.564  18.493  0.00  0.00    +0.000 OA
BRANCH  17  18
ATOM     18  C   UNL     1       3.182   5.651  18.927  0.00  0.00    +0.000 C 
ATOM     19  O   UNL     1       4.383   5.852  18.915  0.00  0.00    +0.000 OA
BRANCH  18  20
ATOM     20  C   UNL     1       2.501   4.459  19.421  0.00  0.00    +0.000 A 
ATOM     21  S   UNL     1       2.033   4.442  21.078  0.00  0.00    +0.000 S 
ATOM     22  C   UNL     1       1.312   2.906  20.939  0.00  0.00    +0.000 A 
ATOM     23  C   UNL     1       1.433   2.397  19.669  0.00  0.00    +0.000 A 
ATOM     24  C   UNL     1       2.137   3.276  18.779  0.00  0.00    +0.000 A 
ATOM     25  C   UNL     1       2.423   2.927  17.353  0.00  0.00    +0.000 C 
ENDBRANCH  18  20
ENDBRANCH  17  18
ENDBRANCH  16  17
ENDBRANCH   2  16
TORSDOF 8
ENDMDL
MODEL 6
REMARK VINA RESULT:      -6.5      1.465      1.720
REMARK  Name = 
REMARK  11 active torsions:
REMARK  status: ('A' for Active; 'I' for Inactive)
REMARK    1  A    between atoms: C_1  and  O_2
REMARK    2  A    between atoms: O_2  and  C_3
REMARK    3  A    between atoms: C_6  and  C_7
REMARK    4  A    between atoms: C_7  and  N_8
REMARK    5  A    between atoms: C_9  and  C_11
REMARK    6  A    between atoms: C_11  and  O_12
REMARK    7  A    between atoms: O_12  and  C_13
REMARK    8  A    between atoms: C_13  and  C_15
REMARK    9  A    between atoms: C_19  and  C_20
REMARK   10  A    between atoms: C_22  and  O_23
REMARK   11  A    between atoms: O_23  and  C_24
REMARK                            x       y       z     vdW  Elec       q    Type
REMARK                         _______ _______ _______ _____ _____    ______ ____
ROOT
ATOM      1  N   UNL     1       7.000   7.529  16.875  0.00  0.00    +0.000 N 
ATOM      2  C   UNL     1       7.870   7.975  17.849  0.00  0.00    +0.000 C 
ATOM      3  O   UNL     1       8.365   7.239  18.698  0.00  0.00    +0.000 OA
ATOM      4  H   UNL     1       6.565   8.201  16.255  0.00  0.00    +0.000 HD
ENDROOT
BRANCH   1   5
ATOM      5  C   UNL     1       6.705   6.124  16.698  0.00  0.00    +0.000 C 
BRANCH   5   9
ATOM      6  C   UNL     1       2.942   4.908  18.472  0.00  0.00    +0.000 A 
ATOM      7  C   UNL     1       3.188   6.249  18.127  0.00  0.00    +0.000 A 
ATOM      8  C   UNL     1       4.394   6.639  17.547  0.00  0.00    +0.000 A 
ATOM      9  C   UNL     1       5.420   5.713  17.369  0.00  0.00    +0.000 A 
ATOM     10  C   UNL     1       5.217   4.403  17.820  0.00  0.00    +0.000 A 
ATOM     11  C   UNL     1       3.993   3.984  18.378  0.00  0.00    +0.000 A 
BRANCH   6  13
ATOM     12  C   UNL     1       1.442   4.678  20.276  0.00  0.00    +0.000 C 
ATOM     13  O   UNL     1       1.687   4.520  18.870  0.00  0.00    +0.000 OA
ENDBRANCH   6  13
BRANCH  11  14
ATOM     14  O   UNL     1       4.042   2.661  18.718  0.00  0.00    +0.000 OA
ATOM     15  C   UNL     1       4.351   2.272  20.044  0.00  0.00    +0.000 C 
ENDBRANCH  11  14
ENDBRANCH   5   9
ENDBRANCH   1   5
BRANCH   2  16
ATOM     16  C   UNL     1       8.129   9.481  17.830  0.00  0.00    +0.000 C 
BRANCH  16  17
ATOM     17  O   UNL     1       9.011   9.905  18.867  0.00  0.00    +0.000 OA
BRANCH  17  18
ATOM     18  C   UNL     1       9.692  11.063  18.604  0.00  0.00    +0.000 C 
ATOM     19  O   UNL     1      10.472  11.188  17.677  0.00  0.00    +0.000 OA
BRANCH  18  20
ATOM     20  C   UNL     1       9.305  12.091  19.563  0.00  0.00    +0.000 A 
ATOM     21  S   UNL     1       9.295  11.659  21.230  0.00  0.00    +0.000 S 
ATOM     22  C   UNL     1       8.842  13.227  21.715  0.00  0.00    +0.000 A 
ATOM     23  C   UNL     1       8.681  14.068  20.640  0.00  0.00    +0.000 A 
ATOM     24  C   UNL     1       8.927  13.421  19.382  0.00  0.00    +0.000 A 
ATOM     25  C   UNL     1       8.782  14.122  18.068  0.00  0.00    +0.000 C 
ENDBRANCH  18  20
ENDBRANCH  17  18
ENDBRANCH  16  17
ENDBRANCH   2  16
TORSDOF 8
ENDMDL
MODEL 7
REMARK VINA RESULT:      -6.5      3.371      9.460
REMARK  Name = 
REMARK  11 active torsions:
REMARK  status: ('A' for Active; 'I' for Inactive)
REMARK    1  A    between atoms: C_1  and  O_2
REMARK    2  A    between atoms: O_2  and  C_3
REMARK    3  A    between atoms: C_6  and  C_7
REMARK    4  A    between atoms: C_7  and  N_8
REMARK    5  A    between atoms: C_9  and  C_11
REMARK    6  A    between atoms: C_11  and  O_12
REMARK    7  A    between atoms: O_12  and  C_13
REMARK    8  A    between atoms: C_13  and  C_15
REMARK    9  A    between atoms: C_19  and  C_20
REMARK   10  A    between atoms: C_22  and  O_23
REMARK   11  A    between atoms: O_23  and  C_24
REMARK                            x       y       z     vdW  Elec       q    Type
REMARK                         _______ _______ _______ _____ _____    ______ ____
ROOT
ATOM      1  N   UNL     1       8.311   8.099  18.588  0.00  0.00    +0.000 N 
ATOM      2  C   UNL     1       7.802   6.941  18.035  0.00  0.00    +0.000 C 
ATOM      3  O   UNL     1       7.320   6.889  16.907  0.00  0.00    +0.000 OA
ATOM      4  H   UNL     1       8.621   8.092  19.551  0.00  0.00    +0.000 HD
ENDROOT
BRANCH   1   5
ATOM      5  C   UNL     1       8.434   9.322  17.824  0.00  0.00    +0.000 C 
BRANCH   5   9
ATOM      6  C   UNL     1      10.853  12.376  19.722  0.00  0.00    +0.000 A 
ATOM      7  C   UNL     1      11.075  11.993  18.387  0.00  0.00    +0.000 A 
ATOM      8  C   UNL     1      10.290  11.018  17.773  0.00  0.00    +0.000 A 
ATOM      9  C   UNL     1       9.314  10.341  18.500  0.00  0.00    +0.000 A 
ATOM     10  C   UNL     1       9.174  10.640  19.861  0.00  0.00    +0.000 A 
ATOM     11  C   UNL     1       9.934  11.645  20.489  0.00  0.00    +0.000 A 
BRANCH   6  13
ATOM     12  C   UNL     1      11.771  14.505  19.295  0.00  0.00    +0.000 C 
ATOM     13  O   UNL     1      11.514  13.459  20.245  0.00  0.00    +0.000 OA
ENDBRANCH   6  13
BRANCH  11  14
ATOM     14  O   UNL     1       9.596  11.756  21.809  0.00  0.00    +0.000 OA
ATOM     15  C   UNL     1       8.585  12.660  22.218  0.00  0.00    +0.000 C 
ENDBRANCH  11  14
ENDBRANCH   5   9
ENDBRANCH   1   5
BRANCH   2  16
ATOM     16  C   UNL     1       7.828   5.728  18.963  0.00  0.00    +0.000 C 
BRANCH  16  17
ATOM     17  O   UNL     1       6.914   4.707  18.567  0.00  0.00    +0.000 OA
BRANCH  17  18
ATOM     18  C   UNL     1       5.655   4.832  19.088  0.00  0.00    +0.000 C 
ATOM     19  O   UNL     1       5.313   5.754  19.807  0.00  0.00    +0.000 OA
BRANCH  18  20
ATOM     20  C   UNL     1       4.816   3.734  18.619  0.00  0.00    +0.000 A 
ATOM     21  S   UNL     1       4.257   2.604  19.791  0.00  0.00    +0.000 S 
ATOM     22  C   UNL     1       3.375   1.721  18.633  0.00  0.00    +0.000 A 
ATOM     23  C   UNL     1       3.508   2.253  17.374  0.00  0.00    +0.000 A 
ATOM     24  C   UNL     1       4.357   3.410  17.343  0.00  0.00    +0.000 A 
ATOM     25  C   UNL     1       4.681   4.144  16.079  0.00  0.00    +0.000 C 
ENDBRANCH  18  20
ENDBRANCH  17  18
ENDBRANCH  16  17
ENDBRANCH   2  16
TORSDOF 8
ENDMDL
MODEL 8
REMARK VINA RESULT:      -6.5      5.589      7.747
REMARK  Name = 
REMARK  11 active torsions:
REMARK  status: ('A' for Active; 'I' for Inactive)
REMARK    1  A    between atoms: C_1  and  O_2
REMARK    2  A    between atoms: O_2  and  C_3
REMARK    3  A    between atoms: C_6  and  C_7
REMARK    4  A    between atoms: C_7  and  N_8
REMARK    5  A    between atoms: C_9  and  C_11
REMARK    6  A    between atoms: C_11  and  O_12
REMARK    7  A    between atoms: O_12  and  C_13
REMARK    8  A    between atoms: C_13  and  C_15
REMARK    9  A    between atoms: C_19  and  C_20
REMARK   10  A    between atoms: C_22  and  O_23
REMARK   11  A    between atoms: O_23  and  C_24
REMARK                            x       y       z     vdW  Elec       q    Type
REMARK                         _______ _______ _______ _____ _____    ______ ____
ROOT
ATOM      1  N   UNL     1       2.334   4.543  19.890  0.00  0.00    +0.000 N 
ATOM      2  C   UNL     1       2.619   3.235  20.229  0.00  0.00    +0.000 C 
ATOM      3  O   UNL     1       2.795   2.863  21.386  0.00  0.00    +0.000 OA
ATOM      4  H   UNL     1       2.279   4.799  18.912  0.00  0.00    +0.000 HD
ENDROOT
BRANCH   1   5
ATOM      5  C   UNL     1       2.090   5.557  20.892  0.00  0.00    +0.000 C 
BRANCH   5   9
ATOM      6  C   UNL     1       1.309   9.423  19.096  0.00  0.00    +0.000 A 
ATOM      7  C   UNL     1       2.090   8.457  18.438  0.00  0.00    +0.000 A 
ATOM      8  C   UNL     1       2.332   7.209  19.011  0.00  0.00    +0.000 A 
ATOM      9  C   UNL     1       1.869   6.922  20.293  0.00  0.00    +0.000 A 
ATOM     10  C   UNL     1       1.192   7.928  20.994  0.00  0.00    +0.000 A 
ATOM     11  C   UNL     1       0.909   9.181  20.418  0.00  0.00    +0.000 A 
BRANCH   6  13
ATOM     12  C   UNL     1       1.884  11.640  18.536  0.00  0.00    +0.000 C 
ATOM     13  O   UNL     1       0.934  10.568  18.438  0.00  0.00    +0.000 OA
ENDBRANCH   6  13
BRANCH  11  14
ATOM     14  O   UNL     1       0.224   9.975  21.296  0.00  0.00    +0.000 OA
ATOM     15  C   UNL     1       0.132   9.620  22.664  0.00  0.00    +0.000 C 
ENDBRANCH  11  14
ENDBRANCH   5   9
ENDBRANCH   1   5
BRANCH   2  16
ATOM     16  C   UNL     1       2.760   2.285  19.041  0.00  0.00    +0.000 C 
BRANCH  16  17
ATOM     17  O   UNL     1       3.950   2.512  18.288  0.00  0.00    +0.000 OA
BRANCH  17  18
ATOM     18  C   UNL     1       3.831   3.447  17.296  0.00  0.00    +0.000 C 
ATOM     19  O   UNL     1       2.775   3.724  16.755  0.00  0.00    +0.000 OA
BRANCH  18  20
ATOM     20  C   UNL     1       5.130   4.059  17.038  0.00  0.00    +0.000 A 
ATOM     21  S   UNL     1       5.822   3.825  15.479  0.00  0.00    +0.000 S 
ATOM     22  C   UNL     1       7.181   4.781  15.852  0.00  0.00    +0.000 A 
ATOM     23  C   UNL     1       7.131   5.259  17.139  0.00  0.00    +0.000 A 
ATOM     24  C   UNL     1       5.958   4.835  17.848  0.00  0.00    +0.000 A 
ATOM     25  C   UNL     1       5.697   5.200  19.276  0.00  0.00    +0.000 C 
ENDBRANCH  18  20
ENDBRANCH  17  18
ENDBRANCH  16  17
ENDBRANCH   2  16
TORSDOF 8
ENDMDL
MODEL 9
REMARK VINA RESULT:      -6.3      1.749      2.692
REMARK  Name = 
REMARK  11 active torsions:
REMARK  status: ('A' for Active; 'I' for Inactive)
REMARK    1  A    between atoms: C_1  and  O_2
REMARK    2  A    between atoms: O_2  and  C_3
REMARK    3  A    between atoms: C_6  and  C_7
REMARK    4  A    between atoms: C_7  and  N_8
REMARK    5  A    between atoms: C_9  and  C_11
REMARK    6  A    between atoms: C_11  and  O_12
REMARK    7  A    between atoms: O_12  and  C_13
REMARK    8  A    between atoms: C_13  and  C_15
REMARK    9  A    between atoms: C_19  and  C_20
REMARK   10  A    between atoms: C_22  and  O_23
REMARK   11  A    between atoms: O_23  and  C_24
REMARK                            x       y       z     vdW  Elec       q    Type
REMARK                         _______ _______ _______ _____ _____    ______ ____
ROOT
ATOM      1  N   UNL     1       6.863   7.394  16.984  0.00  0.00    +0.000 N 
ATOM      2  C   UNL     1       7.810   7.841  17.883  0.00  0.00    +0.000 C 
ATOM      3  O   UNL     1       8.325   7.120  18.733  0.00  0.00    +0.000 OA
ATOM      4  H   UNL     1       6.420   8.058  16.361  0.00  0.00    +0.000 HD
ENDROOT
BRANCH   1   5
ATOM      5  C   UNL     1       6.498   5.997  16.889  0.00  0.00    +0.000 C 
BRANCH   5   9
ATOM      6  C   UNL     1       3.286   5.022  19.631  0.00  0.00    +0.000 A 
ATOM      7  C   UNL     1       4.303   4.096  19.337  0.00  0.00    +0.000 A 
ATOM      8  C   UNL     1       5.342   4.413  18.463  0.00  0.00    +0.000 A 
ATOM      9  C   UNL     1       5.351   5.636  17.796  0.00  0.00    +0.000 A 
ATOM     10  C   UNL     1       4.275   6.510  18.000  0.00  0.00    +0.000 A 
ATOM     11  C   UNL     1       3.235   6.221  18.904  0.00  0.00    +0.000 A 
BRANCH   6  13
ATOM     12  C   UNL     1       1.218   4.037  20.187  0.00  0.00    +0.000 C 
ATOM     13  O   UNL     1       2.381   4.755  20.627  0.00  0.00    +0.000 OA
ENDBRANCH   6  13
BRANCH  11  14
ATOM     14  O   UNL     1       2.323   7.238  18.937  0.00  0.00    +0.000 OA
ATOM     15  C   UNL     1       2.332   8.242  17.938  0.00  0.00    +0.000 C 
ENDBRANCH  11  14
ENDBRANCH   5   9
ENDBRANCH   1   5
BRANCH   2  16
ATOM     16  C   UNL     1       8.131   9.332  17.782  0.00  0.00    +0.000 C 
BRANCH  16  17
ATOM     17  O   UNL     1       8.954   9.796  18.849  0.00  0.00    +0.000 OA
BRANCH  17  18
ATOM     18  C   UNL     1       9.635  10.954  18.587  0.00  0.00    +0.000 C 
ATOM     19  O   UNL     1      10.378  11.095  17.632  0.00  0.00    +0.000 OA
BRANCH  18  20
ATOM     20  C   UNL     1       9.298  11.961  19.587  0.00  0.00    +0.000 A 
ATOM     21  S   UNL     1       9.275  11.466  21.236  0.00  0.00    +0.000 S 
ATOM     22  C   UNL     1       8.894  13.033  21.783  0.00  0.00    +0.000 A 
ATOM     23  C   UNL     1       8.766  13.921  20.742  0.00  0.00    +0.000 A 
ATOM     24  C   UNL     1       8.978  13.312  19.459  0.00  0.00    +0.000 A 
ATOM     25  C   UNL     1       8.860  14.069  18.173  0.00  0.00    +0.000 C 
ENDBRANCH  18  20
ENDBRANCH  17  18
ENDBRANCH  16  17
ENDBRANCH   2  16
TORSDOF 8
ENDMDL
