MODEL 1
REMARK VINA RESULT:      -7.6      0.000      0.000
REMARK  Name = 
REMARK  10 active torsions:
REMARK  status: ('A' for Active; 'I' for Inactive)
REMARK    1  A    between atoms: C_1  and  C_2
REMARK    2  A    between atoms: C_2  and  N_3
REMARK    3  A    between atoms: C_2  and  C_4
REMARK    4  A    between atoms: N_6  and  C_7
REMARK    5  A    between atoms: C_7  and  C_8
REMARK    6  A    between atoms: C_7  and  C_12
REMARK    7  A    between atoms: C_8  and  C_9
REMARK    8  A    between atoms: C_9  and  C_10
REMARK    9  A    between atoms: C_10  and  N_11
REMARK   10  A    between atoms: N_14  and  C_15
REMARK                            x       y       z     vdW  Elec       q    Type
REMARK                         _______ _______ _______ _____ _____    ______ ____
ROOT
ATOM      1  C   UNL     1       3.753   3.410  17.562  0.00  0.00    +0.000 C 
ENDROOT
BRANCH   1   4
ATOM      2  C   UNL     1       5.761   4.128  16.299  0.00  0.00    +0.000 C 
ATOM      3  O   UNL     1       5.161   4.078  15.228  0.00  0.00    +0.000 OA
ATOM      4  N   UNL     1       5.158   3.834  17.502  0.00  0.00    +0.000 N 
ATOM      5  H   UNL     1       5.690   3.881  18.365  0.00  0.00    +0.000 HD
BRANCH   2   7
ATOM      6  C   UNL     1       7.607   4.712  17.871  0.00  0.00    +0.000 C 
ATOM      7  C   UNL     1       7.225   4.593  16.401  0.00  0.00    +0.000 C 
BRANCH   7   8
ATOM      8  N   UNL     1       7.378   5.899  15.737  0.00  0.00    +0.000 NA
ATOM      9  H   UNL     1       7.993   5.764  14.928  0.00  0.00    +0.000 HD
ATOM     10  H   UNL     1       7.919   6.512  16.348  0.00  0.00    +0.000 HD
ENDBRANCH   7   8
ENDBRANCH   2   7
ENDBRANCH   1   4
BRANCH   1  11
ATOM     11  C   UNL     1       2.781   4.600  17.781  0.00  0.00    +0.000 C 
ATOM     12  O   UNL     1       1.575   4.439  17.605  0.00  0.00    +0.000 OA
ATOM     13  N   UNL     1       3.368   5.791  18.177  0.00  0.00    +0.000 N 
ATOM     14  H   UNL     1       4.351   5.890  17.964  0.00  0.00    +0.000 HD
BRANCH  13  15
ATOM     15  C   UNL     1       2.657   6.957  18.544  0.00  0.00    +0.000 A 
ATOM     16  C   UNL     1       2.398   7.982  17.632  0.00  0.00    +0.000 A 
ATOM     17  C   UNL     1       1.740   9.143  18.026  0.00  0.00    +0.000 A 
ATOM     18  C   UNL     1       1.316   9.307  19.346  0.00  0.00    +0.000 A 
ATOM     19  C   UNL     1       0.679  10.490  19.747  0.00  0.00    +0.000 A 
ATOM     20  C   UNL     1       0.262  10.661  21.065  0.00  0.00    +0.000 A 
ATOM     21  C   UNL     1       0.472   9.645  21.993  0.00  0.00    +0.000 A 
ATOM     22  C   UNL     1       1.100   8.458  21.606  0.00  0.00    +0.000 A 
ATOM     23  C   UNL     1       1.534   8.268  20.280  0.00  0.00    +0.000 A 
ATOM     24  C   UNL     1       2.192   7.091  19.859  0.00  0.00    +0.000 A 
ENDBRANCH  13  15
ENDBRANCH   1  11
BRANCH   1  25
ATOM     25  C   UNL     1       3.574   2.327  18.643  0.00  0.00    +0.000 C 
BRANCH  25  26
ATOM     26  C   UNL     1       3.814   2.765  20.099  0.00  0.00    +0.000 C 
BRANCH  26  27
ATOM     27  C   UNL     1       2.601   2.679  21.029  0.00  0.00    +0.000 C 
BRANCH  27  28
ATOM     28  N   UNL     1       1.353   2.661  20.276  0.00  0.00    +0.000 NA
ATOM     29  H   UNL     1       0.585   2.987  20.857  0.00  0.00    +0.000 HD
ATOM     30  H   UNL     1       1.128   1.695  20.034  0.00  0.00    +0.000 HD
ENDBRANCH  27  28
ENDBRANCH  26  27
ENDBRANCH  25  26
ENDBRANCH   1  25
TORSDOF 9
ENDMDL
MODEL 2
REMARK VINA RESULT:      -7.3      0.599      1.574
REMARK  Name = 
REMARK  10 active torsions:
REMARK  status: ('A' for Active; 'I' for Inactive)
REMARK    1  A    between atoms: C_1  and  C_2
REMARK    2  A    between atoms: C_2  and  N_3
REMARK    3  A    between atoms: C_2  and  C_4
REMARK    4  A    between atoms: N_6  and  C_7
REMARK    5  A    between atoms: C_7  and  C_8
REMARK    6  A    between atoms: C_7  and  C_12
REMARK    7  A    between atoms: C_8  and  C_9
REMARK    8  A    between atoms: C_9  and  C_10
REMARK    9  A    between atoms: C_10  and  N_11
REMARK   10  A    between atoms: N_14  and  C_15
REMARK                            x       y       z     vdW  Elec       q    Type
REMARK                         _______ _______ _______ _____ _____    ______ ____
ROOT
ATOM      1  C   UNL     1       3.683   3.339  17.495  0.00  0.00    +0.000 C 
ENDROOT
BRANCH   1   4
ATOM      2  C   UNL     1       5.700   4.144  16.300  0.00  0.00    +0.000 C 
ATOM      3  O   UNL     1       5.098   4.202  15.230  0.00  0.00    +0.000 OA
ATOM      4  N   UNL     1       5.093   3.749  17.472  0.00  0.00    +0.000 N 
ATOM      5  H   UNL     1       5.627   3.709  18.334  0.00  0.00    +0.000 HD
BRANCH   2   7
ATOM      6  C   UNL     1       7.481   4.806  17.916  0.00  0.00    +0.000 C 
ATOM      7  C   UNL     1       7.170   4.579  16.441  0.00  0.00    +0.000 C 
BRANCH   7   8
ATOM      8  N   UNL     1       7.394   5.823  15.686  0.00  0.00    +0.000 NA
ATOM      9  H   UNL     1       7.097   6.604  16.281  0.00  0.00    +0.000 HD
ATOM     10  H   UNL     1       6.733   5.853  14.907  0.00  0.00    +0.000 HD
ENDBRANCH   7   8
ENDBRANCH   2   7
ENDBRANCH   1   4
BRANCH   1  11
ATOM     11  C   UNL     1       2.733   4.500  17.891  0.00  0.00    +0.000 C 
ATOM     12  O   UNL     1       1.539   4.431  17.607  0.00  0.00    +0.000 OA
ATOM     13  N   UNL     1       3.324   5.559  18.561  0.00  0.00    +0.000 N 
ATOM     14  H   UNL     1       4.322   5.657  18.437  0.00  0.00    +0.000 HD
BRANCH  13  15
ATOM     15  C   UNL     1       2.622   6.655  19.113  0.00  0.00    +0.000 A 
ATOM     16  C   UNL     1       2.071   6.608  20.395  0.00  0.00    +0.000 A 
ATOM     17  C   UNL     1       1.342   7.680  20.903  0.00  0.00    +0.000 A 
ATOM     18  C   UNL     1       1.150   8.834  20.140  0.00  0.00    +0.000 A 
ATOM     19  C   UNL     1       0.391   9.900  20.641  0.00  0.00    +0.000 A 
ATOM     20  C   UNL     1       0.191  11.050  19.881  0.00  0.00    +0.000 A 
ATOM     21  C   UNL     1       0.757  11.146  18.613  0.00  0.00    +0.000 A 
ATOM     22  C   UNL     1       1.521  10.093  18.103  0.00  0.00    +0.000 A 
ATOM     23  C   UNL     1       1.730   8.921  18.853  0.00  0.00    +0.000 A 
ATOM     24  C   UNL     1       2.479   7.829  18.360  0.00  0.00    +0.000 A 
ENDBRANCH  13  15
ENDBRANCH   1  11
BRANCH   1  25
ATOM     25  C   UNL     1       3.502   2.119  18.419  0.00  0.00    +0.000 C 
BRANCH  25  26
ATOM     26  C   UNL     1       3.978   2.286  19.874  0.00  0.00    +0.000 C 
BRANCH  26  27
ATOM     27  C   UNL     1       2.880   2.555  20.906  0.00  0.00    +0.000 C 
BRANCH  27  28
ATOM     28  N   UNL     1       1.554   2.484  20.304  0.00  0.00    +0.000 NA
ATOM     29  H   UNL     1       1.411   1.576  19.870  0.00  0.00    +0.000 HD
ATOM     30  H   UNL     1       1.499   3.167  19.548  0.00  0.00    +0.000 HD
ENDBRANCH  27  28
ENDBRANCH  26  27
ENDBRANCH  25  26
ENDBRANCH   1  25
TORSDOF 9
ENDMDL
MODEL 3
REMARK VINA RESULT:      -7.2      1.061      1.289
REMARK  Name = 
REMARK  10 active torsions:
REMARK  status: ('A' for Active; 'I' for Inactive)
REMARK    1  A    between atoms: C_1  and  C_2
REMARK    2  A    between atoms: C_2  and  N_3
REMARK    3  A    between atoms: C_2  and  C_4
REMARK    4  A    between atoms: N_6  and  C_7
REMARK    5  A    between atoms: C_7  and  C_8
REMARK    6  A    between atoms: C_7  and  C_12
REMARK    7  A    between atoms: C_8  and  C_9
REMARK    8  A    between atoms: C_9  and  C_10
REMARK    9  A    between atoms: C_10  and  N_11
REMARK   10  A    between atoms: N_14  and  C_15
REMARK                            x       y       z     vdW  Elec       q    Type
REMARK                         _______ _______ _______ _____ _____    ______ ____
ROOT
ATOM      1  C   UNL     1       3.782   4.066  18.333  0.00  0.00    +0.000 C 
ENDROOT
BRANCH   1   4
ATOM      2  C   UNL     1       5.530   4.489  16.626  0.00  0.00    +0.000 C 
ATOM      3  O   UNL     1       4.783   4.146  15.712  0.00  0.00    +0.000 OA
ATOM      4  N   UNL     1       5.130   4.501  17.945  0.00  0.00    +0.000 N 
ATOM      5  H   UNL     1       5.779   4.786  18.671  0.00  0.00    +0.000 HD
BRANCH   2   7
ATOM      6  C   UNL     1       7.275   4.879  14.888  0.00  0.00    +0.000 C 
ATOM      7  C   UNL     1       6.957   5.008  16.372  0.00  0.00    +0.000 C 
BRANCH   7   8
ATOM      8  N   UNL     1       7.918   4.218  17.160  0.00  0.00    +0.000 NA
ATOM      9  H   UNL     1       8.303   4.833  17.885  0.00  0.00    +0.000 HD
ATOM     10  H   UNL     1       8.727   4.010  16.571  0.00  0.00    +0.000 HD
ENDBRANCH   7   8
ENDBRANCH   2   7
ENDBRANCH   1   4
BRANCH   1  11
ATOM     11  C   UNL     1       2.756   5.230  18.322  0.00  0.00    +0.000 C 
ATOM     12  O   UNL     1       1.676   5.081  17.753  0.00  0.00    +0.000 OA
ATOM     13  N   UNL     1       3.148   6.383  18.980  0.00  0.00    +0.000 N 
ATOM     14  H   UNL     1       4.144   6.503  19.105  0.00  0.00    +0.000 HD
BRANCH  13  15
ATOM     15  C   UNL     1       2.321   7.511  19.192  0.00  0.00    +0.000 A 
ATOM     16  C   UNL     1       2.071   8.443  18.182  0.00  0.00    +0.000 A 
ATOM     17  C   UNL     1       1.294   9.572  18.424  0.00  0.00    +0.000 A 
ATOM     18  C   UNL     1       0.740   9.797  19.687  0.00  0.00    +0.000 A 
ATOM     19  C   UNL     1      -0.017  10.950  19.936  0.00  0.00    +0.000 A 
ATOM     20  C   UNL     1      -0.565  11.182  21.196  0.00  0.00    +0.000 A 
ATOM     21  C   UNL     1      -0.365  10.256  22.216  0.00  0.00    +0.000 A 
ATOM     22  C   UNL     1       0.383   9.099  21.980  0.00  0.00    +0.000 A 
ATOM     23  C   UNL     1       0.949   8.849  20.715  0.00  0.00    +0.000 A 
ATOM     24  C   UNL     1       1.729   7.702  20.448  0.00  0.00    +0.000 A 
ENDBRANCH  13  15
ENDBRANCH   1  11
BRANCH   1  25
ATOM     25  C   UNL     1       3.828   3.364  19.703  0.00  0.00    +0.000 C 
BRANCH  25  26
ATOM     26  C   UNL     1       2.554   2.612  20.130  0.00  0.00    +0.000 C 
BRANCH  26  27
ATOM     27  C   UNL     1       1.889   1.761  19.046  0.00  0.00    +0.000 C 
BRANCH  27  28
ATOM     28  N   UNL     1       0.626   2.345  18.610  0.00  0.00    +0.000 NA
ATOM     29  H   UNL     1      -0.053   2.326  19.367  0.00  0.00    +0.000 HD
ATOM     30  H   UNL     1       0.233   1.764  17.869  0.00  0.00    +0.000 HD
ENDBRANCH  27  28
ENDBRANCH  26  27
ENDBRANCH  25  26
ENDBRANCH   1  25
TORSDOF 9
ENDMDL
MODEL 4
REMARK VINA RESULT:      -7.2      1.274      1.979
REMARK  Name = 
REMARK  10 active torsions:
REMARK  status: ('A' for Active; 'I' for Inactive)
REMARK    1  A    between atoms: C_1  and  C_2
REMARK    2  A    between atoms: C_2  and  N_3
REMARK    3  A    between atoms: C_2  and  C_4
REMARK    4  A    between atoms: N_6  and  C_7
REMARK    5  A    between atoms: C_7  and  C_8
REMARK    6  A    between atoms: C_7  and  C_12
REMARK    7  A    between atoms: C_8  and  C_9
REMARK    8  A    between atoms: C_9  and  C_10
REMARK    9  A    between atoms: C_10  and  N_11
REMARK   10  A    between atoms: N_14  and  C_15
REMARK                            x       y       z     vdW  Elec       q    Type
REMARK                         _______ _______ _______ _____ _____    ______ ____
ROOT
ATOM      1  C   UNL     1       3.578   3.675  17.413  0.00  0.00    +0.000 C 
ENDROOT
BRANCH   1   4
ATOM      2  C   UNL     1       5.768   4.828  17.271  0.00  0.00    +0.000 C 
ATOM      3  O   UNL     1       5.394   5.519  16.327  0.00  0.00    +0.000 OA
ATOM      4  N   UNL     1       4.950   3.905  17.886  0.00  0.00    +0.000 N 
ATOM      5  H   UNL     1       5.299   3.350  18.659  0.00  0.00    +0.000 HD
BRANCH   2   7
ATOM      6  C   UNL     1       7.572   6.450  17.850  0.00  0.00    +0.000 C 
ATOM      7  C   UNL     1       7.164   4.982  17.902  0.00  0.00    +0.000 C 
BRANCH   7   8
ATOM      8  N   UNL     1       8.137   4.166  17.157  0.00  0.00    +0.000 NA
ATOM      9  H   UNL     1       8.441   4.712  16.343  0.00  0.00    +0.000 HD
ATOM     10  H   UNL     1       7.645   3.373  16.741  0.00  0.00    +0.000 HD
ENDBRANCH   7   8
ENDBRANCH   2   7
ENDBRANCH   1   4
BRANCH   1  11
ATOM     11  C   UNL     1       2.600   4.792  17.865  0.00  0.00    +0.000 C 
ATOM     12  O   UNL     1       1.404   4.696  17.596  0.00  0.00    +0.000 OA
ATOM     13  N   UNL     1       3.168   5.844  18.564  0.00  0.00    +0.000 N 
ATOM     14  H   UNL     1       4.161   5.977  18.430  0.00  0.00    +0.000 HD
BRANCH  13  15
ATOM     15  C   UNL     1       2.442   6.898  19.166  0.00  0.00    +0.000 A 
ATOM     16  C   UNL     1       1.942   6.800  20.466  0.00  0.00    +0.000 A 
ATOM     17  C   UNL     1       1.188   7.830  21.024  0.00  0.00    +0.000 A 
ATOM     18  C   UNL     1       0.919   8.990  20.294  0.00  0.00    +0.000 A 
ATOM     19  C   UNL     1       0.135  10.011  20.846  0.00  0.00    +0.000 A 
ATOM     20  C   UNL     1      -0.142  11.167  20.120  0.00  0.00    +0.000 A 
ATOM     21  C   UNL     1       0.371  11.313  18.834  0.00  0.00    +0.000 A 
ATOM     22  C   UNL     1       1.159  10.304  18.272  0.00  0.00    +0.000 A 
ATOM     23  C   UNL     1       1.446   9.127  18.989  0.00  0.00    +0.000 A 
ATOM     24  C   UNL     1       2.221   8.079  18.445  0.00  0.00    +0.000 A 
ENDBRANCH  13  15
ENDBRANCH   1  11
BRANCH   1  25
ATOM     25  C   UNL     1       3.092   2.283  17.859  0.00  0.00    +0.000 C 
BRANCH  25  26
ATOM     26  C   UNL     1       2.697   2.136  19.340  0.00  0.00    +0.000 C 
BRANCH  26  27
ATOM     27  C   UNL     1       3.806   2.422  20.355  0.00  0.00    +0.000 C 
BRANCH  27  28
ATOM     28  N   UNL     1       5.018   1.672  20.045  0.00  0.00    +0.000 NA
ATOM     29  H   UNL     1       5.399   1.971  19.151  0.00  0.00    +0.000 HD
ATOM     30  H   UNL     1       4.776   0.688  19.930  0.00  0.00    +0.000 HD
ENDBRANCH  27  28
ENDBRANCH  26  27
ENDBRANCH  25  26
ENDBRANCH   1  25
TORSDOF 9
ENDMDL
MODEL 5
REMARK VINA RESULT:      -7.0      1.936      2.928
REMARK  Name = 
REMARK  10 active torsions:
REMARK  status: ('A' for Active; 'I' for Inactive)
REMARK    1  A    between atoms: C_1  and  C_2
REMARK    2  A    between atoms: C_2  and  N_3
REMARK    3  A    between atoms: C_2  and  C_4
REMARK    4  A    between atoms: N_6  and  C_7
REMARK    5  A    between atoms: C_7  and  C_8
REMARK    6  A    between atoms: C_7  and  C_12
REMARK    7  A    between atoms: C_8  and  C_9
REMARK    8  A    between atoms: C_9  and  C_10
REMARK    9  A    between atoms: C_10  and  N_11
REMARK   10  A    between atoms: N_14  and  C_15
REMARK                            x       y       z     vdW  Elec       q    Type
REMARK                         _______ _______ _______ _____ _____    ______ ____
ROOT
ATOM      1  C   UNL     1       4.722   4.878  17.859  0.00  0.00    +0.000 C 
ENDROOT
BRANCH   1   4
ATOM      2  C   UNL     1       5.726   4.311  15.665  0.00  0.00    +0.000 C 
ATOM      3  O   UNL     1       5.702   3.108  15.915  0.00  0.00    +0.000 OA
ATOM      4  N   UNL     1       5.255   5.261  16.545  0.00  0.00    +0.000 N 
ATOM      5  H   UNL     1       5.298   6.245  16.304  0.00  0.00    +0.000 HD
BRANCH   2   7
ATOM      6  C   UNL     1       6.185   3.742  13.281  0.00  0.00    +0.000 C 
ATOM      7  C   UNL     1       6.219   4.861  14.315  0.00  0.00    +0.000 C 
BRANCH   7   8
ATOM      8  N   UNL     1       7.594   5.369  14.458  0.00  0.00    +0.000 NA
ATOM      9  H   UNL     1       8.104   5.125  13.603  0.00  0.00    +0.000 HD
ATOM     10  H   UNL     1       8.067   4.824  15.181  0.00  0.00    +0.000 HD
ENDBRANCH   7   8
ENDBRANCH   2   7
ENDBRANCH   1   4
BRANCH   1  11
ATOM     11  C   UNL     1       3.419   5.642  18.217  0.00  0.00    +0.000 C 
ATOM     12  O   UNL     1       2.395   5.010  18.471  0.00  0.00    +0.000 OA
ATOM     13  N   UNL     1       3.515   7.024  18.227  0.00  0.00    +0.000 N 
ATOM     14  H   UNL     1       4.276   7.417  17.691  0.00  0.00    +0.000 HD
BRANCH  13  15
ATOM     15  C   UNL     1       2.485   7.900  18.641  0.00  0.00    +0.000 A 
ATOM     16  C   UNL     1       1.855   8.771  17.750  0.00  0.00    +0.000 A 
ATOM     17  C   UNL     1       0.877   9.661  18.187  0.00  0.00    +0.000 A 
ATOM     18  C   UNL     1       0.499   9.698  19.531  0.00  0.00    +0.000 A 
ATOM     19  C   UNL     1      -0.464  10.615  19.975  0.00  0.00    +0.000 A 
ATOM     20  C   UNL     1      -0.839  10.660  21.316  0.00  0.00    +0.000 A 
ATOM     21  C   UNL     1      -0.257   9.781  22.225  0.00  0.00    +0.000 A 
ATOM     22  C   UNL     1       0.701   8.857  21.796  0.00  0.00    +0.000 A 
ATOM     23  C   UNL     1       1.096   8.800  20.446  0.00  0.00    +0.000 A 
ATOM     24  C   UNL     1       2.077   7.894  19.982  0.00  0.00    +0.000 A 
ENDBRANCH  13  15
ENDBRANCH   1  11
BRANCH   1  25
ATOM     25  C   UNL     1       5.802   5.064  18.942  0.00  0.00    +0.000 C 
BRANCH  25  26
ATOM     26  C   UNL     1       7.246   5.254  18.444  0.00  0.00    +0.000 C 
BRANCH  26  27
ATOM     27  C   UNL     1       7.729   6.703  18.340  0.00  0.00    +0.000 C 
BRANCH  27  28
ATOM     28  N   UNL     1       7.508   7.243  17.004  0.00  0.00    +0.000 NA
ATOM     29  H   UNL     1       7.989   6.677  16.309  0.00  0.00    +0.000 HD
ATOM     30  H   UNL     1       7.931   8.170  16.949  0.00  0.00    +0.000 HD
ENDBRANCH  27  28
ENDBRANCH  26  27
ENDBRANCH  25  26
ENDBRANCH   1  25
TORSDOF 9
ENDMDL
MODEL 6
REMARK VINA RESULT:      -7.0      1.432      1.688
REMARK  Name = 
REMARK  10 active torsions:
REMARK  status: ('A' for Active; 'I' for Inactive)
REMARK    1  A    between atoms: C_1  and  C_2
REMARK    2  A    between atoms: C_2  and  N_3
REMARK    3  A    between atoms: C_2  and  C_4
REMARK    4  A    between atoms: N_6  and  C_7
REMARK    5  A    between atoms: C_7  and  C_8
REMARK    6  A    between atoms: C_7  and  C_12
REMARK    7  A    between atoms: C_8  and  C_9
REMARK    8  A    between atoms: C_9  and  C_10
REMARK    9  A    between atoms: C_10  and  N_11
REMARK   10  A    between atoms: N_14  and  C_15
REMARK                            x       y       z     vdW  Elec       q    Type
REMARK                         _______ _______ _______ _____ _____    ______ ____
ROOT
ATOM      1  C   UNL     1       3.935   4.484  17.769  0.00  0.00    +0.000 C 
ENDROOT
BRANCH   1   4
ATOM      2  C   UNL     1       5.479   4.234  15.846  0.00  0.00    +0.000 C 
ATOM      3  O   UNL     1       5.465   3.009  15.937  0.00  0.00    +0.000 OA
ATOM      4  N   UNL     1       4.751   5.048  16.686  0.00  0.00    +0.000 N 
ATOM      5  H   UNL     1       4.793   6.056  16.583  0.00  0.00    +0.000 HD
BRANCH   2   7
ATOM      6  C   UNL     1       6.372   4.054  13.525  0.00  0.00    +0.000 C 
ATOM      7  C   UNL     1       6.255   4.969  14.738  0.00  0.00    +0.000 C 
BRANCH   7   8
ATOM      8  N   UNL     1       7.597   5.326  15.227  0.00  0.00    +0.000 NA
ATOM      9  H   UNL     1       7.812   4.711  16.019  0.00  0.00    +0.000 HD
ATOM     10  H   UNL     1       7.552   6.254  15.652  0.00  0.00    +0.000 HD
ENDBRANCH   7   8
ENDBRANCH   2   7
ENDBRANCH   1   4
BRANCH   1  11
ATOM     11  C   UNL     1       2.783   5.431  18.201  0.00  0.00    +0.000 C 
ATOM     12  O   UNL     1       1.681   4.961  18.474  0.00  0.00    +0.000 OA
ATOM     13  N   UNL     1       3.100   6.778  18.252  0.00  0.00    +0.000 N 
ATOM     14  H   UNL     1       3.897   7.065  17.701  0.00  0.00    +0.000 HD
BRANCH  13  15
ATOM     15  C   UNL     1       2.238   7.791  18.734  0.00  0.00    +0.000 A 
ATOM     16  C   UNL     1       1.731   8.788  17.898  0.00  0.00    +0.000 A 
ATOM     17  C   UNL     1       0.923   9.804  18.401  0.00  0.00    +0.000 A 
ATOM     18  C   UNL     1       0.597   9.846  19.758  0.00  0.00    +0.000 A 
ATOM     19  C   UNL     1      -0.192  10.887  20.268  0.00  0.00    +0.000 A 
ATOM     20  C   UNL     1      -0.514  10.938  21.622  0.00  0.00    +0.000 A 
ATOM     21  C   UNL     1      -0.054   9.941  22.478  0.00  0.00    +0.000 A 
ATOM     22  C   UNL     1       0.728   8.894  21.983  0.00  0.00    +0.000 A 
ATOM     23  C   UNL     1       1.068   8.828  20.618  0.00  0.00    +0.000 A 
ATOM     24  C   UNL     1       1.875   7.797  20.088  0.00  0.00    +0.000 A 
ENDBRANCH  13  15
ENDBRANCH   1  11
BRANCH   1  25
ATOM     25  C   UNL     1       4.831   4.102  18.963  0.00  0.00    +0.000 C 
BRANCH  25  26
ATOM     26  C   UNL     1       4.461   2.808  19.711  0.00  0.00    +0.000 C 
BRANCH  26  27
ATOM     27  C   UNL     1       3.438   1.907  19.015  0.00  0.00    +0.000 C 
BRANCH  27  28
ATOM     28  N   UNL     1       4.090   0.909  18.175  0.00  0.00    +0.000 NA
ATOM     29  H   UNL     1       5.074   0.833  18.417  0.00  0.00    +0.000 HD
ATOM     30  H   UNL     1       4.065   1.228  17.206  0.00  0.00    +0.000 HD
ENDBRANCH  27  28
ENDBRANCH  26  27
ENDBRANCH  25  26
ENDBRANCH   1  25
TORSDOF 9
ENDMDL
MODEL 7
REMARK VINA RESULT:      -6.9      1.253      1.960
REMARK  Name = 
REMARK  10 active torsions:
REMARK  status: ('A' for Active; 'I' for Inactive)
REMARK    1  A    between atoms: C_1  and  C_2
REMARK    2  A    between atoms: C_2  and  N_3
REMARK    3  A    between atoms: C_2  and  C_4
REMARK    4  A    between atoms: N_6  and  C_7
REMARK    5  A    between atoms: C_7  and  C_8
REMARK    6  A    between atoms: C_7  and  C_12
REMARK    7  A    between atoms: C_8  and  C_9
REMARK    8  A    between atoms: C_9  and  C_10
REMARK    9  A    between atoms: C_10  and  N_11
REMARK   10  A    between atoms: N_14  and  C_15
REMARK                            x       y       z     vdW  Elec       q    Type
REMARK                         _______ _______ _______ _____ _____    ______ ____
ROOT
ATOM      1  C   UNL     1       3.576   3.918  17.624  0.00  0.00    +0.000 C 
ENDROOT
BRANCH   1   4
ATOM      2  C   UNL     1       5.889   4.797  17.479  0.00  0.00    +0.000 C 
ATOM      3  O   UNL     1       5.693   5.252  16.355  0.00  0.00    +0.000 OA
ATOM      4  N   UNL     1       4.911   4.139  18.193  0.00  0.00    +0.000 N 
ATOM      5  H   UNL     1       5.115   3.772  19.117  0.00  0.00    +0.000 HD
BRANCH   2   7
ATOM      6  C   UNL     1       7.649   6.443  18.118  0.00  0.00    +0.000 C 
ATOM      7  C   UNL     1       7.224   4.984  18.221  0.00  0.00    +0.000 C 
BRANCH   7   8
ATOM      8  N   UNL     1       8.252   4.119  17.618  0.00  0.00    +0.000 NA
ATOM      9  H   UNL     1       8.572   3.467  18.342  0.00  0.00    +0.000 HD
ATOM     10  H   UNL     1       9.081   4.686  17.426  0.00  0.00    +0.000 HD
ENDBRANCH   7   8
ENDBRANCH   2   7
ENDBRANCH   1   4
BRANCH   1  11
ATOM     11  C   UNL     1       2.573   5.037  18.010  0.00  0.00    +0.000 C 
ATOM     12  O   UNL     1       1.403   4.958  17.641  0.00  0.00    +0.000 OA
ATOM     13  N   UNL     1       3.090   6.072  18.772  0.00  0.00    +0.000 N 
ATOM     14  H   UNL     1       4.092   6.197  18.723  0.00  0.00    +0.000 HD
BRANCH  13  15
ATOM     15  C   UNL     1       2.326   7.124  19.328  0.00  0.00    +0.000 A 
ATOM     16  C   UNL     1       1.803   7.052  20.621  0.00  0.00    +0.000 A 
ATOM     17  C   UNL     1       1.012   8.077  21.133  0.00  0.00    +0.000 A 
ATOM     18  C   UNL     1       0.728   9.208  20.364  0.00  0.00    +0.000 A 
ATOM     19  C   UNL     1      -0.093  10.224  20.870  0.00  0.00    +0.000 A 
ATOM     20  C   UNL     1      -0.386  11.350  20.104  0.00  0.00    +0.000 A 
ATOM     21  C   UNL     1       0.149  11.471  18.824  0.00  0.00    +0.000 A 
ATOM     22  C   UNL     1       0.973  10.468  18.308  0.00  0.00    +0.000 A 
ATOM     23  C   UNL     1       1.276   9.320  19.066  0.00  0.00    +0.000 A 
ATOM     24  C   UNL     1       2.088   8.277  18.567  0.00  0.00    +0.000 A 
ENDBRANCH  13  15
ENDBRANCH   1  11
BRANCH   1  25
ATOM     25  C   UNL     1       3.053   2.526  18.028  0.00  0.00    +0.000 C 
BRANCH  25  26
ATOM     26  C   UNL     1       2.688   2.335  19.512  0.00  0.00    +0.000 C 
BRANCH  26  27
ATOM     27  C   UNL     1       1.191   2.312  19.831  0.00  0.00    +0.000 C 
BRANCH  27  28
ATOM     28  N   UNL     1       0.388   2.254  18.615  0.00  0.00    +0.000 NA
ATOM     29  H   UNL     1       0.006   3.172  18.400  0.00  0.00    +0.000 HD
ATOM     30  H   UNL     1      -0.417   1.649  18.781  0.00  0.00    +0.000 HD
ENDBRANCH  27  28
ENDBRANCH  26  27
ENDBRANCH  25  26
ENDBRANCH   1  25
TORSDOF 9
ENDMDL
MODEL 8
REMARK VINA RESULT:      -6.9      3.664      7.993
REMARK  Name = 
REMARK  10 active torsions:
REMARK  status: ('A' for Active; 'I' for Inactive)
REMARK    1  A    between atoms: C_1  and  C_2
REMARK    2  A    between atoms: C_2  and  N_3
REMARK    3  A    between atoms: C_2  and  C_4
REMARK    4  A    between atoms: N_6  and  C_7
REMARK    5  A    between atoms: C_7  and  C_8
REMARK    6  A    between atoms: C_7  and  C_12
REMARK    7  A    between atoms: C_8  and  C_9
REMARK    8  A    between atoms: C_9  and  C_10
REMARK    9  A    between atoms: C_10  and  N_11
REMARK   10  A    between atoms: N_14  and  C_15
REMARK                            x       y       z     vdW  Elec       q    Type
REMARK                         _______ _______ _______ _____ _____    ______ ____
ROOT
ATOM      1  C   UNL     1       1.002   9.694  19.805  0.00  0.00    +0.000 C 
ENDROOT
BRANCH   1   4
ATOM      2  C   UNL     1      -0.137  11.884  19.575  0.00  0.00    +0.000 C 
ATOM      3  O   UNL     1       0.671  12.433  20.321  0.00  0.00    +0.000 OA
ATOM      4  N   UNL     1      -0.054  10.548  19.246  0.00  0.00    +0.000 N 
ATOM      5  H   UNL     1      -0.744  10.131  18.631  0.00  0.00    +0.000 HD
BRANCH   2   7
ATOM      6  C   UNL     1      -2.611  12.134  19.393  0.00  0.00    +0.000 C 
ATOM      7  C   UNL     1      -1.274  12.656  18.882  0.00  0.00    +0.000 C 
BRANCH   7   8
ATOM      8  N   UNL     1      -1.187  12.465  17.424  0.00  0.00    +0.000 NA
ATOM      9  H   UNL     1      -2.136  12.290  17.078  0.00  0.00    +0.000 HD
ATOM     10  H   UNL     1      -0.701  11.585  17.241  0.00  0.00    +0.000 HD
ENDBRANCH   7   8
ENDBRANCH   2   7
ENDBRANCH   1   4
BRANCH   1  11
ATOM     11  C   UNL     1       1.655   8.779  18.735  0.00  0.00    +0.000 C 
ATOM     12  O   UNL     1       1.745   9.172  17.574  0.00  0.00    +0.000 OA
ATOM     13  N   UNL     1       2.106   7.550  19.188  0.00  0.00    +0.000 N 
ATOM     14  H   UNL     1       1.686   7.215  20.045  0.00  0.00    +0.000 HD
BRANCH  13  15
ATOM     15  C   UNL     1       2.834   6.621  18.409  0.00  0.00    +0.000 A 
ATOM     16  C   UNL     1       2.338   5.347  18.125  0.00  0.00    +0.000 A 
ATOM     17  C   UNL     1       3.092   4.430  17.398  0.00  0.00    +0.000 A 
ATOM     18  C   UNL     1       4.363   4.767  16.928  0.00  0.00    +0.000 A 
ATOM     19  C   UNL     1       5.132   3.832  16.222  0.00  0.00    +0.000 A 
ATOM     20  C   UNL     1       6.403   4.162  15.758  0.00  0.00    +0.000 A 
ATOM     21  C   UNL     1       6.914   5.436  15.993  0.00  0.00    +0.000 A 
ATOM     22  C   UNL     1       6.157   6.380  16.691  0.00  0.00    +0.000 A 
ATOM     23  C   UNL     1       4.872   6.064  17.172  0.00  0.00    +0.000 A 
ATOM     24  C   UNL     1       4.088   6.987  17.900  0.00  0.00    +0.000 A 
ENDBRANCH  13  15
ENDBRANCH   1  11
BRANCH   1  25
ATOM     25  C   UNL     1       0.450   8.877  20.988  0.00  0.00    +0.000 C 
BRANCH  25  26
ATOM     26  C   UNL     1       0.632   9.490  22.389  0.00  0.00    +0.000 C 
BRANCH  26  27
ATOM     27  C   UNL     1      -0.636  10.047  23.041  0.00  0.00    +0.000 C 
BRANCH  27  28
ATOM     28  N   UNL     1      -0.633  11.505  23.050  0.00  0.00    +0.000 NA
ATOM     29  H   UNL     1      -1.516  11.858  23.412  0.00  0.00    +0.000 HD
ATOM     30  H   UNL     1      -0.573  11.841  22.088  0.00  0.00    +0.000 HD
ENDBRANCH  27  28
ENDBRANCH  26  27
ENDBRANCH  25  26
ENDBRANCH   1  25
TORSDOF 9
ENDMDL
MODEL 9
REMARK VINA RESULT:      -6.9      1.375      1.893
REMARK  Name = 
REMARK  10 active torsions:
REMARK  status: ('A' for Active; 'I' for Inactive)
REMARK    1  A    between atoms: C_1  and  C_2
REMARK    2  A    between atoms: C_2  and  N_3
REMARK    3  A    between atoms: C_2  and  C_4
REMARK    4  A    between atoms: N_6  and  C_7
REMARK    5  A    between atoms: C_7  and  C_8
REMARK    6  A    between atoms: C_7  and  C_12
REMARK    7  A    between atoms: C_8  and  C_9
REMARK    8  A    between atoms: C_9  and  C_10
REMARK    9  A    between atoms: C_10  and  N_11
REMARK   10  A    between atoms: N_14  and  C_15
REMARK                            x       y       z     vdW  Elec       q    Type
REMARK                         _______ _______ _______ _____ _____    ______ ____
ROOT
ATOM      1  C   UNL     1       3.510   4.656  18.773  0.00  0.00    +0.000 C 
ENDROOT
BRANCH   1   4
ATOM      2  C   UNL     1       5.607   4.410  17.474  0.00  0.00    +0.000 C 
ATOM      3  O   UNL     1       5.086   3.613  16.698  0.00  0.00    +0.000 OA
ATOM      4  N   UNL     1       4.917   4.990  18.516  0.00  0.00    +0.000 N 
ATOM      5  H   UNL     1       5.386   5.640  19.139  0.00  0.00    +0.000 HD
BRANCH   2   7
ATOM      6  C   UNL     1       7.164   6.334  17.777  0.00  0.00    +0.000 C 
ATOM      7  C   UNL     1       7.061   4.888  17.309  0.00  0.00    +0.000 C 
BRANCH   7   8
ATOM      8  N   UNL     1       7.458   4.790  15.894  0.00  0.00    +0.000 NA
ATOM      9  H   UNL     1       7.682   5.736  15.570  0.00  0.00    +0.000 HD
ATOM     10  H   UNL     1       6.635   4.538  15.343  0.00  0.00    +0.000 HD
ENDBRANCH   7   8
ENDBRANCH   2   7
ENDBRANCH   1   4
BRANCH   1  11
ATOM     11  C   UNL     1       2.587   5.903  18.739  0.00  0.00    +0.000 C 
ATOM     12  O   UNL     1       1.841   6.079  17.778  0.00  0.00    +0.000 OA
ATOM     13  N   UNL     1       2.674   6.747  19.833  0.00  0.00    +0.000 N 
ATOM     14  H   UNL     1       3.529   6.685  20.370  0.00  0.00    +0.000 HD
BRANCH  13  15
ATOM     15  C   UNL     1       1.840   7.866  20.057  0.00  0.00    +0.000 A 
ATOM     16  C   UNL     1       1.638   8.843  19.079  0.00  0.00    +0.000 A 
ATOM     17  C   UNL     1       0.851   9.963  19.336  0.00  0.00    +0.000 A 
ATOM     18  C   UNL     1       0.239  10.132  20.580  0.00  0.00    +0.000 A 
ATOM     19  C   UNL     1      -0.527  11.275  20.846  0.00  0.00    +0.000 A 
ATOM     20  C   UNL     1      -1.134  11.451  22.087  0.00  0.00    +0.000 A 
ATOM     21  C   UNL     1      -0.983  10.480  23.073  0.00  0.00    +0.000 A 
ATOM     22  C   UNL     1      -0.226   9.333  22.820  0.00  0.00    +0.000 A 
ATOM     23  C   UNL     1       0.399   9.138  21.573  0.00  0.00    +0.000 A 
ATOM     24  C   UNL     1       1.189   8.002  21.291  0.00  0.00    +0.000 A 
ENDBRANCH  13  15
ENDBRANCH   1  11
BRANCH   1  25
ATOM     25  C   UNL     1       3.384   3.894  20.107  0.00  0.00    +0.000 C 
BRANCH  25  26
ATOM     26  C   UNL     1       2.892   2.438  20.020  0.00  0.00    +0.000 C 
BRANCH  26  27
ATOM     27  C   UNL     1       2.810   1.846  18.611  0.00  0.00    +0.000 C 
BRANCH  27  28
ATOM     28  N   UNL     1       4.034   1.135  18.260  0.00  0.00    +0.000 NA
ATOM     29  H   UNL     1       4.234   1.244  17.268  0.00  0.00    +0.000 HD
ATOM     30  H   UNL     1       3.887   0.136  18.407  0.00  0.00    +0.000 HD
ENDBRANCH  27  28
ENDBRANCH  26  27
ENDBRANCH  25  26
ENDBRANCH   1  25
TORSDOF 9
ENDMDL
