MODEL 1
REMARK VINA RESULT:      -8.0      0.000      0.000
REMARK  Name = 
REMARK  12 active torsions:
REMARK  status: ('A' for Active; 'I' for Inactive)
REMARK    1  A    between atoms: C_1  and  O_2
REMARK    2  A    between atoms: O_2  and  C_3
REMARK    3  A    between atoms: C_7  and  C_8
REMARK    4  A    between atoms: N_11  and  C_12
REMARK    5  A    between atoms: C_12  and  C_13
REMARK    6  A    between atoms: C_13  and  C_14
REMARK    7  A    between atoms: C_19  and  O_20
REMARK    8  A    between atoms: O_20  and  C_21
REMARK    9  A    between atoms: C_22  and  C_23
REMARK   10  A    between atoms: C_23  and  C_24
REMARK   11  A    between atoms: C_24  and  C_25
REMARK   12  A    between atoms: C_24  and  C_26
REMARK                            x       y       z     vdW  Elec       q    Type
REMARK                         _______ _______ _______ _____ _____    ______ ____
ROOT
ATOM      1  C   UNL     1       5.177   4.422  16.244  0.00  0.00    +0.000 A 
ATOM      2  N   UNL     1       4.429   3.380  16.747  0.00  0.00    +0.000 NA
ATOM      3  C   UNL     1       4.013   3.772  17.923  0.00  0.00    +0.000 A 
ATOM      4  N   UNL     1       4.414   5.049  18.206  0.00  0.00    +0.000 N 
ATOM      5  C   UNL     1       5.167   5.498  17.129  0.00  0.00    +0.000 A 
ENDROOT
BRANCH   1  10
ATOM      6  C   UNL     1       5.896   3.551  12.634  0.00  0.00    +0.000 A 
ATOM      7  C   UNL     1       7.090   4.245  12.435  0.00  0.00    +0.000 A 
ATOM      8  C   UNL     1       7.664   4.968  13.479  0.00  0.00    +0.000 A 
ATOM      9  C   UNL     1       7.042   4.997  14.729  0.00  0.00    +0.000 A 
ATOM     10  C   UNL     1       5.840   4.308  14.950  0.00  0.00    +0.000 A 
ATOM     11  C   UNL     1       5.272   3.595  13.884  0.00  0.00    +0.000 A 
BRANCH   6  13
ATOM     12  C   UNL     1       5.878   1.544  11.363  0.00  0.00    +0.000 C 
ATOM     13  O   UNL     1       5.432   2.883  11.532  0.00  0.00    +0.000 OA
ENDBRANCH   6  13
ENDBRANCH   1  10
BRANCH   4  14
ATOM     14  C   UNL     1       4.155   5.761  19.448  0.00  0.00    +0.000 C 
BRANCH  14  15
ATOM     15  C   UNL     1       2.684   5.926  19.862  0.00  0.00    +0.000 C 
BRANCH  15  16
ATOM     16  C   UNL     1       2.161   7.307  19.506  0.00  0.00    +0.000 A 
ATOM     17  C   UNL     1       2.337   7.677  18.145  0.00  0.00    +0.000 A 
ATOM     18  C   UNL     1       1.924   8.912  17.645  0.00  0.00    +0.000 A 
ATOM     19  C   UNL     1       1.315   9.819  18.492  0.00  0.00    +0.000 A 
ATOM     20  C   UNL     1       1.140   9.482  19.833  0.00  0.00    +0.000 A 
ATOM     21  C   UNL     1       1.562   8.244  20.362  0.00  0.00    +0.000 A 
BRANCH  21  22
ATOM     22  O   UNL     1       1.276   8.204  21.695  0.00  0.00    +0.000 OA
ATOM     23  C   UNL     1       0.379   9.094  22.319  0.00  0.00    +0.000 C 
ENDBRANCH  21  22
ENDBRANCH  15  16
ENDBRANCH  14  15
ENDBRANCH   4  14
BRANCH   5  24
ATOM     24  C   UNL     1       5.767   6.873  17.060  0.00  0.00    +0.000 C 
BRANCH  24  25
ATOM     25  C   UNL     1       7.281   6.904  17.342  0.00  0.00    +0.000 C 
ATOM     26  C   UNL     1       7.820   8.311  17.624  0.00  0.00    +0.000 C 
ATOM     27  C   UNL     1       7.603   5.994  18.532  0.00  0.00    +0.000 C 
ENDBRANCH  24  25
ENDBRANCH   5  24
TORSDOF 8
ENDMDL
MODEL 2
REMARK VINA RESULT:      -7.8      2.394      4.832
REMARK  Name = 
REMARK  12 active torsions:
REMARK  status: ('A' for Active; 'I' for Inactive)
REMARK    1  A    between atoms: C_1  and  O_2
REMARK    2  A    between atoms: O_2  and  C_3
REMARK    3  A    between atoms: C_7  and  C_8
REMARK    4  A    between atoms: N_11  and  C_12
REMARK    5  A    between atoms: C_12  and  C_13
REMARK    6  A    between atoms: C_13  and  C_14
REMARK    7  A    between atoms: C_19  and  O_20
REMARK    8  A    between atoms: O_20  and  C_21
REMARK    9  A    between atoms: C_22  and  C_23
REMARK   10  A    between atoms: C_23  and  C_24
REMARK   11  A    between atoms: C_24  and  C_25
REMARK   12  A    between atoms: C_24  and  C_26
REMARK                            x       y       z     vdW  Elec       q    Type
REMARK                         _______ _______ _______ _____ _____    ______ ____
ROOT
ATOM      1  C   UNL     1       3.238   6.595  18.195  0.00  0.00    +0.000 A 
ATOM      2  N   UNL     1       2.903   7.862  17.772  0.00  0.00    +0.000 NA
ATOM      3  C   UNL     1       2.118   8.352  18.696  0.00  0.00    +0.000 A 
ATOM      4  N   UNL     1       1.953   7.482  19.739  0.00  0.00    +0.000 N 
ATOM      5  C   UNL     1       2.675   6.334  19.442  0.00  0.00    +0.000 A 
ENDROOT
BRANCH   1  10
ATOM      6  C   UNL     1       6.052   5.352  15.992  0.00  0.00    +0.000 A 
ATOM      7  C   UNL     1       5.742   3.994  15.922  0.00  0.00    +0.000 A 
ATOM      8  C   UNL     1       4.611   3.497  16.567  0.00  0.00    +0.000 A 
ATOM      9  C   UNL     1       3.785   4.363  17.287  0.00  0.00    +0.000 A 
ATOM     10  C   UNL     1       4.079   5.732  17.372  0.00  0.00    +0.000 A 
ATOM     11  C   UNL     1       5.227   6.212  16.724  0.00  0.00    +0.000 A 
BRANCH   6  13
ATOM     12  C   UNL     1       7.380   5.141  14.033  0.00  0.00    +0.000 C 
ATOM     13  O   UNL     1       7.188   5.716  15.320  0.00  0.00    +0.000 OA
ENDBRANCH   6  13
ENDBRANCH   1  10
BRANCH   4  14
ATOM     14  C   UNL     1       1.107   7.706  20.901  0.00  0.00    +0.000 C 
BRANCH  14  15
ATOM     15  C   UNL     1       1.561   8.787  21.895  0.00  0.00    +0.000 C 
BRANCH  15  16
ATOM     16  C   UNL     1       0.571   9.937  21.953  0.00  0.00    +0.000 A 
ATOM     17  C   UNL     1      -0.369   9.859  23.016  0.00  0.00    +0.000 A 
ATOM     18  C   UNL     1      -1.356  10.825  23.215  0.00  0.00    +0.000 A 
ATOM     19  C   UNL     1      -1.432  11.906  22.356  0.00  0.00    +0.000 A 
ATOM     20  C   UNL     1      -0.527  11.998  21.301  0.00  0.00    +0.000 A 
ATOM     21  C   UNL     1       0.470  11.027  21.074  0.00  0.00    +0.000 A 
BRANCH  21  22
ATOM     22  O   UNL     1       1.191  11.371  19.969  0.00  0.00    +0.000 OA
ATOM     23  C   UNL     1       1.087  12.629  19.341  0.00  0.00    +0.000 C 
ENDBRANCH  21  22
ENDBRANCH  15  16
ENDBRANCH  14  15
ENDBRANCH   4  14
BRANCH   5  24
ATOM     24  C   UNL     1       2.757   5.151  20.364  0.00  0.00    +0.000 C 
BRANCH  24  25
ATOM     25  C   UNL     1       1.463   4.316  20.418  0.00  0.00    +0.000 C 
ATOM     26  C   UNL     1       1.103   3.664  19.080  0.00  0.00    +0.000 C 
ATOM     27  C   UNL     1       1.597   3.228  21.489  0.00  0.00    +0.000 C 
ENDBRANCH  24  25
ENDBRANCH   5  24
TORSDOF 8
ENDMDL
MODEL 3
REMARK VINA RESULT:      -7.6      2.234      8.156
REMARK  Name = 
REMARK  12 active torsions:
REMARK  status: ('A' for Active; 'I' for Inactive)
REMARK    1  A    between atoms: C_1  and  O_2
REMARK    2  A    between atoms: O_2  and  C_3
REMARK    3  A    between atoms: C_7  and  C_8
REMARK    4  A    between atoms: N_11  and  C_12
REMARK    5  A    between atoms: C_12  and  C_13
REMARK    6  A    between atoms: C_13  and  C_14
REMARK    7  A    between atoms: C_19  and  O_20
REMARK    8  A    between atoms: O_20  and  C_21
REMARK    9  A    between atoms: C_22  and  C_23
REMARK   10  A    between atoms: C_23  and  C_24
REMARK   11  A    between atoms: C_24  and  C_25
REMARK   12  A    between atoms: C_24  and  C_26
REMARK                            x       y       z     vdW  Elec       q    Type
REMARK                         _______ _______ _______ _____ _____    ______ ____
ROOT
ATOM      1  C   UNL     1       2.444   7.267  19.301  0.00  0.00    +0.000 A 
ATOM      2  N   UNL     1       3.131   7.555  18.142  0.00  0.00    +0.000 NA
ATOM      3  C   UNL     1       3.884   6.514  17.904  0.00  0.00    +0.000 A 
ATOM      4  N   UNL     1       3.696   5.525  18.830  0.00  0.00    +0.000 N 
ATOM      5  C   UNL     1       2.760   5.986  19.747  0.00  0.00    +0.000 A 
ENDROOT
BRANCH   1  10
ATOM      6  C   UNL     1       0.121  10.222  19.729  0.00  0.00    +0.000 A 
ATOM      7  C   UNL     1      -0.335  10.004  21.030  0.00  0.00    +0.000 A 
ATOM      8  C   UNL     1       0.132   8.916  21.764  0.00  0.00    +0.000 A 
ATOM      9  C   UNL     1       1.061   8.041  21.197  0.00  0.00    +0.000 A 
ATOM     10  C   UNL     1       1.532   8.241  19.891  0.00  0.00    +0.000 A 
ATOM     11  C   UNL     1       1.043   9.336  19.163  0.00  0.00    +0.000 A 
BRANCH   6  13
ATOM     12  C   UNL     1      -0.069  12.589  19.652  0.00  0.00    +0.000 C 
ATOM     13  O   UNL     1      -0.415  11.320  19.111  0.00  0.00    +0.000 OA
ENDBRANCH   6  13
ENDBRANCH   1  10
BRANCH   4  14
ATOM     14  C   UNL     1       4.413   4.259  18.875  0.00  0.00    +0.000 C 
BRANCH  14  15
ATOM     15  C   UNL     1       4.434   3.426  17.584  0.00  0.00    +0.000 C 
BRANCH  15  16
ATOM     16  C   UNL     1       5.452   3.964  16.594  0.00  0.00    +0.000 A 
ATOM     17  C   UNL     1       5.009   3.998  15.244  0.00  0.00    +0.000 A 
ATOM     18  C   UNL     1       5.817   4.454  14.203  0.00  0.00    +0.000 A 
ATOM     19  C   UNL     1       7.097   4.898  14.479  0.00  0.00    +0.000 A 
ATOM     20  C   UNL     1       7.556   4.866  15.794  0.00  0.00    +0.000 A 
ATOM     21  C   UNL     1       6.761   4.396  16.860  0.00  0.00    +0.000 A 
BRANCH  21  22
ATOM     22  O   UNL     1       7.476   4.466  18.019  0.00  0.00    +0.000 OA
ATOM     23  C   UNL     1       7.727   5.675  18.699  0.00  0.00    +0.000 C 
ENDBRANCH  21  22
ENDBRANCH  15  16
ENDBRANCH  14  15
ENDBRANCH   4  14
BRANCH   5  24
ATOM     24  C   UNL     1       2.273   5.167  20.909  0.00  0.00    +0.000 C 
BRANCH  24  25
ATOM     25  C   UNL     1       1.142   4.185  20.544  0.00  0.00    +0.000 C 
ATOM     26  C   UNL     1       1.048   3.895  19.043  0.00  0.00    +0.000 C 
ATOM     27  C   UNL     1       1.340   2.867  21.301  0.00  0.00    +0.000 C 
ENDBRANCH  24  25
ENDBRANCH   5  24
TORSDOF 8
ENDMDL
MODEL 4
REMARK VINA RESULT:      -7.6      1.898      8.271
REMARK  Name = 
REMARK  12 active torsions:
REMARK  status: ('A' for Active; 'I' for Inactive)
REMARK    1  A    between atoms: C_1  and  O_2
REMARK    2  A    between atoms: O_2  and  C_3
REMARK    3  A    between atoms: C_7  and  C_8
REMARK    4  A    between atoms: N_11  and  C_12
REMARK    5  A    between atoms: C_12  and  C_13
REMARK    6  A    between atoms: C_13  and  C_14
REMARK    7  A    between atoms: C_19  and  O_20
REMARK    8  A    between atoms: O_20  and  C_21
REMARK    9  A    between atoms: C_22  and  C_23
REMARK   10  A    between atoms: C_23  and  C_24
REMARK   11  A    between atoms: C_24  and  C_25
REMARK   12  A    between atoms: C_24  and  C_26
REMARK                            x       y       z     vdW  Elec       q    Type
REMARK                         _______ _______ _______ _____ _____    ______ ____
ROOT
ATOM      1  C   UNL     1       2.675   7.416  18.795  0.00  0.00    +0.000 A 
ATOM      2  N   UNL     1       3.337   7.832  17.661  0.00  0.00    +0.000 NA
ATOM      3  C   UNL     1       4.179   6.877  17.367  0.00  0.00    +0.000 A 
ATOM      4  N   UNL     1       4.075   5.821  18.231  0.00  0.00    +0.000 N 
ATOM      5  C   UNL     1       3.100   6.142  19.165  0.00  0.00    +0.000 A 
ENDROOT
BRANCH   1  10
ATOM      6  C   UNL     1       0.524   9.095  21.415  0.00  0.00    +0.000 A 
ATOM      7  C   UNL     1      -0.143  10.039  20.633  0.00  0.00    +0.000 A 
ATOM      8  C   UNL     1       0.092  10.107  19.261  0.00  0.00    +0.000 A 
ATOM      9  C   UNL     1       0.997   9.226  18.666  0.00  0.00    +0.000 A 
ATOM     10  C   UNL     1       1.680   8.270  19.434  0.00  0.00    +0.000 A 
ATOM     11  C   UNL     1       1.439   8.224  20.815  0.00  0.00    +0.000 A 
BRANCH   6  13
ATOM     12  C   UNL     1      -0.698  10.144  23.162  0.00  0.00    +0.000 C 
ATOM     13  O   UNL     1       0.212   9.132  22.748  0.00  0.00    +0.000 OA
ENDBRANCH   6  13
ENDBRANCH   1  10
BRANCH   4  14
ATOM     14  C   UNL     1       4.899   4.622  18.205  0.00  0.00    +0.000 C 
BRANCH  14  15
ATOM     15  C   UNL     1       4.753   3.702  16.982  0.00  0.00    +0.000 C 
BRANCH  15  16
ATOM     16  C   UNL     1       5.688   4.120  15.861  0.00  0.00    +0.000 A 
ATOM     17  C   UNL     1       5.304   3.669  14.568  0.00  0.00    +0.000 A 
ATOM     18  C   UNL     1       6.051   3.953  13.425  0.00  0.00    +0.000 A 
ATOM     19  C   UNL     1       7.206   4.704  13.536  0.00  0.00    +0.000 A 
ATOM     20  C   UNL     1       7.606   5.149  14.794  0.00  0.00    +0.000 A 
ATOM     21  C   UNL     1       6.874   4.863  15.965  0.00  0.00    +0.000 A 
BRANCH  21  22
ATOM     22  O   UNL     1       7.511   5.410  17.039  0.00  0.00    +0.000 OA
ATOM     23  C   UNL     1       7.542   6.795  17.295  0.00  0.00    +0.000 C 
ENDBRANCH  21  22
ENDBRANCH  15  16
ENDBRANCH  14  15
ENDBRANCH   4  14
BRANCH   5  24
ATOM     24  C   UNL     1       2.682   5.216  20.272  0.00  0.00    +0.000 C 
BRANCH  24  25
ATOM     25  C   UNL     1       1.383   4.442  19.976  0.00  0.00    +0.000 C 
ATOM     26  C   UNL     1       1.313   3.893  18.547  0.00  0.00    +0.000 C 
ATOM     27  C   UNL     1       1.234   3.284  20.969  0.00  0.00    +0.000 C 
ENDBRANCH  24  25
ENDBRANCH   5  24
TORSDOF 8
ENDMDL
MODEL 5
REMARK VINA RESULT:      -7.5      1.988      4.268
REMARK  Name = 
REMARK  12 active torsions:
REMARK  status: ('A' for Active; 'I' for Inactive)
REMARK    1  A    between atoms: C_1  and  O_2
REMARK    2  A    between atoms: O_2  and  C_3
REMARK    3  A    between atoms: C_7  and  C_8
REMARK    4  A    between atoms: N_11  and  C_12
REMARK    5  A    between atoms: C_12  and  C_13
REMARK    6  A    between atoms: C_13  and  C_14
REMARK    7  A    between atoms: C_19  and  O_20
REMARK    8  A    between atoms: O_20  and  C_21
REMARK    9  A    between atoms: C_22  and  C_23
REMARK   10  A    between atoms: C_23  and  C_24
REMARK   11  A    between atoms: C_24  and  C_25
REMARK   12  A    between atoms: C_24  and  C_26
REMARK                            x       y       z     vdW  Elec       q    Type
REMARK                         _______ _______ _______ _____ _____    ______ ____
ROOT
ATOM      1  C   UNL     1       3.977   6.607  18.044  0.00  0.00    +0.000 A 
ATOM      2  N   UNL     1       3.653   7.797  17.430  0.00  0.00    +0.000 NA
ATOM      3  C   UNL     1       2.622   8.268  18.081  0.00  0.00    +0.000 A 
ATOM      4  N   UNL     1       2.273   7.464  19.133  0.00  0.00    +0.000 N 
ATOM      5  C   UNL     1       3.142   6.381  19.136  0.00  0.00    +0.000 A 
ENDROOT
BRANCH   1  10
ATOM      6  C   UNL     1       6.024   4.284  15.871  0.00  0.00    +0.000 A 
ATOM      7  C   UNL     1       7.249   4.321  16.539  0.00  0.00    +0.000 A 
ATOM      8  C   UNL     1       7.394   5.078  17.699  0.00  0.00    +0.000 A 
ATOM      9  C   UNL     1       6.308   5.802  18.197  0.00  0.00    +0.000 A 
ATOM     10  C   UNL     1       5.069   5.780  17.541  0.00  0.00    +0.000 A 
ATOM     11  C   UNL     1       4.945   5.021  16.368  0.00  0.00    +0.000 A 
BRANCH   6  13
ATOM     12  C   UNL     1       6.391   4.143  13.528  0.00  0.00    +0.000 C 
ATOM     13  O   UNL     1       6.011   3.509  14.742  0.00  0.00    +0.000 OA
ENDBRANCH   6  13
ENDBRANCH   1  10
BRANCH   4  14
ATOM     14  C   UNL     1       1.145   7.682  20.026  0.00  0.00    +0.000 C 
BRANCH  14  15
ATOM     15  C   UNL     1       1.457   8.266  21.413  0.00  0.00    +0.000 C 
BRANCH  15  16
ATOM     16  C   UNL     1       0.629   9.509  21.689  0.00  0.00    +0.000 A 
ATOM     17  C   UNL     1      -0.216   9.419  22.829  0.00  0.00    +0.000 A 
ATOM     18  C   UNL     1      -1.051  10.463  23.225  0.00  0.00    +0.000 A 
ATOM     19  C   UNL     1      -1.066  11.637  22.495  0.00  0.00    +0.000 A 
ATOM     20  C   UNL     1      -0.252  11.745  21.369  0.00  0.00    +0.000 A 
ATOM     21  C   UNL     1       0.591  10.697  20.943  0.00  0.00    +0.000 A 
BRANCH  21  22
ATOM     22  O   UNL     1       1.249  11.080  19.812  0.00  0.00    +0.000 OA
ATOM     23  C   UNL     1       0.676  11.914  18.830  0.00  0.00    +0.000 C 
ENDBRANCH  21  22
ENDBRANCH  15  16
ENDBRANCH  14  15
ENDBRANCH   4  14
BRANCH   5  24
ATOM     24  C   UNL     1       3.088   5.285  20.162  0.00  0.00    +0.000 C 
BRANCH  24  25
ATOM     25  C   UNL     1       2.500   3.964  19.629  0.00  0.00    +0.000 C 
ATOM     26  C   UNL     1       1.621   4.147  18.387  0.00  0.00    +0.000 C 
ATOM     27  C   UNL     1       3.636   2.989  19.303  0.00  0.00    +0.000 C 
ENDBRANCH  24  25
ENDBRANCH   5  24
TORSDOF 8
ENDMDL
MODEL 6
REMARK VINA RESULT:      -7.4      2.203      8.139
REMARK  Name = 
REMARK  12 active torsions:
REMARK  status: ('A' for Active; 'I' for Inactive)
REMARK    1  A    between atoms: C_1  and  O_2
REMARK    2  A    between atoms: O_2  and  C_3
REMARK    3  A    between atoms: C_7  and  C_8
REMARK    4  A    between atoms: N_11  and  C_12
REMARK    5  A    between atoms: C_12  and  C_13
REMARK    6  A    between atoms: C_13  and  C_14
REMARK    7  A    between atoms: C_19  and  O_20
REMARK    8  A    between atoms: O_20  and  C_21
REMARK    9  A    between atoms: C_22  and  C_23
REMARK   10  A    between atoms: C_23  and  C_24
REMARK   11  A    between atoms: C_24  and  C_25
REMARK   12  A    between atoms: C_24  and  C_26
REMARK                            x       y       z     vdW  Elec       q    Type
REMARK                         _______ _______ _______ _____ _____    ______ ____
ROOT
ATOM      1  C   UNL     1       2.387   7.387  19.270  0.00  0.00    +0.000 A 
ATOM      2  N   UNL     1       3.001   7.745  18.090  0.00  0.00    +0.000 NA
ATOM      3  C   UNL     1       3.758   6.732  17.758  0.00  0.00    +0.000 A 
ATOM      4  N   UNL     1       3.639   5.695  18.643  0.00  0.00    +0.000 N 
ATOM      5  C   UNL     1       2.749   6.092  19.632  0.00  0.00    +0.000 A 
ENDROOT
BRANCH   1  10
ATOM      6  C   UNL     1      -0.099  10.158  19.943  0.00  0.00    +0.000 A 
ATOM      7  C   UNL     1      -0.326   9.974  21.307  0.00  0.00    +0.000 A 
ATOM      8  C   UNL     1       0.347   8.970  22.002  0.00  0.00    +0.000 A 
ATOM      9  C   UNL     1       1.252   8.146  21.329  0.00  0.00    +0.000 A 
ATOM     10  C   UNL     1       1.494   8.313  19.957  0.00  0.00    +0.000 A 
ATOM     11  C   UNL     1       0.800   9.322  19.273  0.00  0.00    +0.000 A 
BRANCH   6  13
ATOM     12  C   UNL     1      -1.512  10.867  18.169  0.00  0.00    +0.000 C 
ATOM     13  O   UNL     1      -0.822  11.173  19.375  0.00  0.00    +0.000 OA
ENDBRANCH   6  13
ENDBRANCH   1  10
BRANCH   4  14
ATOM     14  C   UNL     1       4.379   4.443  18.583  0.00  0.00    +0.000 C 
BRANCH  14  15
ATOM     15  C   UNL     1       5.890   4.539  18.323  0.00  0.00    +0.000 C 
BRANCH  15  16
ATOM     16  C   UNL     1       6.191   4.632  16.837  0.00  0.00    +0.000 A 
ATOM     17  C   UNL     1       5.526   3.665  16.035  0.00  0.00    +0.000 A 
ATOM     18  C   UNL     1       5.692   3.598  14.651  0.00  0.00    +0.000 A 
ATOM     19  C   UNL     1       6.528   4.502  14.022  0.00  0.00    +0.000 A 
ATOM     20  C   UNL     1       7.197   5.453  14.790  0.00  0.00    +0.000 A 
ATOM     21  C   UNL     1       7.053   5.531  16.191  0.00  0.00    +0.000 A 
BRANCH  21  22
ATOM     22  O   UNL     1       7.835   6.540  16.668  0.00  0.00    +0.000 OA
ATOM     23  C   UNL     1       7.326   7.628  17.407  0.00  0.00    +0.000 C 
ENDBRANCH  21  22
ENDBRANCH  15  16
ENDBRANCH  14  15
ENDBRANCH   4  14
BRANCH   5  24
ATOM     24  C   UNL     1       2.342   5.207  20.776  0.00  0.00    +0.000 C 
BRANCH  24  25
ATOM     25  C   UNL     1       1.170   4.263  20.444  0.00  0.00    +0.000 C 
ATOM     26  C   UNL     1       1.101   3.875  18.964  0.00  0.00    +0.000 C 
ATOM     27  C   UNL     1       1.276   2.992  21.294  0.00  0.00    +0.000 C 
ENDBRANCH  24  25
ENDBRANCH   5  24
TORSDOF 8
ENDMDL
MODEL 7
REMARK VINA RESULT:      -7.4      1.022      1.698
REMARK  Name = 
REMARK  12 active torsions:
REMARK  status: ('A' for Active; 'I' for Inactive)
REMARK    1  A    between atoms: C_1  and  O_2
REMARK    2  A    between atoms: O_2  and  C_3
REMARK    3  A    between atoms: C_7  and  C_8
REMARK    4  A    between atoms: N_11  and  C_12
REMARK    5  A    between atoms: C_12  and  C_13
REMARK    6  A    between atoms: C_13  and  C_14
REMARK    7  A    between atoms: C_19  and  O_20
REMARK    8  A    between atoms: O_20  and  C_21
REMARK    9  A    between atoms: C_22  and  C_23
REMARK   10  A    between atoms: C_23  and  C_24
REMARK   11  A    between atoms: C_24  and  C_25
REMARK   12  A    between atoms: C_24  and  C_26
REMARK                            x       y       z     vdW  Elec       q    Type
REMARK                         _______ _______ _______ _____ _____    ______ ____
ROOT
ATOM      1  C   UNL     1       5.054   4.499  16.260  0.00  0.00    +0.000 A 
ATOM      2  N   UNL     1       4.275   3.442  16.677  0.00  0.00    +0.000 NA
ATOM      3  C   UNL     1       3.862   3.753  17.878  0.00  0.00    +0.000 A 
ATOM      4  N   UNL     1       4.294   4.993  18.261  0.00  0.00    +0.000 N 
ATOM      5  C   UNL     1       5.067   5.503  17.225  0.00  0.00    +0.000 A 
ENDROOT
BRANCH   1  10
ATOM      6  C   UNL     1       7.547   5.113  13.482  0.00  0.00    +0.000 A 
ATOM      7  C   UNL     1       7.050   4.257  12.498  0.00  0.00    +0.000 A 
ATOM      8  C   UNL     1       5.899   3.508  12.734  0.00  0.00    +0.000 A 
ATOM      9  C   UNL     1       5.240   3.615  13.960  0.00  0.00    +0.000 A 
ATOM     10  C   UNL     1       5.723   4.468  14.964  0.00  0.00    +0.000 A 
ATOM     11  C   UNL     1       6.888   5.206  14.712  0.00  0.00    +0.000 A 
BRANCH   6  13
ATOM     12  C   UNL     1       8.668   6.456  11.875  0.00  0.00    +0.000 C 
ATOM     13  O   UNL     1       8.684   5.790  13.131  0.00  0.00    +0.000 OA
ENDBRANCH   6  13
ENDBRANCH   1  10
BRANCH   4  14
ATOM     14  C   UNL     1       4.046   5.614  19.553  0.00  0.00    +0.000 C 
BRANCH  14  15
ATOM     15  C   UNL     1       2.577   5.834  19.949  0.00  0.00    +0.000 C 
BRANCH  15  16
ATOM     16  C   UNL     1       2.107   7.230  19.576  0.00  0.00    +0.000 A 
ATOM     17  C   UNL     1       2.331   7.589  18.219  0.00  0.00    +0.000 A 
ATOM     18  C   UNL     1       1.970   8.835  17.706  0.00  0.00    +0.000 A 
ATOM     19  C   UNL     1       1.367   9.764  18.534  0.00  0.00    +0.000 A 
ATOM     20  C   UNL     1       1.146   9.436  19.870  0.00  0.00    +0.000 A 
ATOM     21  C   UNL     1       1.515   8.188  20.413  0.00  0.00    +0.000 A 
BRANCH  21  22
ATOM     22  O   UNL     1       1.193   8.160  21.738  0.00  0.00    +0.000 OA
ATOM     23  C   UNL     1       0.868   9.315  22.478  0.00  0.00    +0.000 C 
ENDBRANCH  21  22
ENDBRANCH  15  16
ENDBRANCH  14  15
ENDBRANCH   4  14
BRANCH   5  24
ATOM     24  C   UNL     1       5.703   6.864  17.266  0.00  0.00    +0.000 C 
BRANCH  24  25
ATOM     25  C   UNL     1       7.233   6.827  17.449  0.00  0.00    +0.000 C 
ATOM     26  C   UNL     1       7.860   8.216  17.610  0.00  0.00    +0.000 C 
ATOM     27  C   UNL     1       7.585   5.971  18.670  0.00  0.00    +0.000 C 
ENDBRANCH  24  25
ENDBRANCH   5  24
TORSDOF 8
ENDMDL
MODEL 8
REMARK VINA RESULT:      -7.4      3.829     10.428
REMARK  Name = 
REMARK  12 active torsions:
REMARK  status: ('A' for Active; 'I' for Inactive)
REMARK    1  A    between atoms: C_1  and  O_2
REMARK    2  A    between atoms: O_2  and  C_3
REMARK    3  A    between atoms: C_7  and  C_8
REMARK    4  A    between atoms: N_11  and  C_12
REMARK    5  A    between atoms: C_12  and  C_13
REMARK    6  A    between atoms: C_13  and  C_14
REMARK    7  A    between atoms: C_19  and  O_20
REMARK    8  A    between atoms: O_20  and  C_21
REMARK    9  A    between atoms: C_22  and  C_23
REMARK   10  A    between atoms: C_23  and  C_24
REMARK   11  A    between atoms: C_24  and  C_25
REMARK   12  A    between atoms: C_24  and  C_26
REMARK                            x       y       z     vdW  Elec       q    Type
REMARK                         _______ _______ _______ _____ _____    ______ ____
ROOT
ATOM      1  C   UNL     1       0.267  10.417  21.606  0.00  0.00    +0.000 A 
ATOM      2  N   UNL     1       0.877   9.585  22.519  0.00  0.00    +0.000 NA
ATOM      3  C   UNL     1       1.454   8.645  21.816  0.00  0.00    +0.000 A 
ATOM      4  N   UNL     1       1.292   8.841  20.471  0.00  0.00    +0.000 N 
ATOM      5  C   UNL     1       0.529   9.989  20.307  0.00  0.00    +0.000 A 
ENDROOT
BRANCH   1  10
ATOM      6  C   UNL     1      -2.375  12.532  23.297  0.00  0.00    +0.000 A 
ATOM      7  C   UNL     1      -1.906  13.813  23.001  0.00  0.00    +0.000 A 
ATOM      8  C   UNL     1      -0.754  13.980  22.237  0.00  0.00    +0.000 A 
ATOM      9  C   UNL     1      -0.065  12.861  21.764  0.00  0.00    +0.000 A 
ATOM     10  C   UNL     1      -0.517  11.564  22.051  0.00  0.00    +0.000 A 
ATOM     11  C   UNL     1      -1.673  11.416  22.831  0.00  0.00    +0.000 A 
BRANCH   6  13
ATOM     12  C   UNL     1      -4.411  13.593  23.910  0.00  0.00    +0.000 C 
ATOM     13  O   UNL     1      -3.513  12.500  24.059  0.00  0.00    +0.000 OA
ENDBRANCH   6  13
ENDBRANCH   1  10
BRANCH   4  14
ATOM     14  C   UNL     1       1.772   7.953  19.423  0.00  0.00    +0.000 C 
BRANCH  14  15
ATOM     15  C   UNL     1       2.782   6.870  19.836  0.00  0.00    +0.000 C 
BRANCH  15  16
ATOM     16  C   UNL     1       2.267   5.480  19.508  0.00  0.00    +0.000 A 
ATOM     17  C   UNL     1       1.421   4.910  20.498  0.00  0.00    +0.000 A 
ATOM     18  C   UNL     1       0.866   3.637  20.365  0.00  0.00    +0.000 A 
ATOM     19  C   UNL     1       1.136   2.892  19.233  0.00  0.00    +0.000 A 
ATOM     20  C   UNL     1       1.970   3.427  18.253  0.00  0.00    +0.000 A 
ATOM     21  C   UNL     1       2.552   4.706  18.372  0.00  0.00    +0.000 A 
BRANCH  21  22
ATOM     22  O   UNL     1       3.327   4.951  17.277  0.00  0.00    +0.000 OA
ATOM     23  C   UNL     1       4.244   4.017  16.755  0.00  0.00    +0.000 C 
ENDBRANCH  21  22
ENDBRANCH  15  16
ENDBRANCH  14  15
ENDBRANCH   4  14
BRANCH   5  24
ATOM     24  C   UNL     1       0.157  10.545  18.962  0.00  0.00    +0.000 C 
BRANCH  24  25
ATOM     25  C   UNL     1      -1.360  10.546  18.690  0.00  0.00    +0.000 C 
ATOM     26  C   UNL     1      -1.985  11.944  18.733  0.00  0.00    +0.000 C 
ATOM     27  C   UNL     1      -1.639   9.912  17.323  0.00  0.00    +0.000 C 
ENDBRANCH  24  25
ENDBRANCH   5  24
TORSDOF 8
ENDMDL
MODEL 9
REMARK VINA RESULT:      -7.2      2.133      8.462
REMARK  Name = 
REMARK  12 active torsions:
REMARK  status: ('A' for Active; 'I' for Inactive)
REMARK    1  A    between atoms: C_1  and  O_2
REMARK    2  A    between atoms: O_2  and  C_3
REMARK    3  A    between atoms: C_7  and  C_8
REMARK    4  A    between atoms: N_11  and  C_12
REMARK    5  A    between atoms: C_12  and  C_13
REMARK    6  A    between atoms: C_13  and  C_14
REMARK    7  A    between atoms: C_19  and  O_20
REMARK    8  A    between atoms: O_20  and  C_21
REMARK    9  A    between atoms: C_22  and  C_23
REMARK   10  A    between atoms: C_23  and  C_24
REMARK   11  A    between atoms: C_24  and  C_25
REMARK   12  A    between atoms: C_24  and  C_26
REMARK                            x       y       z     vdW  Elec       q    Type
REMARK                         _______ _______ _______ _____ _____    ______ ____
ROOT
ATOM      1  C   UNL     1       2.173   7.896  19.032  0.00  0.00    +0.000 A 
ATOM      2  N   UNL     1       2.903   8.179  17.899  0.00  0.00    +0.000 NA
ATOM      3  C   UNL     1       3.687   7.149  17.710  0.00  0.00    +0.000 A 
ATOM      4  N   UNL     1       3.477   6.172  18.645  0.00  0.00    +0.000 N 
ATOM      5  C   UNL     1       2.494   6.628  19.512  0.00  0.00    +0.000 A 
ENDROOT
BRANCH   1  10
ATOM      6  C   UNL     1       0.222  10.081  21.425  0.00  0.00    +0.000 A 
ATOM      7  C   UNL     1      -0.534  10.835  20.526  0.00  0.00    +0.000 A 
ATOM      8  C   UNL     1      -0.423  10.612  19.156  0.00  0.00    +0.000 A 
ATOM      9  C   UNL     1       0.448   9.629  18.679  0.00  0.00    +0.000 A 
ATOM     10  C   UNL     1       1.218   8.861  19.565  0.00  0.00    +0.000 A 
ATOM     11  C   UNL     1       1.101   9.107  20.941  0.00  0.00    +0.000 A 
BRANCH   6  13
ATOM     12  C   UNL     1      -1.181  11.075  23.065  0.00  0.00    +0.000 C 
ATOM     13  O   UNL     1       0.027  10.398  22.743  0.00  0.00    +0.000 OA
ENDBRANCH   6  13
ENDBRANCH   1  10
BRANCH   4  14
ATOM     14  C   UNL     1       4.216   4.921  18.741  0.00  0.00    +0.000 C 
BRANCH  14  15
ATOM     15  C   UNL     1       5.730   4.986  18.485  0.00  0.00    +0.000 C 
BRANCH  15  16
ATOM     16  C   UNL     1       6.050   4.810  17.011  0.00  0.00    +0.000 A 
ATOM     17  C   UNL     1       5.327   3.770  16.366  0.00  0.00    +0.000 A 
ATOM     18  C   UNL     1       5.501   3.464  15.016  0.00  0.00    +0.000 A 
ATOM     19  C   UNL     1       6.404   4.192  14.264  0.00  0.00    +0.000 A 
ATOM     20  C   UNL     1       7.130   5.211  14.878  0.00  0.00    +0.000 A 
ATOM     21  C   UNL     1       6.980   5.529  16.244  0.00  0.00    +0.000 A 
BRANCH  21  22
ATOM     22  O   UNL     1       7.826   6.549  16.564  0.00  0.00    +0.000 OA
ATOM     23  C   UNL     1       7.497   7.563  17.486  0.00  0.00    +0.000 C 
ENDBRANCH  21  22
ENDBRANCH  15  16
ENDBRANCH  14  15
ENDBRANCH   4  14
BRANCH   5  24
ATOM     24  C   UNL     1       1.973   5.818  20.665  0.00  0.00    +0.000 C 
BRANCH  24  25
ATOM     25  C   UNL     1       2.029   4.296  20.430  0.00  0.00    +0.000 C 
ATOM     26  C   UNL     1       2.216   3.487  21.717  0.00  0.00    +0.000 C 
ATOM     27  C   UNL     1       0.748   3.836  19.727  0.00  0.00    +0.000 C 
ENDBRANCH  24  25
ENDBRANCH   5  24
TORSDOF 8
ENDMDL
