MODEL 1
REMARK VINA RESULT:      -6.5      0.000      0.000
REMARK  Name = 
REMARK  2 active torsions:
REMARK  status: ('A' for Active; 'I' for Inactive)
REMARK    1  A    between atoms: C_1  and  C_2
REMARK    2  A    between atoms: C_7  and  C_8
REMARK                            x       y       z     vdW  Elec       q    Type
REMARK                         _______ _______ _______ _____ _____    ______ ____
ROOT
ATOM      1  C   UNL     1       3.369   7.570  17.485  0.00  0.00    +0.000 C 
ATOM      2  C   UNL     1       4.330   6.450  17.100  0.00  0.00    +0.000 C 
ATOM      3  C   UNL     1       5.742   6.738  17.629  0.00  0.00    +0.000 C 
ATOM      4  C   UNL     1       6.368   5.616  18.369  0.00  0.00    +0.000 C 
ATOM      5 CL   UNL     1       7.988   5.852  18.905  0.00  0.00    +0.000 Cl
ATOM      6  C   UNL     1       5.711   4.488  18.649  0.00  0.00    +0.000 C 
ATOM      7  C   UNL     1       4.274   4.262  18.308  0.00  0.00    +0.000 C 
ATOM      8  O   UNL     1       3.710   5.205  17.399  0.00  0.00    +0.000 OA
ENDROOT
BRANCH   7   9
ATOM      9  C   UNL     1       3.390   4.163  19.585  0.00  0.00    +0.000 C 
ATOM     10  C   UNL     1       3.562   2.795  20.285  0.00  0.00    +0.000 C 
ATOM     11  C   UNL     1       2.624   2.606  21.474  0.00  0.00    +0.000 C 
ATOM     12  C   UNL     1       1.174   2.852  21.091  0.00  0.00    +0.000 C 
ATOM     13  C   UNL     1       1.005   4.239  20.488  0.00  0.00    +0.000 C 
ATOM     14  C   UNL     1       1.903   4.430  19.267  0.00  0.00    +0.000 C 
ENDBRANCH   7   9
TORSDOF 1
ENDMDL
MODEL 2
REMARK VINA RESULT:      -6.4      2.181      2.790
REMARK  Name = 
REMARK  2 active torsions:
REMARK  status: ('A' for Active; 'I' for Inactive)
REMARK    1  A    between atoms: C_1  and  C_2
REMARK    2  A    between atoms: C_7  and  C_8
REMARK                            x       y       z     vdW  Elec       q    Type
REMARK                         _______ _______ _______ _____ _____    ______ ____
ROOT
ATOM      1  C   UNL     1       5.346   4.441  16.239  0.00  0.00    +0.000 C 
ATOM      2  C   UNL     1       5.354   5.571  17.264  0.00  0.00    +0.000 C 
ATOM      3  C   UNL     1       4.389   6.690  16.848  0.00  0.00    +0.000 C 
ATOM      4  C   UNL     1       3.451   7.126  17.911  0.00  0.00    +0.000 C 
ATOM      5 CL   UNL     1       2.409   8.442  17.527  0.00  0.00    +0.000 Cl
ATOM      6  C   UNL     1       3.377   6.516  19.095  0.00  0.00    +0.000 C 
ATOM      7  C   UNL     1       4.175   5.303  19.452  0.00  0.00    +0.000 C 
ATOM      8  O   UNL     1       5.246   4.998  18.562  0.00  0.00    +0.000 OA
ENDROOT
BRANCH   7   9
ATOM      9  C   UNL     1       3.267   4.053  19.637  0.00  0.00    +0.000 C 
ATOM     10  C   UNL     1       2.444   3.760  18.363  0.00  0.00    +0.000 C 
ATOM     11  C   UNL     1       1.450   2.615  18.538  0.00  0.00    +0.000 C 
ATOM     12  C   UNL     1       0.547   2.835  19.741  0.00  0.00    +0.000 C 
ATOM     13  C   UNL     1       1.372   3.030  21.005  0.00  0.00    +0.000 C 
ATOM     14  C   UNL     1       2.341   4.203  20.863  0.00  0.00    +0.000 C 
ENDBRANCH   7   9
TORSDOF 1
ENDMDL
MODEL 3
REMARK VINA RESULT:      -6.4      2.124      2.833
REMARK  Name = 
REMARK  2 active torsions:
REMARK  status: ('A' for Active; 'I' for Inactive)
REMARK    1  A    between atoms: C_1  and  C_2
REMARK    2  A    between atoms: C_7  and  C_8
REMARK                            x       y       z     vdW  Elec       q    Type
REMARK                         _______ _______ _______ _____ _____    ______ ____
ROOT
ATOM      1  C   UNL     1       7.205   5.615  19.148  0.00  0.00    +0.000 C 
ATOM      2  C   UNL     1       6.592   6.145  17.855  0.00  0.00    +0.000 C 
ATOM      3  C   UNL     1       7.125   5.369  16.642  0.00  0.00    +0.000 C 
ATOM      4  C   UNL     1       6.079   4.870  15.717  0.00  0.00    +0.000 C 
ATOM      5 CL   UNL     1       6.625   4.073  14.291  0.00  0.00    +0.000 Cl
ATOM      6  C   UNL     1       4.775   4.989  15.978  0.00  0.00    +0.000 C 
ATOM      7  C   UNL     1       4.237   5.573  17.245  0.00  0.00    +0.000 C 
ATOM      8  O   UNL     1       5.188   6.271  18.044  0.00  0.00    +0.000 OA
ENDROOT
BRANCH   7   9
ATOM      9  C   UNL     1       3.506   4.501  18.105  0.00  0.00    +0.000 C 
ATOM     10  C   UNL     1       3.162   3.247  17.270  0.00  0.00    +0.000 C 
ATOM     11  C   UNL     1       2.338   2.219  18.039  0.00  0.00    +0.000 C 
ATOM     12  C   UNL     1       1.089   2.839  18.644  0.00  0.00    +0.000 C 
ATOM     13  C   UNL     1       1.452   4.017  19.538  0.00  0.00    +0.000 C 
ATOM     14  C   UNL     1       2.238   5.078  18.770  0.00  0.00    +0.000 C 
ENDBRANCH   7   9
TORSDOF 1
ENDMDL
MODEL 4
REMARK VINA RESULT:      -6.4      2.539      5.133
REMARK  Name = 
REMARK  2 active torsions:
REMARK  status: ('A' for Active; 'I' for Inactive)
REMARK    1  A    between atoms: C_1  and  C_2
REMARK    2  A    between atoms: C_7  and  C_8
REMARK                            x       y       z     vdW  Elec       q    Type
REMARK                         _______ _______ _______ _____ _____    ______ ____
ROOT
ATOM      1  C   UNL     1       3.876   1.309  18.491  0.00  0.00    +0.000 C 
ATOM      2  C   UNL     1       2.721   2.241  18.140  0.00  0.00    +0.000 C 
ATOM      3  C   UNL     1       2.102   2.842  19.409  0.00  0.00    +0.000 C 
ATOM      4  C   UNL     1       1.938   4.316  19.380  0.00  0.00    +0.000 C 
ATOM      5 CL   UNL     1       1.164   5.034  20.741  0.00  0.00    +0.000 Cl
ATOM      6  C   UNL     1       2.396   5.068  18.377  0.00  0.00    +0.000 C 
ATOM      7  C   UNL     1       3.169   4.521  17.221  0.00  0.00    +0.000 C 
ATOM      8  O   UNL     1       3.144   3.102  17.090  0.00  0.00    +0.000 OA
ENDROOT
BRANCH   7   9
ATOM      9  C   UNL     1       4.641   5.027  17.225  0.00  0.00    +0.000 C 
ATOM     10  C   UNL     1       5.519   4.217  16.244  0.00  0.00    +0.000 C 
ATOM     11  C   UNL     1       6.996   4.597  16.303  0.00  0.00    +0.000 C 
ATOM     12  C   UNL     1       7.539   4.524  17.720  0.00  0.00    +0.000 C 
ATOM     13  C   UNL     1       6.719   5.401  18.657  0.00  0.00    +0.000 C 
ATOM     14  C   UNL     1       5.244   5.003  18.645  0.00  0.00    +0.000 C 
ENDBRANCH   7   9
TORSDOF 1
ENDMDL
MODEL 5
REMARK VINA RESULT:      -6.4      1.849      2.514
REMARK  Name = 
REMARK  2 active torsions:
REMARK  status: ('A' for Active; 'I' for Inactive)
REMARK    1  A    between atoms: C_1  and  C_2
REMARK    2  A    between atoms: C_7  and  C_8
REMARK                            x       y       z     vdW  Elec       q    Type
REMARK                         _______ _______ _______ _____ _____    ______ ____
ROOT
ATOM      1  C   UNL     1       5.549   4.401  14.634  0.00  0.00    +0.000 C 
ATOM      2  C   UNL     1       6.459   4.378  15.859  0.00  0.00    +0.000 C 
ATOM      3  C   UNL     1       7.136   5.740  16.059  0.00  0.00    +0.000 C 
ATOM      4  C   UNL     1       7.031   6.288  17.434  0.00  0.00    +0.000 C 
ATOM      5 CL   UNL     1       7.852   7.771  17.739  0.00  0.00    +0.000 Cl
ATOM      6  C   UNL     1       6.308   5.696  18.388  0.00  0.00    +0.000 C 
ATOM      7  C   UNL     1       5.486   4.469  18.159  0.00  0.00    +0.000 C 
ATOM      8  O   UNL     1       5.744   3.785  16.936  0.00  0.00    +0.000 OA
ENDROOT
BRANCH   7   9
ATOM      9  C   UNL     1       3.964   4.765  18.291  0.00  0.00    +0.000 C 
ATOM     10  C   UNL     1       3.564   5.020  19.762  0.00  0.00    +0.000 C 
ATOM     11  C   UNL     1       2.061   5.196  19.956  0.00  0.00    +0.000 C 
ATOM     12  C   UNL     1       1.279   4.035  19.364  0.00  0.00    +0.000 C 
ATOM     13  C   UNL     1       1.615   3.855  17.890  0.00  0.00    +0.000 C 
ATOM     14  C   UNL     1       3.112   3.632  17.683  0.00  0.00    +0.000 C 
ENDBRANCH   7   9
TORSDOF 1
ENDMDL
MODEL 6
REMARK VINA RESULT:      -6.3      1.985      2.772
REMARK  Name = 
REMARK  2 active torsions:
REMARK  status: ('A' for Active; 'I' for Inactive)
REMARK    1  A    between atoms: C_1  and  C_2
REMARK    2  A    between atoms: C_7  and  C_8
REMARK                            x       y       z     vdW  Elec       q    Type
REMARK                         _______ _______ _______ _____ _____    ______ ____
ROOT
ATOM      1  C   UNL     1       5.614   4.382  14.791  0.00  0.00    +0.000 C 
ATOM      2  C   UNL     1       6.661   4.496  15.895  0.00  0.00    +0.000 C 
ATOM      3  C   UNL     1       7.155   5.943  16.028  0.00  0.00    +0.000 C 
ATOM      4  C   UNL     1       7.143   6.477  17.411  0.00  0.00    +0.000 C 
ATOM      5 CL   UNL     1       7.774   8.064  17.632  0.00  0.00    +0.000 Cl
ATOM      6  C   UNL     1       6.635   5.793  18.439  0.00  0.00    +0.000 C 
ATOM      7  C   UNL     1       5.975   4.459  18.298  0.00  0.00    +0.000 C 
ATOM      8  O   UNL     1       6.176   3.812  17.043  0.00  0.00    +0.000 OA
ENDROOT
BRANCH   7   9
ATOM      9  C   UNL     1       4.454   4.534  18.618  0.00  0.00    +0.000 C 
ATOM     10  C   UNL     1       3.742   3.202  18.291  0.00  0.00    +0.000 C 
ATOM     11  C   UNL     1       2.229   3.267  18.476  0.00  0.00    +0.000 C 
ATOM     12  C   UNL     1       1.618   4.424  17.702  0.00  0.00    +0.000 C 
ATOM     13  C   UNL     1       2.267   5.741  18.103  0.00  0.00    +0.000 C 
ATOM     14  C   UNL     1       3.778   5.709  17.881  0.00  0.00    +0.000 C 
ENDBRANCH   7   9
TORSDOF 1
ENDMDL
MODEL 7
REMARK VINA RESULT:      -6.3      2.375      5.077
REMARK  Name = 
REMARK  2 active torsions:
REMARK  status: ('A' for Active; 'I' for Inactive)
REMARK    1  A    between atoms: C_1  and  C_2
REMARK    2  A    between atoms: C_7  and  C_8
REMARK                            x       y       z     vdW  Elec       q    Type
REMARK                         _______ _______ _______ _____ _____    ______ ____
ROOT
ATOM      1  C   UNL     1       3.510   1.539  18.472  0.00  0.00    +0.000 C 
ATOM      2  C   UNL     1       2.645   2.739  18.101  0.00  0.00    +0.000 C 
ATOM      3  C   UNL     1       2.065   3.401  19.358  0.00  0.00    +0.000 C 
ATOM      4  C   UNL     1       2.254   4.871  19.426  0.00  0.00    +0.000 C 
ATOM      5 CL   UNL     1       1.543   5.679  20.771  0.00  0.00    +0.000 Cl
ATOM      6  C   UNL     1       2.969   5.544  18.523  0.00  0.00    +0.000 C 
ATOM      7  C   UNL     1       3.700   4.891  17.395  0.00  0.00    +0.000 C 
ATOM      8  O   UNL     1       3.356   3.529  17.156  0.00  0.00    +0.000 OA
ENDROOT
BRANCH   7   9
ATOM      9  C   UNL     1       5.242   5.028  17.555  0.00  0.00    +0.000 C 
ATOM     10  C   UNL     1       5.634   5.307  19.024  0.00  0.00    +0.000 C 
ATOM     11  C   UNL     1       7.126   5.569  19.210  0.00  0.00    +0.000 C 
ATOM     12  C   UNL     1       7.622   6.670  18.287  0.00  0.00    +0.000 C 
ATOM     13  C   UNL     1       7.311   6.336  16.835  0.00  0.00    +0.000 C 
ATOM     14  C   UNL     1       5.814   6.116  16.622  0.00  0.00    +0.000 C 
ENDBRANCH   7   9
TORSDOF 1
ENDMDL
MODEL 8
REMARK VINA RESULT:      -6.2      0.910      1.279
REMARK  Name = 
REMARK  2 active torsions:
REMARK  status: ('A' for Active; 'I' for Inactive)
REMARK    1  A    between atoms: C_1  and  C_2
REMARK    2  A    between atoms: C_7  and  C_8
REMARK                            x       y       z     vdW  Elec       q    Type
REMARK                         _______ _______ _______ _____ _____    ______ ____
ROOT
ATOM      1  C   UNL     1       3.323   7.366  17.537  0.00  0.00    +0.000 C 
ATOM      2  C   UNL     1       4.441   6.441  17.065  0.00  0.00    +0.000 C 
ATOM      3  C   UNL     1       5.734   6.706  17.848  0.00  0.00    +0.000 C 
ATOM      4  C   UNL     1       6.377   5.494  18.411  0.00  0.00    +0.000 C 
ATOM      5 CL   UNL     1       7.880   5.722  19.221  0.00  0.00    +0.000 Cl
ATOM      6  C   UNL     1       5.815   4.285  18.339  0.00  0.00    +0.000 C 
ATOM      7  C   UNL     1       4.465   4.036  17.747  0.00  0.00    +0.000 C 
ATOM      8  O   UNL     1       3.925   5.117  16.992  0.00  0.00    +0.000 OA
ENDROOT
BRANCH   7   9
ATOM      9  C   UNL     1       3.441   3.579  18.826  0.00  0.00    +0.000 C 
ATOM     10  C   UNL     1       2.058   3.284  18.202  0.00  0.00    +0.000 C 
ATOM     11  C   UNL     1       0.989   2.948  19.238  0.00  0.00    +0.000 C 
ATOM     12  C   UNL     1       0.893   4.019  20.312  0.00  0.00    +0.000 C 
ATOM     13  C   UNL     1       2.243   4.232  20.982  0.00  0.00    +0.000 C 
ATOM     14  C   UNL     1       3.316   4.615  19.963  0.00  0.00    +0.000 C 
ENDBRANCH   7   9
TORSDOF 1
ENDMDL
MODEL 9
REMARK VINA RESULT:      -6.2      2.375      5.090
REMARK  Name = 
REMARK  2 active torsions:
REMARK  status: ('A' for Active; 'I' for Inactive)
REMARK    1  A    between atoms: C_1  and  C_2
REMARK    2  A    between atoms: C_7  and  C_8
REMARK                            x       y       z     vdW  Elec       q    Type
REMARK                         _______ _______ _______ _____ _____    ______ ____
ROOT
ATOM      1  C   UNL     1       4.426   2.194  20.058  0.00  0.00    +0.000 C 
ATOM      2  C   UNL     1       3.125   2.779  19.516  0.00  0.00    +0.000 C 
ATOM      3  C   UNL     1       2.583   3.864  20.457  0.00  0.00    +0.000 C 
ATOM      4  C   UNL     1       2.224   5.139  19.791  0.00  0.00    +0.000 C 
ATOM      5 CL   UNL     1       1.524   6.360  20.784  0.00  0.00    +0.000 Cl
ATOM      6  C   UNL     1       2.460   5.362  18.496  0.00  0.00    +0.000 C 
ATOM      7  C   UNL     1       3.161   4.388  17.604  0.00  0.00    +0.000 C 
ATOM      8  O   UNL     1       3.307   3.074  18.137  0.00  0.00    +0.000 OA
ENDROOT
BRANCH   7   9
ATOM      9  C   UNL     1       4.544   4.929  17.139  0.00  0.00    +0.000 C 
ATOM     10  C   UNL     1       5.286   3.897  16.260  0.00  0.00    +0.000 C 
ATOM     11  C   UNL     1       6.698   4.335  15.879  0.00  0.00    +0.000 C 
ATOM     12  C   UNL     1       7.518   4.710  17.102  0.00  0.00    +0.000 C 
ATOM     13  C   UNL     1       6.817   5.795  17.908  0.00  0.00    +0.000 C 
ATOM     14  C   UNL     1       5.418   5.354  18.337  0.00  0.00    +0.000 C 
ENDBRANCH   7   9
TORSDOF 1
ENDMDL
