MODEL 1
REMARK VINA RESULT:      -6.8      0.000      0.000
REMARK  Name = 
REMARK  11 active torsions:
REMARK  status: ('A' for Active; 'I' for Inactive)
REMARK    1  A    between atoms: C_2  and  C_10
REMARK    2  A    between atoms: N_3  and  C_4
REMARK    3  A    between atoms: C_4  and  C_5
REMARK    4  A    between atoms: C_5  and  S_6
REMARK    5  A    between atoms: S_6  and  O_9
REMARK    6  A    between atoms: C_10  and  C_11
REMARK    7  A    between atoms: C_10  and  C_13
REMARK    8  A    between atoms: C_11  and  S_12
REMARK    9  A    between atoms: C_13  and  C_14
REMARK   10  A    between atoms: C_14  and  C_15
REMARK   11  A    between atoms: C_15  and  C_16
REMARK                            x       y       z     vdW  Elec       q    Type
REMARK                         _______ _______ _______ _____ _____    ______ ____
ROOT
ATOM      1  C   UNL     1       5.598   4.927  14.923  0.00  0.00    +0.000 C 
ENDROOT
BRANCH   1   3
ATOM      2  O   UNL     1       5.081   7.178  15.677  0.00  0.00    +0.000 OA
ATOM      3  C   UNL     1       5.815   6.197  15.744  0.00  0.00    +0.000 C 
ATOM      4  N   UNL     1       6.920   6.170  16.574  0.00  0.00    +0.000 N 
ATOM      5  H   UNL     1       7.612   5.445  16.427  0.00  0.00    +0.000 HD
BRANCH   4   6
ATOM      6  C   UNL     1       7.293   7.362  17.324  0.00  0.00    +0.000 C 
BRANCH   6   7
ATOM      7  C   UNL     1       8.016   7.012  18.604  0.00  0.00    +0.000 C 
BRANCH   7   8
ATOM      8  S   UNL     1       7.455   5.435  19.209  0.00  0.00    +0.000 S 
ATOM      9  O   UNL     1       6.046   5.506  19.515  0.00  0.00    +0.000 OA
ATOM     10  O   UNL     1       8.040   4.371  18.428  0.00  0.00    +0.000 OA
BRANCH   8  11
ATOM     11  O   UNL     1       8.206   5.483  20.638  0.00  0.00    +0.000 OA
ATOM     12  H   UNL     1       7.663   4.972  21.278  0.00  0.00    +0.000 HD
ENDBRANCH   8  11
ENDBRANCH   7   8
ENDBRANCH   6   7
ENDBRANCH   4   6
ENDBRANCH   1   3
BRANCH   1  13
ATOM     13  C   UNL     1       6.840   4.642  14.051  0.00  0.00    +0.000 C 
BRANCH  13  14
ATOM     14  S   UNL     1       6.560   3.715  12.505  0.00  0.00    +0.000 S 
ATOM     15  H   UNL     1       7.867   3.609  12.184  0.00  0.00    +0.000 HD
ENDBRANCH  13  14
ENDBRANCH   1  13
BRANCH   1  16
ATOM     16  C   UNL     1       5.201   3.719  15.796  0.00  0.00    +0.000 C 
BRANCH  16  17
ATOM     17  C   UNL     1       4.163   4.049  16.876  0.00  0.00    +0.000 C 
BRANCH  17  18
ATOM     18  C   UNL     1       3.831   2.825  17.737  0.00  0.00    +0.000 C 
BRANCH  18  19
ATOM     19  C   UNL     1       2.900   3.188  18.869  0.00  0.00    +0.000 A 
ATOM     20  C   UNL     1       2.286   2.193  19.641  0.00  0.00    +0.000 A 
ATOM     21  C   UNL     1       1.406   2.537  20.670  0.00  0.00    +0.000 A 
ATOM     22  C   UNL     1       1.131   3.879  20.936  0.00  0.00    +0.000 A 
ATOM     23  C   UNL     1       1.738   4.874  20.174  0.00  0.00    +0.000 A 
ATOM     24  C   UNL     1       2.616   4.534  19.146  0.00  0.00    +0.000 A 
ENDBRANCH  18  19
ENDBRANCH  17  18
ENDBRANCH  16  17
ENDBRANCH   1  16
TORSDOF 11
ENDMDL
MODEL 2
REMARK VINA RESULT:      -6.6      1.007      1.221
REMARK  Name = 
REMARK  11 active torsions:
REMARK  status: ('A' for Active; 'I' for Inactive)
REMARK    1  A    between atoms: C_2  and  C_10
REMARK    2  A    between atoms: N_3  and  C_4
REMARK    3  A    between atoms: C_4  and  C_5
REMARK    4  A    between atoms: C_5  and  S_6
REMARK    5  A    between atoms: S_6  and  O_9
REMARK    6  A    between atoms: C_10  and  C_11
REMARK    7  A    between atoms: C_10  and  C_13
REMARK    8  A    between atoms: C_11  and  S_12
REMARK    9  A    between atoms: C_13  and  C_14
REMARK   10  A    between atoms: C_14  and  C_15
REMARK   11  A    between atoms: C_15  and  C_16
REMARK                            x       y       z     vdW  Elec       q    Type
REMARK                         _______ _______ _______ _____ _____    ______ ____
ROOT
ATOM      1  C   UNL     1       4.806   4.834  15.887  0.00  0.00    +0.000 C 
ENDROOT
BRANCH   1   3
ATOM      2  O   UNL     1       4.702   7.085  16.794  0.00  0.00    +0.000 OA
ATOM      3  C   UNL     1       5.377   6.094  16.534  0.00  0.00    +0.000 C 
ATOM      4  N   UNL     1       6.733   6.048  16.799  0.00  0.00    +0.000 N 
ATOM      5  H   UNL     1       7.281   5.315  16.364  0.00  0.00    +0.000 HD
BRANCH   4   6
ATOM      6  C   UNL     1       7.412   7.229  17.313  0.00  0.00    +0.000 C 
BRANCH   6   7
ATOM      7  C   UNL     1       8.023   6.973  18.671  0.00  0.00    +0.000 C 
BRANCH   7   8
ATOM      8  S   UNL     1       7.503   5.387  19.285  0.00  0.00    +0.000 S 
ATOM      9  O   UNL     1       6.101   5.433  19.627  0.00  0.00    +0.000 OA
ATOM     10  O   UNL     1       8.086   4.334  18.486  0.00  0.00    +0.000 OA
BRANCH   8  11
ATOM     11  O   UNL     1       8.289   5.442  20.695  0.00  0.00    +0.000 OA
ATOM     12  H   UNL     1       8.994   4.758  20.672  0.00  0.00    +0.000 HD
ENDBRANCH   8  11
ENDBRANCH   7   8
ENDBRANCH   6   7
ENDBRANCH   4   6
ENDBRANCH   1   3
BRANCH   1  13
ATOM     13  C   UNL     1       5.953   3.924  15.396  0.00  0.00    +0.000 C 
BRANCH  13  14
ATOM     14  S   UNL     1       6.293   3.929  13.604  0.00  0.00    +0.000 S 
ATOM     15  H   UNL     1       5.802   5.168  13.387  0.00  0.00    +0.000 HD
ENDBRANCH  13  14
ENDBRANCH   1  13
BRANCH   1  16
ATOM     16  C   UNL     1       3.819   4.091  16.811  0.00  0.00    +0.000 C 
BRANCH  16  17
ATOM     17  C   UNL     1       4.364   2.771  17.369  0.00  0.00    +0.000 C 
BRANCH  17  18
ATOM     18  C   UNL     1       3.236   1.831  17.810  0.00  0.00    +0.000 C 
BRANCH  18  19
ATOM     19  C   UNL     1       2.557   2.340  19.059  0.00  0.00    +0.000 A 
ATOM     20  C   UNL     1       1.209   2.722  19.039  0.00  0.00    +0.000 A 
ATOM     21  C   UNL     1       0.595   3.216  20.193  0.00  0.00    +0.000 A 
ATOM     22  C   UNL     1       1.325   3.334  21.376  0.00  0.00    +0.000 A 
ATOM     23  C   UNL     1       2.664   2.956  21.405  0.00  0.00    +0.000 A 
ATOM     24  C   UNL     1       3.279   2.463  20.255  0.00  0.00    +0.000 A 
ENDBRANCH  18  19
ENDBRANCH  17  18
ENDBRANCH  16  17
ENDBRANCH   1  16
TORSDOF 11
ENDMDL
MODEL 3
REMARK VINA RESULT:      -6.4      3.800      7.460
REMARK  Name = 
REMARK  11 active torsions:
REMARK  status: ('A' for Active; 'I' for Inactive)
REMARK    1  A    between atoms: C_2  and  C_10
REMARK    2  A    between atoms: N_3  and  C_4
REMARK    3  A    between atoms: C_4  and  C_5
REMARK    4  A    between atoms: C_5  and  S_6
REMARK    5  A    between atoms: S_6  and  O_9
REMARK    6  A    between atoms: C_10  and  C_11
REMARK    7  A    between atoms: C_10  and  C_13
REMARK    8  A    between atoms: C_11  and  S_12
REMARK    9  A    between atoms: C_13  and  C_14
REMARK   10  A    between atoms: C_14  and  C_15
REMARK   11  A    between atoms: C_15  and  C_16
REMARK                            x       y       z     vdW  Elec       q    Type
REMARK                         _______ _______ _______ _____ _____    ______ ____
ROOT
ATOM      1  C   UNL     1       7.082   5.611  18.207  0.00  0.00    +0.000 C 
ENDROOT
BRANCH   1   3
ATOM      2  O   UNL     1       4.729   5.933  18.720  0.00  0.00    +0.000 OA
ATOM      3  C   UNL     1       5.688   5.170  18.649  0.00  0.00    +0.000 C 
ATOM      4  N   UNL     1       5.580   3.833  18.983  0.00  0.00    +0.000 N 
ATOM      5  H   UNL     1       6.432   3.305  19.129  0.00  0.00    +0.000 HD
BRANCH   4   6
ATOM      6  C   UNL     1       4.328   3.320  19.523  0.00  0.00    +0.000 C 
BRANCH   6   7
ATOM      7  C   UNL     1       3.429   2.786  18.433  0.00  0.00    +0.000 C 
BRANCH   7   8
ATOM      8  S   UNL     1       1.783   3.432  18.629  0.00  0.00    +0.000 S 
ATOM      9  O   UNL     1       1.318   3.966  17.371  0.00  0.00    +0.000 OA
ATOM     10  O   UNL     1       0.996   2.536  19.444  0.00  0.00    +0.000 OA
BRANCH   8  11
ATOM     11  O   UNL     1       2.170   4.719  19.524  0.00  0.00    +0.000 OA
ATOM     12  H   UNL     1       3.122   4.646  19.757  0.00  0.00    +0.000 HD
ENDBRANCH   8  11
ENDBRANCH   7   8
ENDBRANCH   6   7
ENDBRANCH   4   6
ENDBRANCH   1   3
BRANCH   1  13
ATOM     13  C   UNL     1       7.664   4.596  17.200  0.00  0.00    +0.000 C 
BRANCH  13  14
ATOM     14  S   UNL     1       6.871   4.524  15.559  0.00  0.00    +0.000 S 
ATOM     15  H   UNL     1       8.020   4.351  14.871  0.00  0.00    +0.000 HD
ENDBRANCH  13  14
ENDBRANCH   1  13
BRANCH   1  16
ATOM     16  C   UNL     1       7.101   7.055  17.666  0.00  0.00    +0.000 C 
BRANCH  16  17
ATOM     17  C   UNL     1       8.221   7.924  18.254  0.00  0.00    +0.000 C 
BRANCH  17  18
ATOM     18  C   UNL     1       8.100   9.385  17.808  0.00  0.00    +0.000 C 
BRANCH  18  19
ATOM     19  C   UNL     1       9.121  10.255  18.500  0.00  0.00    +0.000 A 
ATOM     20  C   UNL     1      10.096  10.942  17.764  0.00  0.00    +0.000 A 
ATOM     21  C   UNL     1      11.054  11.725  18.414  0.00  0.00    +0.000 A 
ATOM     22  C   UNL     1      11.046  11.826  19.806  0.00  0.00    +0.000 A 
ATOM     23  C   UNL     1      10.081  11.147  20.544  0.00  0.00    +0.000 A 
ATOM     24  C   UNL     1       9.124  10.365  19.898  0.00  0.00    +0.000 A 
ENDBRANCH  18  19
ENDBRANCH  17  18
ENDBRANCH  16  17
ENDBRANCH   1  16
TORSDOF 11
ENDMDL
MODEL 4
REMARK VINA RESULT:      -6.3      3.783      5.231
REMARK  Name = 
REMARK  11 active torsions:
REMARK  status: ('A' for Active; 'I' for Inactive)
REMARK    1  A    between atoms: C_2  and  C_10
REMARK    2  A    between atoms: N_3  and  C_4
REMARK    3  A    between atoms: C_4  and  C_5
REMARK    4  A    between atoms: C_5  and  S_6
REMARK    5  A    between atoms: S_6  and  O_9
REMARK    6  A    between atoms: C_10  and  C_11
REMARK    7  A    between atoms: C_10  and  C_13
REMARK    8  A    between atoms: C_11  and  S_12
REMARK    9  A    between atoms: C_13  and  C_14
REMARK   10  A    between atoms: C_14  and  C_15
REMARK   11  A    between atoms: C_15  and  C_16
REMARK                            x       y       z     vdW  Elec       q    Type
REMARK                         _______ _______ _______ _____ _____    ______ ____
ROOT
ATOM      1  C   UNL     1       6.027   5.266  17.345  0.00  0.00    +0.000 C 
ENDROOT
BRANCH   1   3
ATOM      2  O   UNL     1       6.001   4.343  19.592  0.00  0.00    +0.000 OA
ATOM      3  C   UNL     1       5.565   4.313  18.445  0.00  0.00    +0.000 C 
ATOM      4  N   UNL     1       4.615   3.389  18.052  0.00  0.00    +0.000 N 
ATOM      5  H   UNL     1       4.459   3.255  17.060  0.00  0.00    +0.000 HD
BRANCH   4   6
ATOM      6  C   UNL     1       4.178   2.358  18.984  0.00  0.00    +0.000 C 
BRANCH   6   7
ATOM      7  C   UNL     1       2.891   1.709  18.532  0.00  0.00    +0.000 C 
BRANCH   7   8
ATOM      8  S   UNL     1       1.554   2.879  18.619  0.00  0.00    +0.000 S 
ATOM      9  O   UNL     1       0.293   2.185  18.499  0.00  0.00    +0.000 OA
ATOM     10  O   UNL     1       1.821   3.856  19.648  0.00  0.00    +0.000 OA
BRANCH   8  11
ATOM     11  O   UNL     1       1.795   3.578  17.184  0.00  0.00    +0.000 OA
ATOM     12  H   UNL     1       1.044   3.332  16.600  0.00  0.00    +0.000 HD
ENDBRANCH   8  11
ENDBRANCH   7   8
ENDBRANCH   6   7
ENDBRANCH   4   6
ENDBRANCH   1   3
BRANCH   1  13
ATOM     13  C   UNL     1       7.022   4.549  16.406  0.00  0.00    +0.000 C 
BRANCH  13  14
ATOM     14  S   UNL     1       6.629   4.574  14.625  0.00  0.00    +0.000 S 
ATOM     15  H   UNL     1       6.495   3.235  14.507  0.00  0.00    +0.000 HD
ENDBRANCH  13  14
ENDBRANCH   1  13
BRANCH   1  16
ATOM     16  C   UNL     1       4.847   5.901  16.580  0.00  0.00    +0.000 C 
BRANCH  16  17
ATOM     17  C   UNL     1       4.214   7.099  17.299  0.00  0.00    +0.000 C 
BRANCH  17  18
ATOM     18  C   UNL     1       3.129   6.658  18.288  0.00  0.00    +0.000 C 
BRANCH  18  19
ATOM     19  C   UNL     1       2.289   7.829  18.738  0.00  0.00    +0.000 A 
ATOM     20  C   UNL     1       2.021   8.896  17.869  0.00  0.00    +0.000 A 
ATOM     21  C   UNL     1       1.265   9.988  18.301  0.00  0.00    +0.000 A 
ATOM     22  C   UNL     1       0.772  10.025  19.606  0.00  0.00    +0.000 A 
ATOM     23  C   UNL     1       1.033   8.969  20.475  0.00  0.00    +0.000 A 
ATOM     24  C   UNL     1       1.787   7.878  20.047  0.00  0.00    +0.000 A 
ENDBRANCH  18  19
ENDBRANCH  17  18
ENDBRANCH  16  17
ENDBRANCH   1  16
TORSDOF 11
ENDMDL
MODEL 5
REMARK VINA RESULT:      -6.3      0.217      1.430
REMARK  Name = 
REMARK  11 active torsions:
REMARK  status: ('A' for Active; 'I' for Inactive)
REMARK    1  A    between atoms: C_2  and  C_10
REMARK    2  A    between atoms: N_3  and  C_4
REMARK    3  A    between atoms: C_4  and  C_5
REMARK    4  A    between atoms: C_5  and  S_6
REMARK    5  A    between atoms: S_6  and  O_9
REMARK    6  A    between atoms: C_10  and  C_11
REMARK    7  A    between atoms: C_10  and  C_13
REMARK    8  A    between atoms: C_11  and  S_12
REMARK    9  A    between atoms: C_13  and  C_14
REMARK   10  A    between atoms: C_14  and  C_15
REMARK   11  A    between atoms: C_15  and  C_16
REMARK                            x       y       z     vdW  Elec       q    Type
REMARK                         _______ _______ _______ _____ _____    ______ ____
ROOT
ATOM      1  C   UNL     1       5.645   4.911  14.770  0.00  0.00    +0.000 C 
ENDROOT
BRANCH   1   3
ATOM      2  O   UNL     1       5.034   7.127  15.560  0.00  0.00    +0.000 OA
ATOM      3  C   UNL     1       5.796   6.167  15.628  0.00  0.00    +0.000 C 
ATOM      4  N   UNL     1       6.875   6.155  16.491  0.00  0.00    +0.000 N 
ATOM      5  H   UNL     1       7.594   5.455  16.349  0.00  0.00    +0.000 HD
BRANCH   4   6
ATOM      6  C   UNL     1       7.186   7.339  17.279  0.00  0.00    +0.000 C 
BRANCH   6   7
ATOM      7  C   UNL     1       8.065   7.005  18.463  0.00  0.00    +0.000 C 
BRANCH   7   8
ATOM      8  S   UNL     1       7.534   5.479  19.206  0.00  0.00    +0.000 S 
ATOM      9  O   UNL     1       7.789   4.384  18.300  0.00  0.00    +0.000 OA
ATOM     10  O   UNL     1       7.909   5.453  20.600  0.00  0.00    +0.000 OA
BRANCH   8  11
ATOM     11  O   UNL     1       5.944   5.746  19.116  0.00  0.00    +0.000 OA
ATOM     12  H   UNL     1       5.513   5.236  19.837  0.00  0.00    +0.000 HD
ENDBRANCH   8  11
ENDBRANCH   7   8
ENDBRANCH   6   7
ENDBRANCH   4   6
ENDBRANCH   1   3
BRANCH   1  13
ATOM     13  C   UNL     1       6.954   4.636  13.999  0.00  0.00    +0.000 C 
BRANCH  13  14
ATOM     14  S   UNL     1       6.800   3.736  12.420  0.00  0.00    +0.000 S 
ATOM     15  H   UNL     1       8.121   3.746  12.140  0.00  0.00    +0.000 HD
ENDBRANCH  13  14
ENDBRANCH   1  13
BRANCH   1  16
ATOM     16  C   UNL     1       5.175   3.691  15.589  0.00  0.00    +0.000 C 
BRANCH  16  17
ATOM     17  C   UNL     1       4.101   4.021  16.633  0.00  0.00    +0.000 C 
BRANCH  17  18
ATOM     18  C   UNL     1       3.908   2.873  17.631  0.00  0.00    +0.000 C 
BRANCH  18  19
ATOM     19  C   UNL     1       2.914   3.243  18.705  0.00  0.00    +0.000 A 
ATOM     20  C   UNL     1       2.709   4.582  19.063  0.00  0.00    +0.000 A 
ATOM     21  C   UNL     1       1.806   4.914  20.076  0.00  0.00    +0.000 A 
ATOM     22  C   UNL     1       1.102   3.911  20.742  0.00  0.00    +0.000 A 
ATOM     23  C   UNL     1       1.300   2.578  20.392  0.00  0.00    +0.000 A 
ATOM     24  C   UNL     1       2.200   2.243  19.382  0.00  0.00    +0.000 A 
ENDBRANCH  18  19
ENDBRANCH  17  18
ENDBRANCH  16  17
ENDBRANCH   1  16
TORSDOF 11
ENDMDL
MODEL 6
REMARK VINA RESULT:      -6.2      3.823      7.448
REMARK  Name = 
REMARK  11 active torsions:
REMARK  status: ('A' for Active; 'I' for Inactive)
REMARK    1  A    between atoms: C_2  and  C_10
REMARK    2  A    between atoms: N_3  and  C_4
REMARK    3  A    between atoms: C_4  and  C_5
REMARK    4  A    between atoms: C_5  and  S_6
REMARK    5  A    between atoms: S_6  and  O_9
REMARK    6  A    between atoms: C_10  and  C_11
REMARK    7  A    between atoms: C_10  and  C_13
REMARK    8  A    between atoms: C_11  and  S_12
REMARK    9  A    between atoms: C_13  and  C_14
REMARK   10  A    between atoms: C_14  and  C_15
REMARK   11  A    between atoms: C_15  and  C_16
REMARK                            x       y       z     vdW  Elec       q    Type
REMARK                         _______ _______ _______ _____ _____    ______ ____
ROOT
ATOM      1  C   UNL     1       6.977   6.036  18.007  0.00  0.00    +0.000 C 
ENDROOT
BRANCH   1   3
ATOM      2  O   UNL     1       4.742   6.864  17.531  0.00  0.00    +0.000 OA
ATOM      3  C   UNL     1       5.450   6.016  18.065  0.00  0.00    +0.000 C 
ATOM      4  N   UNL     1       4.910   4.966  18.784  0.00  0.00    +0.000 N 
ATOM      5  H   UNL     1       5.525   4.433  19.389  0.00  0.00    +0.000 HD
BRANCH   4   6
ATOM      6  C   UNL     1       3.472   4.900  19.002  0.00  0.00    +0.000 C 
BRANCH   6   7
ATOM      7  C   UNL     1       2.827   3.831  18.151  0.00  0.00    +0.000 C 
BRANCH   7   8
ATOM      8  S   UNL     1       2.808   2.283  19.028  0.00  0.00    +0.000 S 
ATOM      9  O   UNL     1       1.472   2.009  19.501  0.00  0.00    +0.000 OA
ATOM     10  O   UNL     1       3.611   1.309  18.326  0.00  0.00    +0.000 OA
BRANCH   8  11
ATOM     11  O   UNL     1       3.631   2.771  20.329  0.00  0.00    +0.000 OA
ATOM     12  H   UNL     1       4.358   3.356  20.022  0.00  0.00    +0.000 HD
ENDBRANCH   8  11
ENDBRANCH   7   8
ENDBRANCH   6   7
ENDBRANCH   4   6
ENDBRANCH   1   3
BRANCH   1  13
ATOM     13  C   UNL     1       7.498   4.760  17.312  0.00  0.00    +0.000 C 
BRANCH  13  14
ATOM     14  S   UNL     1       6.879   4.436  15.626  0.00  0.00    +0.000 S 
ATOM     15  H   UNL     1       8.101   4.351  15.058  0.00  0.00    +0.000 HD
ENDBRANCH  13  14
ENDBRANCH   1  13
BRANCH   1  16
ATOM     16  C   UNL     1       7.525   7.326  17.362  0.00  0.00    +0.000 C 
BRANCH  16  17
ATOM     17  C   UNL     1       8.296   8.227  18.335  0.00  0.00    +0.000 C 
BRANCH  17  18
ATOM     18  C   UNL     1       8.181   9.707  17.951  0.00  0.00    +0.000 C 
BRANCH  18  19
ATOM     19  C   UNL     1       9.286  10.522  18.578  0.00  0.00    +0.000 A 
ATOM     20  C   UNL     1      10.292  11.096  17.789  0.00  0.00    +0.000 A 
ATOM     21  C   UNL     1      11.325  11.827  18.379  0.00  0.00    +0.000 A 
ATOM     22  C   UNL     1      11.363  11.991  19.764  0.00  0.00    +0.000 A 
ATOM     23  C   UNL     1      10.367  11.425  20.556  0.00  0.00    +0.000 A 
ATOM     24  C   UNL     1       9.335  10.694  19.969  0.00  0.00    +0.000 A 
ENDBRANCH  18  19
ENDBRANCH  17  18
ENDBRANCH  16  17
ENDBRANCH   1  16
TORSDOF 11
ENDMDL
MODEL 7
REMARK VINA RESULT:      -6.2      1.169      1.328
REMARK  Name = 
REMARK  11 active torsions:
REMARK  status: ('A' for Active; 'I' for Inactive)
REMARK    1  A    between atoms: C_2  and  C_10
REMARK    2  A    between atoms: N_3  and  C_4
REMARK    3  A    between atoms: C_4  and  C_5
REMARK    4  A    between atoms: C_5  and  S_6
REMARK    5  A    between atoms: S_6  and  O_9
REMARK    6  A    between atoms: C_10  and  C_11
REMARK    7  A    between atoms: C_10  and  C_13
REMARK    8  A    between atoms: C_11  and  S_12
REMARK    9  A    between atoms: C_13  and  C_14
REMARK   10  A    between atoms: C_14  and  C_15
REMARK   11  A    between atoms: C_15  and  C_16
REMARK                            x       y       z     vdW  Elec       q    Type
REMARK                         _______ _______ _______ _____ _____    ______ ____
ROOT
ATOM      1  C   UNL     1       5.841   4.400  14.939  0.00  0.00    +0.000 C 
ENDROOT
BRANCH   1   3
ATOM      2  O   UNL     1       7.902   5.652  14.639  0.00  0.00    +0.000 OA
ATOM      3  C   UNL     1       6.870   5.477  15.280  0.00  0.00    +0.000 C 
ATOM      4  N   UNL     1       6.562   6.246  16.386  0.00  0.00    +0.000 N 
ATOM      5  H   UNL     1       5.831   5.920  17.007  0.00  0.00    +0.000 HD
BRANCH   4   6
ATOM      6  C   UNL     1       7.518   7.231  16.874  0.00  0.00    +0.000 C 
BRANCH   6   7
ATOM      7  C   UNL     1       7.868   6.997  18.325  0.00  0.00    +0.000 C 
BRANCH   7   8
ATOM      8  S   UNL     1       7.209   5.436  18.867  0.00  0.00    +0.000 S 
ATOM      9  O   UNL     1       5.775   5.534  19.002  0.00  0.00    +0.000 OA
ATOM     10  O   UNL     1       7.863   4.355  18.167  0.00  0.00    +0.000 OA
BRANCH   8  11
ATOM     11  O   UNL     1       7.785   5.480  20.376  0.00  0.00    +0.000 OA
ATOM     12  H   UNL     1       8.081   6.400  20.556  0.00  0.00    +0.000 HD
ENDBRANCH   8  11
ENDBRANCH   7   8
ENDBRANCH   6   7
ENDBRANCH   4   6
ENDBRANCH   1   3
BRANCH   1  13
ATOM     13  C   UNL     1       6.210   3.718  13.604  0.00  0.00    +0.000 C 
BRANCH  13  14
ATOM     14  S   UNL     1       4.860   3.495  12.398  0.00  0.00    +0.000 S 
ATOM     15  H   UNL     1       3.950   3.080  13.304  0.00  0.00    +0.000 HD
ENDBRANCH  13  14
ENDBRANCH   1  13
BRANCH   1  16
ATOM     16  C   UNL     1       5.647   3.386  16.086  0.00  0.00    +0.000 C 
BRANCH  16  17
ATOM     17  C   UNL     1       4.304   3.524  16.814  0.00  0.00    +0.000 C 
BRANCH  17  18
ATOM     18  C   UNL     1       4.280   2.716  18.117  0.00  0.00    +0.000 C 
BRANCH  18  19
ATOM     19  C   UNL     1       3.022   2.988  18.906  0.00  0.00    +0.000 A 
ATOM     20  C   UNL     1       3.087   3.550  20.189  0.00  0.00    +0.000 A 
ATOM     21  C   UNL     1       1.920   3.775  20.923  0.00  0.00    +0.000 A 
ATOM     22  C   UNL     1       0.678   3.439  20.383  0.00  0.00    +0.000 A 
ATOM     23  C   UNL     1       0.605   2.882  19.110  0.00  0.00    +0.000 A 
ATOM     24  C   UNL     1       1.768   2.655  18.374  0.00  0.00    +0.000 A 
ENDBRANCH  18  19
ENDBRANCH  17  18
ENDBRANCH  16  17
ENDBRANCH   1  16
TORSDOF 11
ENDMDL
MODEL 8
REMARK VINA RESULT:      -6.2      2.320      4.466
REMARK  Name = 
REMARK  11 active torsions:
REMARK  status: ('A' for Active; 'I' for Inactive)
REMARK    1  A    between atoms: C_2  and  C_10
REMARK    2  A    between atoms: N_3  and  C_4
REMARK    3  A    between atoms: C_4  and  C_5
REMARK    4  A    between atoms: C_5  and  S_6
REMARK    5  A    between atoms: S_6  and  O_9
REMARK    6  A    between atoms: C_10  and  C_11
REMARK    7  A    between atoms: C_10  and  C_13
REMARK    8  A    between atoms: C_11  and  S_12
REMARK    9  A    between atoms: C_13  and  C_14
REMARK   10  A    between atoms: C_14  and  C_15
REMARK   11  A    between atoms: C_15  and  C_16
REMARK                            x       y       z     vdW  Elec       q    Type
REMARK                         _______ _______ _______ _____ _____    ______ ____
ROOT
ATOM      1  C   UNL     1       4.587   2.494  18.923  0.00  0.00    +0.000 C 
ENDROOT
BRANCH   1   3
ATOM      2  O   UNL     1       5.164   4.787  19.483  0.00  0.00    +0.000 OA
ATOM      3  C   UNL     1       4.964   3.942  18.616  0.00  0.00    +0.000 C 
ATOM      4  N   UNL     1       5.052   4.246  17.270  0.00  0.00    +0.000 N 
ATOM      5  H   UNL     1       4.661   3.591  16.604  0.00  0.00    +0.000 HD
BRANCH   4   6
ATOM      6  C   UNL     1       5.296   5.620  16.852  0.00  0.00    +0.000 C 
BRANCH   6   7
ATOM      7  C   UNL     1       5.586   5.708  15.371  0.00  0.00    +0.000 C 
BRANCH   7   8
ATOM      8  S   UNL     1       7.077   4.818  14.986  0.00  0.00    +0.000 S 
ATOM      9  O   UNL     1       7.731   5.432  13.855  0.00  0.00    +0.000 OA
ATOM     10  O   UNL     1       7.770   4.468  16.204  0.00  0.00    +0.000 OA
BRANCH   8  11
ATOM     11  O   UNL     1       6.377   3.484  14.403  0.00  0.00    +0.000 OA
ATOM     12  H   UNL     1       5.818   3.103  15.116  0.00  0.00    +0.000 HD
ENDBRANCH   8  11
ENDBRANCH   7   8
ENDBRANCH   6   7
ENDBRANCH   4   6
ENDBRANCH   1   3
BRANCH   1  13
ATOM     13  C   UNL     1       4.370   2.314  20.441  0.00  0.00    +0.000 C 
BRANCH  13  14
ATOM     14  S   UNL     1       5.322   0.987  21.252  0.00  0.00    +0.000 S 
ATOM     15  H   UNL     1       4.709   1.105  22.449  0.00  0.00    +0.000 HD
ENDBRANCH  13  14
ENDBRANCH   1  13
BRANCH   1  16
ATOM     16  C   UNL     1       3.380   2.009  18.093  0.00  0.00    +0.000 C 
BRANCH  16  17
ATOM     17  C   UNL     1       2.084   1.874  18.903  0.00  0.00    +0.000 C 
BRANCH  17  18
ATOM     18  C   UNL     1       1.041   2.915  18.482  0.00  0.00    +0.000 C 
BRANCH  18  19
ATOM     19  C   UNL     1       1.449   4.303  18.912  0.00  0.00    +0.000 A 
ATOM     20  C   UNL     1       1.801   5.274  17.964  0.00  0.00    +0.000 A 
ATOM     21  C   UNL     1       2.203   6.548  18.371  0.00  0.00    +0.000 A 
ATOM     22  C   UNL     1       2.257   6.864  19.729  0.00  0.00    +0.000 A 
ATOM     23  C   UNL     1       1.908   5.906  20.677  0.00  0.00    +0.000 A 
ATOM     24  C   UNL     1       1.508   4.633  20.274  0.00  0.00    +0.000 A 
ENDBRANCH  18  19
ENDBRANCH  17  18
ENDBRANCH  16  17
ENDBRANCH   1  16
TORSDOF 11
ENDMDL
MODEL 9
REMARK VINA RESULT:      -6.1      3.849      7.581
REMARK  Name = 
REMARK  11 active torsions:
REMARK  status: ('A' for Active; 'I' for Inactive)
REMARK    1  A    between atoms: C_2  and  C_10
REMARK    2  A    between atoms: N_3  and  C_4
REMARK    3  A    between atoms: C_4  and  C_5
REMARK    4  A    between atoms: C_5  and  S_6
REMARK    5  A    between atoms: S_6  and  O_9
REMARK    6  A    between atoms: C_10  and  C_11
REMARK    7  A    between atoms: C_10  and  C_13
REMARK    8  A    between atoms: C_11  and  S_12
REMARK    9  A    between atoms: C_13  and  C_14
REMARK   10  A    between atoms: C_14  and  C_15
REMARK   11  A    between atoms: C_15  and  C_16
REMARK                            x       y       z     vdW  Elec       q    Type
REMARK                         _______ _______ _______ _____ _____    ______ ____
ROOT
ATOM      1  C   UNL     1       7.413   5.793  17.730  0.00  0.00    +0.000 C 
ENDROOT
BRANCH   1   3
ATOM      2  O   UNL     1       7.003   5.278  20.069  0.00  0.00    +0.000 OA
ATOM      3  C   UNL     1       6.551   5.431  18.938  0.00  0.00    +0.000 C 
ATOM      4  N   UNL     1       5.206   5.272  18.665  0.00  0.00    +0.000 N 
ATOM      5  H   UNL     1       4.921   5.182  17.697  0.00  0.00    +0.000 HD
BRANCH   4   6
ATOM      6  C   UNL     1       4.302   4.820  19.714  0.00  0.00    +0.000 C 
BRANCH   6   7
ATOM      7  C   UNL     1       3.226   3.910  19.168  0.00  0.00    +0.000 C 
BRANCH   7   8
ATOM      8  S   UNL     1       2.017   3.572  20.428  0.00  0.00    +0.000 S 
ATOM      9  O   UNL     1       2.646   2.890  21.534  0.00  0.00    +0.000 OA
ATOM     10  O   UNL     1       1.147   4.712  20.597  0.00  0.00    +0.000 OA
BRANCH   8  11
ATOM     11  O   UNL     1       1.200   2.429  19.630  0.00  0.00    +0.000 OA
ATOM     12  H   UNL     1       0.779   1.842  20.296  0.00  0.00    +0.000 HD
ENDBRANCH   8  11
ENDBRANCH   7   8
ENDBRANCH   6   7
ENDBRANCH   4   6
ENDBRANCH   1   3
BRANCH   1  13
ATOM     13  C   UNL     1       7.034   4.906  16.524  0.00  0.00    +0.000 C 
BRANCH  13  14
ATOM     14  S   UNL     1       5.785   5.576  15.376  0.00  0.00    +0.000 S 
ATOM     15  H   UNL     1       6.354   5.068  14.261  0.00  0.00    +0.000 HD
ENDBRANCH  13  14
ENDBRANCH   1  13
BRANCH   1  16
ATOM     16  C   UNL     1       7.359   7.298  17.395  0.00  0.00    +0.000 C 
BRANCH  16  17
ATOM     17  C   UNL     1       8.274   8.162  18.272  0.00  0.00    +0.000 C 
BRANCH  17  18
ATOM     18  C   UNL     1       8.180   9.646  17.900  0.00  0.00    +0.000 C 
BRANCH  18  19
ATOM     19  C   UNL     1       9.272  10.447  18.567  0.00  0.00    +0.000 A 
ATOM     20  C   UNL     1       9.265  10.657  19.952  0.00  0.00    +0.000 A 
ATOM     21  C   UNL     1      10.266  11.421  20.558  0.00  0.00    +0.000 A 
ATOM     22  C   UNL     1      11.281  11.984  19.784  0.00  0.00    +0.000 A 
ATOM     23  C   UNL     1      11.296  11.780  18.407  0.00  0.00    +0.000 A 
ATOM     24  C   UNL     1      10.299  11.018  17.800  0.00  0.00    +0.000 A 
ENDBRANCH  18  19
ENDBRANCH  17  18
ENDBRANCH  16  17
ENDBRANCH   1  16
TORSDOF 11
ENDMDL
