MODEL 1
REMARK VINA RESULT:      -8.0      0.000      0.000
REMARK  Name = 
REMARK  1 active torsions:
REMARK  status: ('A' for Active; 'I' for Inactive)
REMARK    1  A    between atoms: C_4  and  C_5
REMARK                            x       y       z     vdW  Elec       q    Type
REMARK                         _______ _______ _______ _____ _____    ______ ____
ROOT
ATOM      1  O   UNL     1       6.263   4.917  19.590  0.00  0.00    +0.000 OA
ATOM      2  C   UNL     1       5.595   4.682  18.591  0.00  0.00    +0.000 A 
ATOM      3  C   UNL     1       6.202   4.707  17.251  0.00  0.00    +0.000 A 
ATOM      4  C   UNL     1       5.447   4.433  16.176  0.00  0.00    +0.000 A 
ATOM      5  O   UNL     1       4.085   4.164  16.238  0.00  0.00    +0.000 OA
ATOM      6  C   UNL     1       3.481   4.116  17.470  0.00  0.00    +0.000 A 
ATOM      7  C   UNL     1       2.120   3.812  17.504  0.00  0.00    +0.000 A 
ATOM      8  C   UNL     1       1.457   3.728  18.731  0.00  0.00    +0.000 A 
ATOM      9  C   UNL     1       2.152   3.946  19.922  0.00  0.00    +0.000 A 
ATOM     10  C   UNL     1       3.511   4.259  19.889  0.00  0.00    +0.000 A 
ATOM     11  C   UNL     1       4.168   4.346  18.658  0.00  0.00    +0.000 A 
ENDROOT
BRANCH   4  12
ATOM     12  C   UNL     1       6.015   4.396  14.809  0.00  0.00    +0.000 A 
ATOM     13  C   UNL     1       5.424   3.596  13.815  0.00  0.00    +0.000 A 
ATOM     14  C   UNL     1       5.968   3.524  12.526  0.00  0.00    +0.000 A 
ATOM     15  C   UNL     1       7.113   4.251  12.213  0.00  0.00    +0.000 A 
ATOM     16  C   UNL     1       7.705   5.039  13.191  0.00  0.00    +0.000 A 
ATOM     17  F   UNL     1       8.811   5.734  12.897  0.00  0.00    +0.000 F 
ATOM     18  C   UNL     1       7.175   5.113  14.476  0.00  0.00    +0.000 A 
ENDBRANCH   4  12
TORSDOF 1
ENDMDL
MODEL 2
REMARK VINA RESULT:      -7.9      1.121      1.594
REMARK  Name = 
REMARK  1 active torsions:
REMARK  status: ('A' for Active; 'I' for Inactive)
REMARK    1  A    between atoms: C_4  and  C_5
REMARK                            x       y       z     vdW  Elec       q    Type
REMARK                         _______ _______ _______ _____ _____    ______ ____
ROOT
ATOM      1  O   UNL     1       6.230   5.077  19.607  0.00  0.00    +0.000 OA
ATOM      2  C   UNL     1       5.568   4.801  18.616  0.00  0.00    +0.000 A 
ATOM      3  C   UNL     1       6.184   4.761  17.281  0.00  0.00    +0.000 A 
ATOM      4  C   UNL     1       5.436   4.442  16.213  0.00  0.00    +0.000 A 
ATOM      5  O   UNL     1       4.072   4.184  16.278  0.00  0.00    +0.000 OA
ATOM      6  C   UNL     1       3.458   4.197  17.505  0.00  0.00    +0.000 A 
ATOM      7  C   UNL     1       2.095   3.904  17.542  0.00  0.00    +0.000 A 
ATOM      8  C   UNL     1       1.422   3.880  18.768  0.00  0.00    +0.000 A 
ATOM      9  C   UNL     1       2.110   4.148  19.952  0.00  0.00    +0.000 A 
ATOM     10  C   UNL     1       3.472   4.451  19.915  0.00  0.00    +0.000 A 
ATOM     11  C   UNL     1       4.138   4.477  18.687  0.00  0.00    +0.000 A 
ENDROOT
BRANCH   4  12
ATOM     12  C   UNL     1       6.013   4.339  14.854  0.00  0.00    +0.000 A 
ATOM     13  C   UNL     1       7.162   5.073  14.510  0.00  0.00    +0.000 A 
ATOM     14  C   UNL     1       7.702   5.011  13.219  0.00  0.00    +0.000 A 
ATOM     15  C   UNL     1       7.098   4.214  12.251  0.00  0.00    +0.000 A 
ATOM     16  C   UNL     1       5.960   3.490  12.581  0.00  0.00    +0.000 A 
ATOM     17  F   UNL     1       5.371   2.728  11.651  0.00  0.00    +0.000 F 
ATOM     18  C   UNL     1       5.414   3.549  13.860  0.00  0.00    +0.000 A 
ENDBRANCH   4  12
TORSDOF 1
ENDMDL
MODEL 3
REMARK VINA RESULT:      -7.6      2.804      6.304
REMARK  Name = 
REMARK  1 active torsions:
REMARK  status: ('A' for Active; 'I' for Inactive)
REMARK    1  A    between atoms: C_4  and  C_5
REMARK                            x       y       z     vdW  Elec       q    Type
REMARK                         _______ _______ _______ _____ _____    ______ ____
ROOT
ATOM      1  O   UNL     1       7.577   5.740  18.279  0.00  0.00    +0.000 OA
ATOM      2  C   UNL     1       6.584   5.212  17.798  0.00  0.00    +0.000 A 
ATOM      3  C   UNL     1       5.415   4.894  18.633  0.00  0.00    +0.000 A 
ATOM      4  C   UNL     1       4.335   4.326  18.074  0.00  0.00    +0.000 A 
ATOM      5  O   UNL     1       4.258   3.969  16.733  0.00  0.00    +0.000 OA
ATOM      6  C   UNL     1       5.320   4.261  15.915  0.00  0.00    +0.000 A 
ATOM      7  C   UNL     1       5.202   3.919  14.567  0.00  0.00    +0.000 A 
ATOM      8  C   UNL     1       6.243   4.212  13.682  0.00  0.00    +0.000 A 
ATOM      9  C   UNL     1       7.399   4.846  14.141  0.00  0.00    +0.000 A 
ATOM     10  C   UNL     1       7.522   5.180  15.490  0.00  0.00    +0.000 A 
ATOM     11  C   UNL     1       6.479   4.881  16.371  0.00  0.00    +0.000 A 
ENDROOT
BRANCH   4  12
ATOM     12  C   UNL     1       3.113   4.029  18.856  0.00  0.00    +0.000 A 
ATOM     13  C   UNL     1       2.930   4.591  20.132  0.00  0.00    +0.000 A 
ATOM     14  C   UNL     1       1.795   4.294  20.898  0.00  0.00    +0.000 A 
ATOM     15  C   UNL     1       0.827   3.427  20.398  0.00  0.00    +0.000 A 
ATOM     16  C   UNL     1       1.004   2.863  19.142  0.00  0.00    +0.000 A 
ATOM     17  F   UNL     1       0.080   2.023  18.661  0.00  0.00    +0.000 F 
ATOM     18  C   UNL     1       2.130   3.149  18.375  0.00  0.00    +0.000 A 
ENDBRANCH   4  12
TORSDOF 1
ENDMDL
MODEL 4
REMARK VINA RESULT:      -7.5      2.713      6.129
REMARK  Name = 
REMARK  1 active torsions:
REMARK  status: ('A' for Active; 'I' for Inactive)
REMARK    1  A    between atoms: C_4  and  C_5
REMARK                            x       y       z     vdW  Elec       q    Type
REMARK                         _______ _______ _______ _____ _____    ______ ____
ROOT
ATOM      1  O   UNL     1       7.671   6.449  16.460  0.00  0.00    +0.000 OA
ATOM      2  C   UNL     1       6.824   5.618  16.161  0.00  0.00    +0.000 A 
ATOM      3  C   UNL     1       5.815   5.181  17.138  0.00  0.00    +0.000 A 
ATOM      4  C   UNL     1       4.890   4.277  16.779  0.00  0.00    +0.000 A 
ATOM      5  O   UNL     1       4.845   3.677  15.526  0.00  0.00    +0.000 OA
ATOM      6  C   UNL     1       5.759   4.066  14.579  0.00  0.00    +0.000 A 
ATOM      7  C   UNL     1       5.670   3.470  13.321  0.00  0.00    +0.000 A 
ATOM      8  C   UNL     1       6.559   3.843  12.310  0.00  0.00    +0.000 A 
ATOM      9  C   UNL     1       7.536   4.811  12.554  0.00  0.00    +0.000 A 
ATOM     10  C   UNL     1       7.631   5.401  13.815  0.00  0.00    +0.000 A 
ATOM     11  C   UNL     1       6.742   5.021  14.823  0.00  0.00    +0.000 A 
ENDROOT
BRANCH   4  12
ATOM     12  C   UNL     1       3.822   3.838  17.705  0.00  0.00    +0.000 A 
ATOM     13  C   UNL     1       2.470   3.935  17.330  0.00  0.00    +0.000 A 
ATOM     14  C   UNL     1       1.446   3.554  18.207  0.00  0.00    +0.000 A 
ATOM     15  C   UNL     1       1.761   3.071  19.475  0.00  0.00    +0.000 A 
ATOM     16  C   UNL     1       3.093   2.977  19.853  0.00  0.00    +0.000 A 
ATOM     17  F   UNL     1       3.400   2.521  21.074  0.00  0.00    +0.000 F 
ATOM     18  C   UNL     1       4.117   3.358  18.991  0.00  0.00    +0.000 A 
ENDBRANCH   4  12
TORSDOF 1
ENDMDL
MODEL 5
REMARK VINA RESULT:      -7.5      2.939      6.265
REMARK  Name = 
REMARK  1 active torsions:
REMARK  status: ('A' for Active; 'I' for Inactive)
REMARK    1  A    between atoms: C_4  and  C_5
REMARK                            x       y       z     vdW  Elec       q    Type
REMARK                         _______ _______ _______ _____ _____    ______ ____
ROOT
ATOM      1  O   UNL     1       7.576   5.609  18.224  0.00  0.00    +0.000 OA
ATOM      2  C   UNL     1       6.607   5.044  17.735  0.00  0.00    +0.000 A 
ATOM      3  C   UNL     1       5.472   4.626  18.573  0.00  0.00    +0.000 A 
ATOM      4  C   UNL     1       4.417   4.019  18.006  0.00  0.00    +0.000 A 
ATOM      5  O   UNL     1       4.339   3.712  16.653  0.00  0.00    +0.000 OA
ATOM      6  C   UNL     1       5.369   4.097  15.832  0.00  0.00    +0.000 A 
ATOM      7  C   UNL     1       5.250   3.803  14.474  0.00  0.00    +0.000 A 
ATOM      8  C   UNL     1       6.258   4.192  13.587  0.00  0.00    +0.000 A 
ATOM      9  C   UNL     1       7.382   4.873  14.056  0.00  0.00    +0.000 A 
ATOM     10  C   UNL     1       7.507   5.159  15.416  0.00  0.00    +0.000 A 
ATOM     11  C   UNL     1       6.498   4.765  16.298  0.00  0.00    +0.000 A 
ENDROOT
BRANCH   4  12
ATOM     12  C   UNL     1       3.227   3.620  18.792  0.00  0.00    +0.000 A 
ATOM     13  C   UNL     1       2.076   3.138  18.145  0.00  0.00    +0.000 A 
ATOM     14  C   UNL     1       0.930   2.787  18.871  0.00  0.00    +0.000 A 
ATOM     15  C   UNL     1       0.919   2.916  20.257  0.00  0.00    +0.000 A 
ATOM     16  C   UNL     1       2.051   3.398  20.903  0.00  0.00    +0.000 A 
ATOM     17  F   UNL     1       2.043   3.531  22.235  0.00  0.00    +0.000 F 
ATOM     18  C   UNL     1       3.192   3.753  20.189  0.00  0.00    +0.000 A 
ENDBRANCH   4  12
TORSDOF 1
ENDMDL
MODEL 6
REMARK VINA RESULT:      -7.5      1.858      2.554
REMARK  Name = 
REMARK  1 active torsions:
REMARK  status: ('A' for Active; 'I' for Inactive)
REMARK    1  A    between atoms: C_4  and  C_5
REMARK                            x       y       z     vdW  Elec       q    Type
REMARK                         _______ _______ _______ _____ _____    ______ ____
ROOT
ATOM      1  O   UNL     1       2.574   7.070  19.458  0.00  0.00    +0.000 OA
ATOM      2  C   UNL     1       2.908   6.025  18.915  0.00  0.00    +0.000 A 
ATOM      3  C   UNL     1       3.881   6.022  17.812  0.00  0.00    +0.000 A 
ATOM      4  C   UNL     1       4.237   4.859  17.244  0.00  0.00    +0.000 A 
ATOM      5  O   UNL     1       3.703   3.629  17.608  0.00  0.00    +0.000 OA
ATOM      6  C   UNL     1       2.803   3.583  18.643  0.00  0.00    +0.000 A 
ATOM      7  C   UNL     1       2.309   2.331  19.006  0.00  0.00    +0.000 A 
ATOM      8  C   UNL     1       1.406   2.221  20.068  0.00  0.00    +0.000 A 
ATOM      9  C   UNL     1       1.000   3.360  20.765  0.00  0.00    +0.000 A 
ATOM     10  C   UNL     1       1.487   4.614  20.397  0.00  0.00    +0.000 A 
ATOM     11  C   UNL     1       2.386   4.718  19.332  0.00  0.00    +0.000 A 
ENDROOT
BRANCH   4  12
ATOM     12  C   UNL     1       5.247   4.791  16.163  0.00  0.00    +0.000 A 
ATOM     13  C   UNL     1       6.466   5.482  16.284  0.00  0.00    +0.000 A 
ATOM     14  C   UNL     1       7.418   5.454  15.256  0.00  0.00    +0.000 A 
ATOM     15  C   UNL     1       7.163   4.736  14.091  0.00  0.00    +0.000 A 
ATOM     16  C   UNL     1       5.959   4.057  13.963  0.00  0.00    +0.000 A 
ATOM     17  F   UNL     1       5.706   3.372  12.841  0.00  0.00    +0.000 F 
ATOM     18  C   UNL     1       5.005   4.082  14.976  0.00  0.00    +0.000 A 
ENDBRANCH   4  12
TORSDOF 1
ENDMDL
MODEL 7
REMARK VINA RESULT:      -7.4      1.666      1.833
REMARK  Name = 
REMARK  1 active torsions:
REMARK  status: ('A' for Active; 'I' for Inactive)
REMARK    1  A    between atoms: C_4  and  C_5
REMARK                            x       y       z     vdW  Elec       q    Type
REMARK                         _______ _______ _______ _____ _____    ______ ____
ROOT
ATOM      1  O   UNL     1       4.361   2.869  18.920  0.00  0.00    +0.000 OA
ATOM      2  C   UNL     1       4.437   3.790  18.118  0.00  0.00    +0.000 A 
ATOM      3  C   UNL     1       5.164   3.632  16.849  0.00  0.00    +0.000 A 
ATOM      4  C   UNL     1       5.220   4.655  15.983  0.00  0.00    +0.000 A 
ATOM      5  O   UNL     1       4.660   5.903  16.228  0.00  0.00    +0.000 OA
ATOM      6  C   UNL     1       3.960   6.091  17.394  0.00  0.00    +0.000 A 
ATOM      7  C   UNL     1       3.382   7.345  17.598  0.00  0.00    +0.000 A 
ATOM      8  C   UNL     1       2.638   7.587  18.757  0.00  0.00    +0.000 A 
ATOM      9  C   UNL     1       2.472   6.579  19.708  0.00  0.00    +0.000 A 
ATOM     10  C   UNL     1       3.057   5.328  19.509  0.00  0.00    +0.000 A 
ATOM     11  C   UNL     1       3.802   5.093  18.351  0.00  0.00    +0.000 A 
ENDROOT
BRANCH   4  12
ATOM     12  C   UNL     1       5.895   4.537  14.671  0.00  0.00    +0.000 A 
ATOM     13  C   UNL     1       5.376   3.687  13.677  0.00  0.00    +0.000 A 
ATOM     14  C   UNL     1       6.021   3.539  12.443  0.00  0.00    +0.000 A 
ATOM     15  C   UNL     1       7.198   4.237  12.185  0.00  0.00    +0.000 A 
ATOM     16  C   UNL     1       7.719   5.073  13.163  0.00  0.00    +0.000 A 
ATOM     17  F   UNL     1       8.854   5.741  12.922  0.00  0.00    +0.000 F 
ATOM     18  C   UNL     1       7.087   5.224  14.394  0.00  0.00    +0.000 A 
ENDBRANCH   4  12
TORSDOF 1
ENDMDL
MODEL 8
REMARK VINA RESULT:      -7.4      1.796      2.219
REMARK  Name = 
REMARK  1 active torsions:
REMARK  status: ('A' for Active; 'I' for Inactive)
REMARK    1  A    between atoms: C_4  and  C_5
REMARK                            x       y       z     vdW  Elec       q    Type
REMARK                         _______ _______ _______ _____ _____    ______ ____
ROOT
ATOM      1  O   UNL     1       4.254   7.624  17.676  0.00  0.00    +0.000 OA
ATOM      2  C   UNL     1       4.426   6.472  17.302  0.00  0.00    +0.000 A 
ATOM      3  C   UNL     1       5.077   6.183  16.014  0.00  0.00    +0.000 A 
ATOM      4  C   UNL     1       5.264   4.909  15.636  0.00  0.00    +0.000 A 
ATOM      5  O   UNL     1       4.833   3.814  16.375  0.00  0.00    +0.000 OA
ATOM      6  C   UNL     1       4.234   4.037  17.590  0.00  0.00    +0.000 A 
ATOM      7  C   UNL     1       3.841   2.918  18.324  0.00  0.00    +0.000 A 
ATOM      8  C   UNL     1       3.246   3.084  19.578  0.00  0.00    +0.000 A 
ATOM      9  C   UNL     1       3.044   4.364  20.097  0.00  0.00    +0.000 A 
ATOM     10  C   UNL     1       3.429   5.484  19.359  0.00  0.00    +0.000 A 
ATOM     11  C   UNL     1       4.020   5.312  18.105  0.00  0.00    +0.000 A 
ENDROOT
BRANCH   4  12
ATOM     12  C   UNL     1       5.956   4.560  14.374  0.00  0.00    +0.000 A 
ATOM     13  C   UNL     1       7.151   5.209  14.015  0.00  0.00    +0.000 A 
ATOM     14  C   UNL     1       7.801   4.913  12.809  0.00  0.00    +0.000 A 
ATOM     15  C   UNL     1       7.263   3.964  11.944  0.00  0.00    +0.000 A 
ATOM     16  C   UNL     1       6.081   3.323  12.291  0.00  0.00    +0.000 A 
ATOM     17  F   UNL     1       5.556   2.415  11.458  0.00  0.00    +0.000 F 
ATOM     18  C   UNL     1       5.426   3.613  13.484  0.00  0.00    +0.000 A 
ENDBRANCH   4  12
TORSDOF 1
ENDMDL
MODEL 9
REMARK VINA RESULT:      -7.3      4.400      6.971
REMARK  Name = 
REMARK  1 active torsions:
REMARK  status: ('A' for Active; 'I' for Inactive)
REMARK    1  A    between atoms: C_4  and  C_5
REMARK                            x       y       z     vdW  Elec       q    Type
REMARK                         _______ _______ _______ _____ _____    ______ ____
ROOT
ATOM      1  O   UNL     1       2.632   3.137  17.455  0.00  0.00    +0.000 OA
ATOM      2  C   UNL     1       3.065   4.280  17.497  0.00  0.00    +0.000 A 
ATOM      3  C   UNL     1       2.304   5.356  18.150  0.00  0.00    +0.000 A 
ATOM      4  C   UNL     1       2.810   6.598  18.191  0.00  0.00    +0.000 A 
ATOM      5  O   UNL     1       4.018   6.957  17.604  0.00  0.00    +0.000 OA
ATOM      6  C   UNL     1       4.768   5.982  16.997  0.00  0.00    +0.000 A 
ATOM      7  C   UNL     1       5.990   6.367  16.445  0.00  0.00    +0.000 A 
ATOM      8  C   UNL     1       6.808   5.412  15.833  0.00  0.00    +0.000 A 
ATOM      9  C   UNL     1       6.405   4.076  15.773  0.00  0.00    +0.000 A 
ATOM     10  C   UNL     1       5.179   3.693  16.317  0.00  0.00    +0.000 A 
ATOM     11  C   UNL     1       4.365   4.652  16.924  0.00  0.00    +0.000 A 
ENDROOT
BRANCH   4  12
ATOM     12  C   UNL     1       2.110   7.708  18.877  0.00  0.00    +0.000 A 
ATOM     13  C   UNL     1       1.757   8.872  18.170  0.00  0.00    +0.000 A 
ATOM     14  C   UNL     1       1.124   9.944  18.812  0.00  0.00    +0.000 A 
ATOM     15  C   UNL     1       0.837   9.869  20.172  0.00  0.00    +0.000 A 
ATOM     16  C   UNL     1       1.188   8.725  20.877  0.00  0.00    +0.000 A 
ATOM     17  F   UNL     1       0.920   8.651  22.187  0.00  0.00    +0.000 F 
ATOM     18  C   UNL     1       1.821   7.656  20.249  0.00  0.00    +0.000 A 
ENDBRANCH   4  12
TORSDOF 1
ENDMDL
