MODEL 1
REMARK VINA RESULT:      -8.0      0.000      0.000
REMARK  Name = 
REMARK  5 active torsions:
REMARK  status: ('A' for Active; 'I' for Inactive)
REMARK    1  A    between atoms: C_1  and  C_2
REMARK    2  A    between atoms: C_5  and  N_6
REMARK    3  A    between atoms: C_9  and  O_10
REMARK    4  A    between atoms: C_12  and  O_13
REMARK    5  A    between atoms: C_16  and  C_17
REMARK                            x       y       z     vdW  Elec       q    Type
REMARK                         _______ _______ _______ _____ _____    ______ ____
ROOT
ATOM      1  N   UNL     1       3.999   5.757  17.328  0.00  0.00    +0.000 N 
ATOM      2  C   UNL     1       5.268   5.398  16.837  0.00  0.00    +0.000 A 
ATOM      3  C   UNL     1       6.244   4.935  17.702  0.00  0.00    +0.000 A 
ATOM      4  C   UNL     1       7.432   4.558  17.132  0.00  0.00    +0.000 A 
ATOM      5  N   UNL     1       7.697   4.649  15.828  0.00  0.00    +0.000 NA
ATOM      6  C   UNL     1       6.700   5.146  15.105  0.00  0.00    +0.000 A 
ATOM      7  N   UNL     1       5.492   5.534  15.522  0.00  0.00    +0.000 NA
ATOM      8  H   UNL     1       3.421   6.054  16.545  0.00  0.00    +0.000 HD
ENDROOT
BRANCH   1  13
ATOM      9  C   UNL     1       1.121   2.971  21.443  0.00  0.00    +0.000 C 
ATOM     10  C   UNL     1       1.840   3.696  20.339  0.00  0.00    +0.000 A 
ATOM     11  C   UNL     1       2.674   4.779  20.651  0.00  0.00    +0.000 A 
ATOM     12  C   UNL     1       3.366   5.466  19.648  0.00  0.00    +0.000 A 
ATOM     13  C   UNL     1       3.257   5.071  18.314  0.00  0.00    +0.000 A 
ATOM     14  C   UNL     1       2.385   4.018  18.000  0.00  0.00    +0.000 A 
ATOM     15  C   UNL     1       1.686   3.315  18.994  0.00  0.00    +0.000 A 
ATOM     16  C   UNL     1       0.793   2.172  18.593  0.00  0.00    +0.000 C 
ENDBRANCH   1  13
BRANCH   4  17
ATOM     17  O   UNL     1       8.437   4.029  17.889  0.00  0.00    +0.000 OA
ATOM     18  H   UNL     1       8.574   3.110  17.612  0.00  0.00    +0.000 HD
ENDBRANCH   4  17
BRANCH   6  19
ATOM     19  O   UNL     1       6.970   5.243  13.775  0.00  0.00    +0.000 OA
ATOM     20  H   UNL     1       6.651   4.367  13.500  0.00  0.00    +0.000 HD
ENDBRANCH   6  19
TORSDOF 3
ENDMDL
MODEL 2
REMARK VINA RESULT:      -7.4      2.042      3.025
REMARK  Name = 
REMARK  5 active torsions:
REMARK  status: ('A' for Active; 'I' for Inactive)
REMARK    1  A    between atoms: C_1  and  C_2
REMARK    2  A    between atoms: C_5  and  N_6
REMARK    3  A    between atoms: C_9  and  O_10
REMARK    4  A    between atoms: C_12  and  O_13
REMARK    5  A    between atoms: C_16  and  C_17
REMARK                            x       y       z     vdW  Elec       q    Type
REMARK                         _______ _______ _______ _____ _____    ______ ____
ROOT
ATOM      1  N   UNL     1       5.758   3.927  19.328  0.00  0.00    +0.000 N 
ATOM      2  C   UNL     1       6.384   4.863  18.484  0.00  0.00    +0.000 A 
ATOM      3  C   UNL     1       6.161   4.829  17.120  0.00  0.00    +0.000 A 
ATOM      4  C   UNL     1       6.767   5.810  16.379  0.00  0.00    +0.000 A 
ATOM      5  N   UNL     1       7.568   6.745  16.892  0.00  0.00    +0.000 NA
ATOM      6  C   UNL     1       7.741   6.651  18.206  0.00  0.00    +0.000 A 
ATOM      7  N   UNL     1       7.202   5.765  19.048  0.00  0.00    +0.000 NA
ATOM      8  H   UNL     1       6.031   4.123  20.289  0.00  0.00    +0.000 HD
ENDROOT
BRANCH   1  13
ATOM      9  C   UNL     1       0.366   2.035  18.763  0.00  0.00    +0.000 C 
ATOM     10  C   UNL     1       1.769   2.541  18.953  0.00  0.00    +0.000 A 
ATOM     11  C   UNL     1       2.835   1.877  18.329  0.00  0.00    +0.000 A 
ATOM     12  C   UNL     1       4.150   2.329  18.476  0.00  0.00    +0.000 A 
ATOM     13  C   UNL     1       4.427   3.469  19.232  0.00  0.00    +0.000 A 
ATOM     14  C   UNL     1       3.365   4.103  19.893  0.00  0.00    +0.000 A 
ATOM     15  C   UNL     1       2.038   3.666  19.753  0.00  0.00    +0.000 A 
ATOM     16  C   UNL     1       0.941   4.412  20.462  0.00  0.00    +0.000 C 
ENDBRANCH   1  13
BRANCH   4  17
ATOM     17  O   UNL     1       6.561   5.902  15.034  0.00  0.00    +0.000 OA
ATOM     18  H   UNL     1       7.112   5.235  14.595  0.00  0.00    +0.000 HD
ENDBRANCH   4  17
BRANCH   6  19
ATOM     19  O   UNL     1       8.561   7.601  18.729  0.00  0.00    +0.000 OA
ATOM     20  H   UNL     1       8.015   7.856  19.493  0.00  0.00    +0.000 HD
ENDBRANCH   6  19
TORSDOF 3
ENDMDL
MODEL 3
REMARK VINA RESULT:      -7.3      3.517      6.144
REMARK  Name = 
REMARK  5 active torsions:
REMARK  status: ('A' for Active; 'I' for Inactive)
REMARK    1  A    between atoms: C_1  and  C_2
REMARK    2  A    between atoms: C_5  and  N_6
REMARK    3  A    between atoms: C_9  and  O_10
REMARK    4  A    between atoms: C_12  and  O_13
REMARK    5  A    between atoms: C_16  and  C_17
REMARK                            x       y       z     vdW  Elec       q    Type
REMARK                         _______ _______ _______ _____ _____    ______ ____
ROOT
ATOM      1  N   UNL     1       4.444   3.338  17.594  0.00  0.00    +0.000 N 
ATOM      2  C   UNL     1       3.388   3.037  18.474  0.00  0.00    +0.000 A 
ATOM      3  C   UNL     1       3.510   3.302  19.825  0.00  0.00    +0.000 A 
ATOM      4  C   UNL     1       2.414   3.027  20.601  0.00  0.00    +0.000 A 
ATOM      5  N   UNL     1       1.283   2.496  20.134  0.00  0.00    +0.000 NA
ATOM      6  C   UNL     1       1.300   2.245  18.830  0.00  0.00    +0.000 A 
ATOM      7  N   UNL     1       2.284   2.478  17.957  0.00  0.00    +0.000 NA
ATOM      8  H   UNL     1       4.161   3.088  16.649  0.00  0.00    +0.000 HD
ENDROOT
BRANCH   1  13
ATOM      9  C   UNL     1       7.747   8.035  17.532  0.00  0.00    +0.000 C 
ATOM     10  C   UNL     1       6.886   6.804  17.592  0.00  0.00    +0.000 A 
ATOM     11  C   UNL     1       5.803   6.673  16.710  0.00  0.00    +0.000 A 
ATOM     12  C   UNL     1       4.991   5.535  16.733  0.00  0.00    +0.000 A 
ATOM     13  C   UNL     1       5.256   4.493  17.622  0.00  0.00    +0.000 A 
ATOM     14  C   UNL     1       6.310   4.647  18.534  0.00  0.00    +0.000 A 
ATOM     15  C   UNL     1       7.139   5.781  18.523  0.00  0.00    +0.000 A 
ATOM     16  C   UNL     1       8.274   5.869  19.506  0.00  0.00    +0.000 C 
ENDBRANCH   1  13
BRANCH   4  17
ATOM     17  O   UNL     1       2.409   3.312  21.935  0.00  0.00    +0.000 OA
ATOM     18  H   UNL     1       2.760   2.543  22.412  0.00  0.00    +0.000 HD
ENDBRANCH   4  17
BRANCH   6  19
ATOM     19  O   UNL     1       0.149   1.699  18.353  0.00  0.00    +0.000 OA
ATOM     20  H   UNL     1       0.098   2.185  17.512  0.00  0.00    +0.000 HD
ENDBRANCH   6  19
TORSDOF 3
ENDMDL
MODEL 4
REMARK VINA RESULT:      -7.2      0.786      1.702
REMARK  Name = 
REMARK  5 active torsions:
REMARK  status: ('A' for Active; 'I' for Inactive)
REMARK    1  A    between atoms: C_1  and  C_2
REMARK    2  A    between atoms: C_5  and  N_6
REMARK    3  A    between atoms: C_9  and  O_10
REMARK    4  A    between atoms: C_12  and  O_13
REMARK    5  A    between atoms: C_16  and  C_17
REMARK                            x       y       z     vdW  Elec       q    Type
REMARK                         _______ _______ _______ _____ _____    ______ ____
ROOT
ATOM      1  N   UNL     1       4.116   5.952  16.832  0.00  0.00    +0.000 N 
ATOM      2  C   UNL     1       5.405   5.535  16.453  0.00  0.00    +0.000 A 
ATOM      3  C   UNL     1       6.274   5.014  17.394  0.00  0.00    +0.000 A 
ATOM      4  C   UNL     1       7.489   4.584  16.929  0.00  0.00    +0.000 A 
ATOM      5  N   UNL     1       7.876   4.677  15.656  0.00  0.00    +0.000 NA
ATOM      6  C   UNL     1       6.975   5.232  14.853  0.00  0.00    +0.000 A 
ATOM      7  N   UNL     1       5.754   5.676  15.165  0.00  0.00    +0.000 NA
ATOM      8  H   UNL     1       3.627   6.287  16.005  0.00  0.00    +0.000 HD
ENDROOT
BRANCH   1  13
ATOM      9  C   UNL     1       0.514   3.213  20.368  0.00  0.00    +0.000 C 
ATOM     10  C   UNL     1       1.477   3.948  19.477  0.00  0.00    +0.000 A 
ATOM     11  C   UNL     1       1.949   3.330  18.310  0.00  0.00    +0.000 A 
ATOM     12  C   UNL     1       2.836   3.992  17.455  0.00  0.00    +0.000 A 
ATOM     13  C   UNL     1       3.253   5.293  17.735  0.00  0.00    +0.000 A 
ATOM     14  C   UNL     1       2.817   5.890  18.927  0.00  0.00    +0.000 A 
ATOM     15  C   UNL     1       1.923   5.243  19.795  0.00  0.00    +0.000 A 
ATOM     16  C   UNL     1       1.467   5.952  21.041  0.00  0.00    +0.000 C 
ENDBRANCH   1  13
BRANCH   4  17
ATOM     17  O   UNL     1       8.393   3.997  17.765  0.00  0.00    +0.000 OA
ATOM     18  H   UNL     1       9.285   4.215  17.451  0.00  0.00    +0.000 HD
ENDBRANCH   4  17
BRANCH   6  19
ATOM     19  O   UNL     1       7.370   5.331  13.556  0.00  0.00    +0.000 OA
ATOM     20  H   UNL     1       7.618   4.401  13.411  0.00  0.00    +0.000 HD
ENDBRANCH   6  19
TORSDOF 3
ENDMDL
MODEL 5
REMARK VINA RESULT:      -7.1      2.237      3.186
REMARK  Name = 
REMARK  5 active torsions:
REMARK  status: ('A' for Active; 'I' for Inactive)
REMARK    1  A    between atoms: C_1  and  C_2
REMARK    2  A    between atoms: C_5  and  N_6
REMARK    3  A    between atoms: C_9  and  O_10
REMARK    4  A    between atoms: C_12  and  O_13
REMARK    5  A    between atoms: C_16  and  C_17
REMARK                            x       y       z     vdW  Elec       q    Type
REMARK                         _______ _______ _______ _____ _____    ______ ____
ROOT
ATOM      1  N   UNL     1       6.468   4.739  16.317  0.00  0.00    +0.000 N 
ATOM      2  C   UNL     1       6.745   4.620  14.943  0.00  0.00    +0.000 A 
ATOM      3  C   UNL     1       6.136   3.629  14.194  0.00  0.00    +0.000 A 
ATOM      4  C   UNL     1       6.421   3.619  12.853  0.00  0.00    +0.000 A 
ATOM      5  N   UNL     1       7.262   4.469  12.262  0.00  0.00    +0.000 NA
ATOM      6  C   UNL     1       7.818   5.346  13.089  0.00  0.00    +0.000 A 
ATOM      7  N   UNL     1       7.619   5.482  14.403  0.00  0.00    +0.000 NA
ATOM      8  H   UNL     1       6.994   5.529  16.686  0.00  0.00    +0.000 HD
ENDROOT
BRANCH   1  13
ATOM      9  C   UNL     1       1.371   4.313  18.928  0.00  0.00    +0.000 C 
ATOM     10  C   UNL     1       2.697   4.387  18.223  0.00  0.00    +0.000 A 
ATOM     11  C   UNL     1       3.206   5.636  17.836  0.00  0.00    +0.000 A 
ATOM     12  C   UNL     1       4.441   5.739  17.189  0.00  0.00    +0.000 A 
ATOM     13  C   UNL     1       5.206   4.600  16.934  0.00  0.00    +0.000 A 
ATOM     14  C   UNL     1       4.673   3.349  17.279  0.00  0.00    +0.000 A 
ATOM     15  C   UNL     1       3.436   3.227  17.933  0.00  0.00    +0.000 A 
ATOM     16  C   UNL     1       2.937   1.858  18.307  0.00  0.00    +0.000 C 
ENDBRANCH   1  13
BRANCH   4  17
ATOM     17  O   UNL     1       5.824   2.722  12.015  0.00  0.00    +0.000 OA
ATOM     18  H   UNL     1       6.517   2.269  11.510  0.00  0.00    +0.000 HD
ENDBRANCH   4  17
BRANCH   6  19
ATOM     19  O   UNL     1       8.679   6.210  12.489  0.00  0.00    +0.000 OA
ATOM     20  H   UNL     1       8.511   5.960  11.564  0.00  0.00    +0.000 HD
ENDBRANCH   6  19
TORSDOF 3
ENDMDL
MODEL 6
REMARK VINA RESULT:      -7.1      4.185      5.928
REMARK  Name = 
REMARK  5 active torsions:
REMARK  status: ('A' for Active; 'I' for Inactive)
REMARK    1  A    between atoms: C_1  and  C_2
REMARK    2  A    between atoms: C_5  and  N_6
REMARK    3  A    between atoms: C_9  and  O_10
REMARK    4  A    between atoms: C_12  and  O_13
REMARK    5  A    between atoms: C_16  and  C_17
REMARK                            x       y       z     vdW  Elec       q    Type
REMARK                         _______ _______ _______ _____ _____    ______ ____
ROOT
ATOM      1  N   UNL     1       3.112   6.167  20.097  0.00  0.00    +0.000 N 
ATOM      2  C   UNL     1       2.783   4.825  19.828  0.00  0.00    +0.000 A 
ATOM      3  C   UNL     1       1.477   4.389  19.960  0.00  0.00    +0.000 A 
ATOM      4  C   UNL     1       1.236   3.082  19.626  0.00  0.00    +0.000 A 
ATOM      5  N   UNL     1       2.179   2.227  19.229  0.00  0.00    +0.000 NA
ATOM      6  C   UNL     1       3.399   2.748  19.181  0.00  0.00    +0.000 A 
ATOM      7  N   UNL     1       3.773   4.000  19.458  0.00  0.00    +0.000 NA
ATOM      8  H   UNL     1       4.107   6.296  19.929  0.00  0.00    +0.000 HD
ENDROOT
BRANCH   1  13
ATOM      9  C   UNL     1       0.173  10.852  18.551  0.00  0.00    +0.000 C 
ATOM     10  C   UNL     1       0.910   9.614  18.983  0.00  0.00    +0.000 A 
ATOM     11  C   UNL     1       1.683   8.908  18.049  0.00  0.00    +0.000 A 
ATOM     12  C   UNL     1       2.388   7.760  18.422  0.00  0.00    +0.000 A 
ATOM     13  C   UNL     1       2.356   7.304  19.741  0.00  0.00    +0.000 A 
ATOM     14  C   UNL     1       1.545   7.985  20.660  0.00  0.00    +0.000 A 
ATOM     15  C   UNL     1       0.833   9.141  20.305  0.00  0.00    +0.000 A 
ATOM     16  C   UNL     1       0.008   9.844  21.348  0.00  0.00    +0.000 C 
ENDBRANCH   1  13
BRANCH   4  17
ATOM     17  O   UNL     1      -0.029   2.571  19.662  0.00  0.00    +0.000 OA
ATOM     18  H   UNL     1      -0.650   3.305  19.792  0.00  0.00    +0.000 HD
ENDBRANCH   4  17
BRANCH   6  19
ATOM     19  O   UNL     1       4.362   1.875  18.780  0.00  0.00    +0.000 OA
ATOM     20  H   UNL     1       4.696   1.619  19.657  0.00  0.00    +0.000 HD
ENDBRANCH   6  19
TORSDOF 3
ENDMDL
MODEL 7
REMARK VINA RESULT:      -7.0      2.241      3.485
REMARK  Name = 
REMARK  5 active torsions:
REMARK  status: ('A' for Active; 'I' for Inactive)
REMARK    1  A    between atoms: C_1  and  C_2
REMARK    2  A    between atoms: C_5  and  N_6
REMARK    3  A    between atoms: C_9  and  O_10
REMARK    4  A    between atoms: C_12  and  O_13
REMARK    5  A    between atoms: C_16  and  C_17
REMARK                            x       y       z     vdW  Elec       q    Type
REMARK                         _______ _______ _______ _____ _____    ______ ____
ROOT
ATOM      1  N   UNL     1       6.500   4.756  16.337  0.00  0.00    +0.000 N 
ATOM      2  C   UNL     1       6.771   4.633  14.962  0.00  0.00    +0.000 A 
ATOM      3  C   UNL     1       6.141   3.656  14.213  0.00  0.00    +0.000 A 
ATOM      4  C   UNL     1       6.422   3.642  12.871  0.00  0.00    +0.000 A 
ATOM      5  N   UNL     1       7.278   4.476  12.279  0.00  0.00    +0.000 NA
ATOM      6  C   UNL     1       7.853   5.341  13.106  0.00  0.00    +0.000 A 
ATOM      7  N   UNL     1       7.660   5.479  14.421  0.00  0.00    +0.000 NA
ATOM      8  H   UNL     1       7.042   5.534  16.706  0.00  0.00    +0.000 HD
ENDROOT
BRANCH   1  13
ATOM      9  C   UNL     1       1.322   4.157  18.746  0.00  0.00    +0.000 C 
ATOM     10  C   UNL     1       2.685   4.349  18.141  0.00  0.00    +0.000 A 
ATOM     11  C   UNL     1       3.453   3.227  17.795  0.00  0.00    +0.000 A 
ATOM     12  C   UNL     1       4.719   3.373  17.220  0.00  0.00    +0.000 A 
ATOM     13  C   UNL     1       5.237   4.641  16.957  0.00  0.00    +0.000 A 
ATOM     14  C   UNL     1       4.487   5.760  17.347  0.00  0.00    +0.000 A 
ATOM     15  C   UNL     1       3.213   5.634  17.922  0.00  0.00    +0.000 A 
ATOM     16  C   UNL     1       2.446   6.876  18.286  0.00  0.00    +0.000 C 
ENDBRANCH   1  13
BRANCH   4  17
ATOM     17  O   UNL     1       5.805   2.759  12.034  0.00  0.00    +0.000 OA
ATOM     18  H   UNL     1       5.579   1.964  12.543  0.00  0.00    +0.000 HD
ENDBRANCH   4  17
BRANCH   6  19
ATOM     19  O   UNL     1       8.729   6.189  12.504  0.00  0.00    +0.000 OA
ATOM     20  H   UNL     1       8.294   7.029  12.731  0.00  0.00    +0.000 HD
ENDBRANCH   6  19
TORSDOF 3
ENDMDL
MODEL 8
REMARK VINA RESULT:      -6.9      2.200      3.184
REMARK  Name = 
REMARK  5 active torsions:
REMARK  status: ('A' for Active; 'I' for Inactive)
REMARK    1  A    between atoms: C_1  and  C_2
REMARK    2  A    between atoms: C_5  and  N_6
REMARK    3  A    between atoms: C_9  and  O_10
REMARK    4  A    between atoms: C_12  and  O_13
REMARK    5  A    between atoms: C_16  and  C_17
REMARK                            x       y       z     vdW  Elec       q    Type
REMARK                         _______ _______ _______ _____ _____    ______ ____
ROOT
ATOM      1  N   UNL     1       6.601   4.858  17.046  0.00  0.00    +0.000 N 
ATOM      2  C   UNL     1       6.702   4.742  15.648  0.00  0.00    +0.000 A 
ATOM      3  C   UNL     1       5.803   3.959  14.947  0.00  0.00    +0.000 A 
ATOM      4  C   UNL     1       5.941   3.945  13.583  0.00  0.00    +0.000 A 
ATOM      5  N   UNL     1       6.897   4.601  12.923  0.00  0.00    +0.000 NA
ATOM      6  C   UNL     1       7.725   5.284  13.705  0.00  0.00    +0.000 A 
ATOM      7  N   UNL     1       7.698   5.400  15.035  0.00  0.00    +0.000 NA
ATOM      8  H   UNL     1       7.334   5.484  17.373  0.00  0.00    +0.000 HD
ENDROOT
BRANCH   1  13
ATOM      9  C   UNL     1       1.724   5.222  20.056  0.00  0.00    +0.000 C 
ATOM     10  C   UNL     1       3.006   5.170  19.273  0.00  0.00    +0.000 A 
ATOM     11  C   UNL     1       3.867   4.073  19.424  0.00  0.00    +0.000 A 
ATOM     12  C   UNL     1       5.061   3.990  18.701  0.00  0.00    +0.000 A 
ATOM     13  C   UNL     1       5.411   4.990  17.793  0.00  0.00    +0.000 A 
ATOM     14  C   UNL     1       4.572   6.108  17.679  0.00  0.00    +0.000 A 
ATOM     15  C   UNL     1       3.368   6.206  18.394  0.00  0.00    +0.000 A 
ATOM     16  C   UNL     1       2.496   7.418  18.199  0.00  0.00    +0.000 C 
ENDBRANCH   1  13
BRANCH   4  17
ATOM     17  O   UNL     1       5.066   3.254  12.797  0.00  0.00    +0.000 OA
ATOM     18  H   UNL     1       4.958   3.740  11.964  0.00  0.00    +0.000 HD
ENDBRANCH   4  17
BRANCH   6  19
ATOM     19  O   UNL     1       8.703   5.950  13.033  0.00  0.00    +0.000 OA
ATOM     20  H   UNL     1       8.149   6.362  12.348  0.00  0.00    +0.000 HD
ENDBRANCH   6  19
TORSDOF 3
ENDMDL
MODEL 9
REMARK VINA RESULT:      -6.8      2.084      2.921
REMARK  Name = 
REMARK  5 active torsions:
REMARK  status: ('A' for Active; 'I' for Inactive)
REMARK    1  A    between atoms: C_1  and  C_2
REMARK    2  A    between atoms: C_5  and  N_6
REMARK    3  A    between atoms: C_9  and  O_10
REMARK    4  A    between atoms: C_12  and  O_13
REMARK    5  A    between atoms: C_16  and  C_17
REMARK                            x       y       z     vdW  Elec       q    Type
REMARK                         _______ _______ _______ _____ _____    ______ ____
ROOT
ATOM      1  N   UNL     1       5.800   4.110  19.441  0.00  0.00    +0.000 N 
ATOM      2  C   UNL     1       6.470   4.997  18.579  0.00  0.00    +0.000 A 
ATOM      3  C   UNL     1       6.325   4.879  17.208  0.00  0.00    +0.000 A 
ATOM      4  C   UNL     1       6.970   5.817  16.445  0.00  0.00    +0.000 A 
ATOM      5  N   UNL     1       7.738   6.786  16.944  0.00  0.00    +0.000 NA
ATOM      6  C   UNL     1       7.836   6.773  18.268  0.00  0.00    +0.000 A 
ATOM      7  N   UNL     1       7.253   5.936  19.131  0.00  0.00    +0.000 NA
ATOM      8  H   UNL     1       6.018   4.366  20.402  0.00  0.00    +0.000 HD
ENDROOT
BRANCH   1  13
ATOM      9  C   UNL     1       0.481   2.032  18.841  0.00  0.00    +0.000 C 
ATOM     10  C   UNL     1       1.857   2.616  18.998  0.00  0.00    +0.000 A 
ATOM     11  C   UNL     1       2.805   1.953  19.791  0.00  0.00    +0.000 A 
ATOM     12  C   UNL     1       4.097   2.465  19.948  0.00  0.00    +0.000 A 
ATOM     13  C   UNL     1       4.477   3.640  19.298  0.00  0.00    +0.000 A 
ATOM     14  C   UNL     1       3.513   4.326  18.545  0.00  0.00    +0.000 A 
ATOM     15  C   UNL     1       2.214   3.824  18.373  0.00  0.00    +0.000 A 
ATOM     16  C   UNL     1       1.238   4.593  17.524  0.00  0.00    +0.000 C 
ENDBRANCH   1  13
BRANCH   4  17
ATOM     17  O   UNL     1       6.839   5.826  15.086  0.00  0.00    +0.000 OA
ATOM     18  H   UNL     1       6.403   6.654  14.828  0.00  0.00    +0.000 HD
ENDBRANCH   4  17
BRANCH   6  19
ATOM     19  O   UNL     1       8.623   7.758  18.778  0.00  0.00    +0.000 OA
ATOM     20  H   UNL     1       7.921   8.365  19.070  0.00  0.00    +0.000 HD
ENDBRANCH   6  19
TORSDOF 3
ENDMDL
