MODEL 1
REMARK VINA RESULT:      -7.8      0.000      0.000
REMARK  Name = 
REMARK  2 active torsions:
REMARK  status: ('A' for Active; 'I' for Inactive)
REMARK    1  A    between atoms: C_2  and  C_3
REMARK    2  A    between atoms: C_4  and  C_5
REMARK                            x       y       z     vdW  Elec       q    Type
REMARK                         _______ _______ _______ _____ _____    ______ ____
ROOT
ATOM      1  C   UNL     1       1.810   8.122  18.006  0.00  0.00    +0.000 C 
ATOM      2  C   UNL     1       2.983   7.484  18.142  0.00  0.00    +0.000 C 
ENDROOT
BRANCH   2   3
ATOM      3  C   UNL     1       3.130   6.067  17.780  0.00  0.00    +0.000 A 
ATOM      4  C   UNL     1       2.058   5.202  18.046  0.00  0.00    +0.000 A 
ATOM      5  C   UNL     1       2.144   3.852  17.721  0.00  0.00    +0.000 A 
ATOM      6  C   UNL     1       3.297   3.352  17.124  0.00  0.00    +0.000 A 
ATOM      7  C   UNL     1       4.381   4.193  16.833  0.00  0.00    +0.000 A 
ATOM      8  C   UNL     1       5.533   3.675  16.216  0.00  0.00    +0.000 A 
ATOM      9  C   UNL     1       6.616   4.496  15.911  0.00  0.00    +0.000 A 
ATOM     10  C   UNL     1       6.568   5.846  16.230  0.00  0.00    +0.000 A 
ATOM     11  C   UNL     1       5.435   6.375  16.853  0.00  0.00    +0.000 A 
ATOM     12  C   UNL     1       4.314   5.571  17.163  0.00  0.00    +0.000 A 
ENDBRANCH   2   3
BRANCH   1  14
ATOM     13  O   UNL     1       2.301  10.362  17.457  0.00  0.00    +0.000 OA
ATOM     14  C   UNL     1       1.731   9.592  18.227  0.00  0.00    +0.000 C 
ATOM     15  N   UNL     1       0.961  10.024  19.288  0.00  0.00    +0.000 N 
ATOM     16  C   UNL     1       0.659  11.452  19.429  0.00  0.00    +0.000 C 
ATOM     17  C   UNL     1       1.088  11.971  20.804  0.00  0.00    +0.000 C 
ATOM     18  O   UNL     1       0.510  11.179  21.857  0.00  0.00    +0.000 OA
ATOM     19  C   UNL     1       0.921   9.808  21.740  0.00  0.00    +0.000 C 
ATOM     20  C   UNL     1       0.469   9.206  20.404  0.00  0.00    +0.000 C 
ENDBRANCH   1  14
TORSDOF 2
ENDMDL
MODEL 2
REMARK VINA RESULT:      -7.7      1.239      2.939
REMARK  Name = 
REMARK  2 active torsions:
REMARK  status: ('A' for Active; 'I' for Inactive)
REMARK    1  A    between atoms: C_2  and  C_3
REMARK    2  A    between atoms: C_4  and  C_5
REMARK                            x       y       z     vdW  Elec       q    Type
REMARK                         _______ _______ _______ _____ _____    ______ ____
ROOT
ATOM      1  C   UNL     1       1.957   8.054  17.950  0.00  0.00    +0.000 C 
ATOM      2  C   UNL     1       2.874   7.346  18.628  0.00  0.00    +0.000 C 
ENDROOT
BRANCH   2   3
ATOM      3  C   UNL     1       3.193   5.958  18.265  0.00  0.00    +0.000 A 
ATOM      4  C   UNL     1       4.109   5.741  17.226  0.00  0.00    +0.000 A 
ATOM      5  C   UNL     1       4.448   4.447  16.843  0.00  0.00    +0.000 A 
ATOM      6  C   UNL     1       3.881   3.357  17.497  0.00  0.00    +0.000 A 
ATOM      7  C   UNL     1       2.972   3.541  18.549  0.00  0.00    +0.000 A 
ATOM      8  C   UNL     1       2.419   2.429  19.209  0.00  0.00    +0.000 A 
ATOM      9  C   UNL     1       1.522   2.591  20.262  0.00  0.00    +0.000 A 
ATOM     10  C   UNL     1       1.154   3.869  20.663  0.00  0.00    +0.000 A 
ATOM     11  C   UNL     1       1.686   4.984  20.011  0.00  0.00    +0.000 A 
ATOM     12  C   UNL     1       2.610   4.852  18.948  0.00  0.00    +0.000 A 
ENDBRANCH   2   3
BRANCH   1  14
ATOM     13  O   UNL     1       2.243  10.345  17.477  0.00  0.00    +0.000 OA
ATOM     14  C   UNL     1       1.770   9.503  18.236  0.00  0.00    +0.000 C 
ATOM     15  N   UNL     1       1.017   9.828  19.346  0.00  0.00    +0.000 N 
ATOM     16  C   UNL     1       0.609  11.221  19.559  0.00  0.00    +0.000 C 
ATOM     17  C   UNL     1       1.056  11.719  20.936  0.00  0.00    +0.000 C 
ATOM     18  O   UNL     1       0.590  10.842  21.977  0.00  0.00    +0.000 OA
ATOM     19  C   UNL     1       1.103   9.515  21.785  0.00  0.00    +0.000 C 
ATOM     20  C   UNL     1       0.642   8.930  20.445  0.00  0.00    +0.000 C 
ENDBRANCH   1  14
TORSDOF 2
ENDMDL
MODEL 3
REMARK VINA RESULT:      -7.6      1.251      2.754
REMARK  Name = 
REMARK  2 active torsions:
REMARK  status: ('A' for Active; 'I' for Inactive)
REMARK    1  A    between atoms: C_2  and  C_3
REMARK    2  A    between atoms: C_4  and  C_5
REMARK                            x       y       z     vdW  Elec       q    Type
REMARK                         _______ _______ _______ _____ _____    ______ ____
ROOT
ATOM      1  C   UNL     1       2.430   8.347  18.503  0.00  0.00    +0.000 C 
ATOM      2  C   UNL     1       2.101   7.180  17.927  0.00  0.00    +0.000 C 
ENDROOT
BRANCH   2   3
ATOM      3  C   UNL     1       3.102   6.128  17.700  0.00  0.00    +0.000 A 
ATOM      4  C   UNL     1       4.390   6.517  17.301  0.00  0.00    +0.000 A 
ATOM      5  C   UNL     1       5.375   5.562  17.074  0.00  0.00    +0.000 A 
ATOM      6  C   UNL     1       5.090   4.211  17.249  0.00  0.00    +0.000 A 
ATOM      7  C   UNL     1       3.816   3.792  17.659  0.00  0.00    +0.000 A 
ATOM      8  C   UNL     1       3.548   2.424  17.845  0.00  0.00    +0.000 A 
ATOM      9  C   UNL     1       2.292   1.988  18.262  0.00  0.00    +0.000 A 
ATOM     10  C   UNL     1       1.281   2.913  18.487  0.00  0.00    +0.000 A 
ATOM     11  C   UNL     1       1.529   4.275  18.298  0.00  0.00    +0.000 A 
ATOM     12  C   UNL     1       2.797   4.750  17.889  0.00  0.00    +0.000 A 
ENDBRANCH   2   3
BRANCH   1  14
ATOM     13  O   UNL     1       1.014  10.177  18.053  0.00  0.00    +0.000 OA
ATOM     14  C   UNL     1       1.370   9.326  18.866  0.00  0.00    +0.000 C 
ATOM     15  N   UNL     1       0.796   9.192  20.114  0.00  0.00    +0.000 N 
ATOM     16  C   UNL     1      -0.398   9.974  20.449  0.00  0.00    +0.000 C 
ATOM     17  C   UNL     1      -0.177  10.795  21.722  0.00  0.00    +0.000 C 
ATOM     18  O   UNL     1       0.254   9.956  22.808  0.00  0.00    +0.000 OA
ATOM     19  C   UNL     1       1.484   9.294  22.475  0.00  0.00    +0.000 C 
ATOM     20  C   UNL     1       1.318   8.404  21.238  0.00  0.00    +0.000 C 
ENDBRANCH   1  14
TORSDOF 2
ENDMDL
MODEL 4
REMARK VINA RESULT:      -7.3      1.665      2.577
REMARK  Name = 
REMARK  2 active torsions:
REMARK  status: ('A' for Active; 'I' for Inactive)
REMARK    1  A    between atoms: C_2  and  C_3
REMARK    2  A    between atoms: C_4  and  C_5
REMARK                            x       y       z     vdW  Elec       q    Type
REMARK                         _______ _______ _______ _____ _____    ______ ____
ROOT
ATOM      1  C   UNL     1       1.033   7.809  20.831  0.00  0.00    +0.000 C 
ATOM      2  C   UNL     1       2.140   7.175  20.412  0.00  0.00    +0.000 C 
ENDROOT
BRANCH   2   3
ATOM      3  C   UNL     1       2.082   5.810  19.870  0.00  0.00    +0.000 A 
ATOM      4  C   UNL     1       1.179   4.906  20.450  0.00  0.00    +0.000 A 
ATOM      5  C   UNL     1       1.083   3.603  19.973  0.00  0.00    +0.000 A 
ATOM      6  C   UNL     1       1.880   3.189  18.910  0.00  0.00    +0.000 A 
ATOM      7  C   UNL     1       2.783   4.073  18.300  0.00  0.00    +0.000 A 
ATOM      8  C   UNL     1       3.571   3.644  17.218  0.00  0.00    +0.000 A 
ATOM      9  C   UNL     1       4.466   4.509  16.593  0.00  0.00    +0.000 A 
ATOM     10  C   UNL     1       4.595   5.814  17.049  0.00  0.00    +0.000 A 
ATOM     11  C   UNL     1       3.827   6.253  18.130  0.00  0.00    +0.000 A 
ATOM     12  C   UNL     1       2.900   5.403  18.777  0.00  0.00    +0.000 A 
ENDBRANCH   2   3
BRANCH   1  14
ATOM     13  O   UNL     1       1.459   9.555  22.357  0.00  0.00    +0.000 OA
ATOM     14  C   UNL     1       1.098   9.243  21.224  0.00  0.00    +0.000 C 
ATOM     15  N   UNL     1       0.784  10.172  20.252  0.00  0.00    +0.000 N 
ATOM     16  C   UNL     1       1.040  11.594  20.502  0.00  0.00    +0.000 C 
ATOM     17  C   UNL     1      -0.233  12.422  20.314  0.00  0.00    +0.000 C 
ATOM     18  O   UNL     1      -0.815  12.186  19.019  0.00  0.00    +0.000 OA
ATOM     19  C   UNL     1      -1.148  10.798  18.862  0.00  0.00    +0.000 C 
ATOM     20  C   UNL     1       0.097   9.912  18.981  0.00  0.00    +0.000 C 
ENDBRANCH   1  14
TORSDOF 2
ENDMDL
MODEL 5
REMARK VINA RESULT:      -7.3      3.291      7.471
REMARK  Name = 
REMARK  2 active torsions:
REMARK  status: ('A' for Active; 'I' for Inactive)
REMARK    1  A    between atoms: C_2  and  C_3
REMARK    2  A    between atoms: C_4  and  C_5
REMARK                            x       y       z     vdW  Elec       q    Type
REMARK                         _______ _______ _______ _____ _____    ______ ____
ROOT
ATOM      1  C   UNL     1       2.733   6.683  18.605  0.00  0.00    +0.000 C 
ATOM      2  C   UNL     1       2.414   7.478  19.638  0.00  0.00    +0.000 C 
ENDROOT
BRANCH   2   3
ATOM      3  C   UNL     1       1.466   8.591  19.484  0.00  0.00    +0.000 A 
ATOM      4  C   UNL     1       1.207   9.063  18.188  0.00  0.00    +0.000 A 
ATOM      5  C   UNL     1       0.317  10.113  17.987  0.00  0.00    +0.000 A 
ATOM      6  C   UNL     1      -0.329  10.697  19.072  0.00  0.00    +0.000 A 
ATOM      7  C   UNL     1      -0.100  10.239  20.378  0.00  0.00    +0.000 A 
ATOM      8  C   UNL     1      -0.772  10.831  21.463  0.00  0.00    +0.000 A 
ATOM      9  C   UNL     1      -0.566  10.384  22.765  0.00  0.00    +0.000 A 
ATOM     10  C   UNL     1       0.324   9.345  23.005  0.00  0.00    +0.000 A 
ATOM     11  C   UNL     1       1.006   8.752  21.939  0.00  0.00    +0.000 A 
ATOM     12  C   UNL     1       0.808   9.175  20.604  0.00  0.00    +0.000 A 
ENDBRANCH   2   3
BRANCH   1  14
ATOM     13  O   UNL     1       4.784   5.521  18.651  0.00  0.00    +0.000 OA
ATOM     14  C   UNL     1       3.568   5.471  18.826  0.00  0.00    +0.000 C 
ATOM     15  N   UNL     1       2.919   4.337  19.272  0.00  0.00    +0.000 N 
ATOM     16  C   UNL     1       3.704   3.183  19.721  0.00  0.00    +0.000 C 
ATOM     17  C   UNL     1       3.305   1.918  18.957  0.00  0.00    +0.000 C 
ATOM     18  O   UNL     1       1.888   1.688  19.046  0.00  0.00    +0.000 OA
ATOM     19  C   UNL     1       1.162   2.798  18.497  0.00  0.00    +0.000 C 
ATOM     20  C   UNL     1       1.471   4.094  19.256  0.00  0.00    +0.000 C 
ENDBRANCH   1  14
TORSDOF 2
ENDMDL
MODEL 6
REMARK VINA RESULT:      -7.2      1.774      3.415
REMARK  Name = 
REMARK  2 active torsions:
REMARK  status: ('A' for Active; 'I' for Inactive)
REMARK    1  A    between atoms: C_2  and  C_3
REMARK    2  A    between atoms: C_4  and  C_5
REMARK                            x       y       z     vdW  Elec       q    Type
REMARK                         _______ _______ _______ _____ _____    ______ ____
ROOT
ATOM      1  C   UNL     1       1.744   8.175  19.484  0.00  0.00    +0.000 C 
ATOM      2  C   UNL     1       2.087   6.931  19.854  0.00  0.00    +0.000 C 
ENDROOT
BRANCH   2   3
ATOM      3  C   UNL     1       2.698   5.990  18.904  0.00  0.00    +0.000 A 
ATOM      4  C   UNL     1       3.728   6.463  18.076  0.00  0.00    +0.000 A 
ATOM      5  C   UNL     1       4.342   5.614  17.161  0.00  0.00    +0.000 A 
ATOM      6  C   UNL     1       3.941   4.285  17.066  0.00  0.00    +0.000 A 
ATOM      7  C   UNL     1       2.924   3.779  17.888  0.00  0.00    +0.000 A 
ATOM      8  C   UNL     1       2.540   2.430  17.789  0.00  0.00    +0.000 A 
ATOM      9  C   UNL     1       1.538   1.907  18.603  0.00  0.00    +0.000 A 
ATOM     10  C   UNL     1       0.897   2.728  19.521  0.00  0.00    +0.000 A 
ATOM     11  C   UNL     1       1.259   4.073  19.625  0.00  0.00    +0.000 A 
ATOM     12  C   UNL     1       2.282   4.631  18.822  0.00  0.00    +0.000 A 
ENDBRANCH   2   3
BRANCH   1  14
ATOM     13  O   UNL     1       1.527   8.971  21.692  0.00  0.00    +0.000 OA
ATOM     14  C   UNL     1       1.277   9.154  20.503  0.00  0.00    +0.000 C 
ATOM     15  N   UNL     1       0.609  10.269  20.038  0.00  0.00    +0.000 N 
ATOM     16  C   UNL     1       0.320  11.375  20.957  0.00  0.00    +0.000 C 
ATOM     17  C   UNL     1      -1.176  11.698  20.973  0.00  0.00    +0.000 C 
ATOM     18  O   UNL     1      -1.664  11.946  19.643  0.00  0.00    +0.000 OA
ATOM     19  C   UNL     1      -1.456  10.797  18.808  0.00  0.00    +0.000 C 
ATOM     20  C   UNL     1       0.034  10.451  18.700  0.00  0.00    +0.000 C 
ENDBRANCH   1  14
TORSDOF 2
ENDMDL
MODEL 7
REMARK VINA RESULT:      -7.2      3.342      7.960
REMARK  Name = 
REMARK  2 active torsions:
REMARK  status: ('A' for Active; 'I' for Inactive)
REMARK    1  A    between atoms: C_2  and  C_3
REMARK    2  A    between atoms: C_4  and  C_5
REMARK                            x       y       z     vdW  Elec       q    Type
REMARK                         _______ _______ _______ _____ _____    ______ ____
ROOT
ATOM      1  C   UNL     1       2.144   6.426  20.167  0.00  0.00    +0.000 C 
ATOM      2  C   UNL     1       1.201   7.205  20.720  0.00  0.00    +0.000 C 
ENDROOT
BRANCH   2   3
ATOM      3  C   UNL     1       1.038   8.610  20.321  0.00  0.00    +0.000 A 
ATOM      4  C   UNL     1       1.538   9.004  19.071  0.00  0.00    +0.000 A 
ATOM      5  C   UNL     1       1.407  10.322  18.644  0.00  0.00    +0.000 A 
ATOM      6  C   UNL     1       0.772  11.257  19.454  0.00  0.00    +0.000 A 
ATOM      7  C   UNL     1       0.250  10.891  20.704  0.00  0.00    +0.000 A 
ATOM      8  C   UNL     1      -0.402  11.846  21.505  0.00  0.00    +0.000 A 
ATOM      9  C   UNL     1      -0.936  11.500  22.744  0.00  0.00    +0.000 A 
ATOM     10  C   UNL     1      -0.815  10.196  23.206  0.00  0.00    +0.000 A 
ATOM     11  C   UNL     1      -0.161   9.238  22.427  0.00  0.00    +0.000 A 
ATOM     12  C   UNL     1       0.379   9.555  21.159  0.00  0.00    +0.000 A 
ENDBRANCH   2   3
BRANCH   1  14
ATOM     13  O   UNL     1       2.433   4.587  21.613  0.00  0.00    +0.000 OA
ATOM     14  C   UNL     1       2.182   4.970  20.473  0.00  0.00    +0.000 C 
ATOM     15  N   UNL     1       1.881   4.106  19.439  0.00  0.00    +0.000 N 
ATOM     16  C   UNL     1       1.682   2.681  19.721  0.00  0.00    +0.000 C 
ATOM     17  C   UNL     1       2.611   1.817  18.864  0.00  0.00    +0.000 C 
ATOM     18  O   UNL     1       2.460   2.128  17.467  0.00  0.00    +0.000 OA
ATOM     19  C   UNL     1       2.769   3.509  17.222  0.00  0.00    +0.000 C 
ATOM     20  C   UNL     1       1.833   4.435  18.009  0.00  0.00    +0.000 C 
ENDBRANCH   1  14
TORSDOF 2
ENDMDL
MODEL 8
REMARK VINA RESULT:      -7.2      2.830      7.556
REMARK  Name = 
REMARK  2 active torsions:
REMARK  status: ('A' for Active; 'I' for Inactive)
REMARK    1  A    between atoms: C_2  and  C_3
REMARK    2  A    between atoms: C_4  and  C_5
REMARK                            x       y       z     vdW  Elec       q    Type
REMARK                         _______ _______ _______ _____ _____    ______ ____
ROOT
ATOM      1  C   UNL     1       2.838   7.149  18.428  0.00  0.00    +0.000 C 
ATOM      2  C   UNL     1       2.209   7.607  19.522  0.00  0.00    +0.000 C 
ENDROOT
BRANCH   2   3
ATOM      3  C   UNL     1       1.292   8.754  19.455  0.00  0.00    +0.000 A 
ATOM      4  C   UNL     1       1.005   9.297  18.194  0.00  0.00    +0.000 A 
ATOM      5  C   UNL     1       0.142  10.382  18.074  0.00  0.00    +0.000 A 
ATOM      6  C   UNL     1      -0.448  10.931  19.208  0.00  0.00    +0.000 A 
ATOM      7  C   UNL     1      -0.191  10.403  20.482  0.00  0.00    +0.000 A 
ATOM      8  C   UNL     1      -0.806  10.961  21.616  0.00  0.00    +0.000 A 
ATOM      9  C   UNL     1      -0.571  10.444  22.888  0.00  0.00    +0.000 A 
ATOM     10  C   UNL     1       0.293   9.369  23.046  0.00  0.00    +0.000 A 
ATOM     11  C   UNL     1       0.920   8.809  21.930  0.00  0.00    +0.000 A 
ATOM     12  C   UNL     1       0.691   9.302  20.624  0.00  0.00    +0.000 A 
ENDBRANCH   2   3
BRANCH   1  14
ATOM     13  O   UNL     1       3.282   4.982  19.244  0.00  0.00    +0.000 OA
ATOM     14  C   UNL     1       3.632   5.892  18.496  0.00  0.00    +0.000 C 
ATOM     15  N   UNL     1       4.723   5.797  17.656  0.00  0.00    +0.000 N 
ATOM     16  C   UNL     1       5.413   4.511  17.509  0.00  0.00    +0.000 C 
ATOM     17  C   UNL     1       6.905   4.650  17.822  0.00  0.00    +0.000 C 
ATOM     18  O   UNL     1       7.504   5.690  17.029  0.00  0.00    +0.000 OA
ATOM     19  C   UNL     1       6.866   6.950  17.286  0.00  0.00    +0.000 C 
ATOM     20  C   UNL     1       5.374   6.899  16.936  0.00  0.00    +0.000 C 
ENDBRANCH   1  14
TORSDOF 2
ENDMDL
MODEL 9
REMARK VINA RESULT:      -7.2      2.432      3.727
REMARK  Name = 
REMARK  2 active torsions:
REMARK  status: ('A' for Active; 'I' for Inactive)
REMARK    1  A    between atoms: C_2  and  C_3
REMARK    2  A    between atoms: C_4  and  C_5
REMARK                            x       y       z     vdW  Elec       q    Type
REMARK                         _______ _______ _______ _____ _____    ______ ____
ROOT
ATOM      1  C   UNL     1       1.314   9.131  18.496  0.00  0.00    +0.000 C 
ATOM      2  C   UNL     1       1.833   8.206  19.319  0.00  0.00    +0.000 C 
ENDROOT
BRANCH   2   3
ATOM      3  C   UNL     1       2.657   7.101  18.808  0.00  0.00    +0.000 A 
ATOM      4  C   UNL     1       3.502   7.357  17.718  0.00  0.00    +0.000 A 
ATOM      5  C   UNL     1       4.305   6.348  17.196  0.00  0.00    +0.000 A 
ATOM      6  C   UNL     1       4.278   5.076  17.760  0.00  0.00    +0.000 A 
ATOM      7  C   UNL     1       3.454   4.792  18.859  0.00  0.00    +0.000 A 
ATOM      8  C   UNL     1       3.449   3.505  19.426  0.00  0.00    +0.000 A 
ATOM      9  C   UNL     1       2.645   3.206  20.523  0.00  0.00    +0.000 A 
ATOM     10  C   UNL     1       1.823   4.187  21.062  0.00  0.00    +0.000 A 
ATOM     11  C   UNL     1       1.809   5.468  20.505  0.00  0.00    +0.000 A 
ATOM     12  C   UNL     1       2.624   5.806  19.400  0.00  0.00    +0.000 A 
ENDBRANCH   2   3
BRANCH   1  14
ATOM     13  O   UNL     1       1.072  10.886  20.051  0.00  0.00    +0.000 OA
ATOM     14  C   UNL     1       0.621  10.323  19.056  0.00  0.00    +0.000 C 
ATOM     15  N   UNL     1      -0.497  10.770  18.380  0.00  0.00    +0.000 N 
ATOM     16  C   UNL     1      -1.093  12.060  18.743  0.00  0.00    +0.000 C 
ATOM     17  C   UNL     1      -2.576  11.900  19.089  0.00  0.00    +0.000 C 
ATOM     18  O   UNL     1      -3.286  11.245  18.023  0.00  0.00    +0.000 OA
ATOM     19  C   UNL     1      -2.735   9.943  17.776  0.00  0.00    +0.000 C 
ATOM     20  C   UNL     1      -1.260  10.034  17.365  0.00  0.00    +0.000 C 
ENDBRANCH   1  14
TORSDOF 2
ENDMDL
