MODEL 1
REMARK VINA RESULT:      -7.2      0.000      0.000
REMARK  Name = 
REMARK  18 active torsions:
REMARK  status: ('A' for Active; 'I' for Inactive)
REMARK    1  A    between atoms: C_2  and  C_3
REMARK    2  A    between atoms: C_3  and  C_4
REMARK    3  A    between atoms: C_7  and  O_8
REMARK    4  A    between atoms: O_8  and  C_9
REMARK    5  A    between atoms: C_10  and  O_11
REMARK    6  A    between atoms: O_11  and  C_12
REMARK    7  A    between atoms: C_12  and  C_13
REMARK    8  A    between atoms: C_12  and  C_14
REMARK    9  A    between atoms: C_14  and  O_15
REMARK   10  A    between atoms: C_14  and  C_19
REMARK   11  A    between atoms: O_15  and  C_16
REMARK   12  A    between atoms: C_16  and  C_17
REMARK   13  A    between atoms: C_22  and  O_23
REMARK   14  A    between atoms: O_23  and  C_24
REMARK   15  A    between atoms: C_25  and  O_26
REMARK   16  A    between atoms: O_26  and  C_27
REMARK   17  A    between atoms: C_29  and  O_30
REMARK   18  A    between atoms: O_30  and  C_31
REMARK                            x       y       z     vdW  Elec       q    Type
REMARK                         _______ _______ _______ _____ _____    ______ ____
ROOT
ATOM      1  C   UNL     1       3.679   3.609  18.038  0.00  0.00    +0.000 C 
ATOM      2  C   UNL     1       3.499   2.113  17.757  0.00  0.00    +0.000 C 
ENDROOT
BRANCH   1   3
ATOM      3  O   UNL     1       5.041   3.862  18.447  0.00  0.00    +0.000 OA
BRANCH   3   8
ATOM      4  C   UNL     1       7.437   6.636  17.896  0.00  0.00    +0.000 A 
ATOM      5  C   UNL     1       7.416   6.765  16.506  0.00  0.00    +0.000 A 
ATOM      6  C   UNL     1       6.690   5.877  15.734  0.00  0.00    +0.000 A 
ATOM      7  C   UNL     1       5.895   4.881  16.321  0.00  0.00    +0.000 A 
ATOM      8  C   UNL     1       5.865   4.722  17.730  0.00  0.00    +0.000 A 
ATOM      9  C   UNL     1       6.705   5.580  18.504  0.00  0.00    +0.000 A 
BRANCH   7  10
ATOM     10  O   UNL     1       5.215   4.021  15.494  0.00  0.00    +0.000 OA
ATOM     11  C   UNL     1       5.734   3.919  14.167  0.00  0.00    +0.000 C 
ENDBRANCH   7  10
BRANCH   9  12
ATOM     12  O   UNL     1       6.847   5.507  19.873  0.00  0.00    +0.000 OA
ATOM     13  C   UNL     1       8.159   5.195  20.335  0.00  0.00    +0.000 C 
ENDBRANCH   9  12
BRANCH   4  14
ATOM     14  C   UNL     1       8.218   7.685  18.665  0.00  0.00    +0.000 C 
BRANCH  14  16
ATOM     15  C   UNL     1       8.901  10.103  18.354  0.00  0.00    +0.000 C 
ATOM     16  C   UNL     1       8.223   9.014  17.955  0.00  0.00    +0.000 C 
ENDBRANCH  14  16
ENDBRANCH   4  14
ENDBRANCH   3   8
ENDBRANCH   1   3
BRANCH   1  17
ATOM     17  C   UNL     1       2.604   4.144  19.048  0.00  0.00    +0.000 C 
BRANCH  17  18
ATOM     18  C   UNL     1       2.348   5.652  19.007  0.00  0.00    +0.000 A 
ATOM     19  C   UNL     1       2.523   6.367  17.825  0.00  0.00    +0.000 A 
ATOM     20  C   UNL     1       2.370   7.758  17.807  0.00  0.00    +0.000 A 
ATOM     21  C   UNL     1       2.003   8.463  18.960  0.00  0.00    +0.000 A 
ATOM     22  C   UNL     1       1.795   7.763  20.152  0.00  0.00    +0.000 A 
ATOM     23  C   UNL     1       1.933   6.367  20.149  0.00  0.00    +0.000 A 
BRANCH  21  24
ATOM     24  O   UNL     1       1.960   9.823  18.776  0.00  0.00    +0.000 OA
ATOM     25  C   UNL     1       0.697  10.383  18.445  0.00  0.00    +0.000 C 
ENDBRANCH  21  24
BRANCH  22  26
ATOM     26  O   UNL     1       1.463   8.450  21.292  0.00  0.00    +0.000 OA
ATOM     27  C   UNL     1       0.070   8.559  21.573  0.00  0.00    +0.000 C 
ENDBRANCH  22  26
ENDBRANCH  17  18
BRANCH  17  28
ATOM     28  O   UNL     1       3.056   3.867  20.410  0.00  0.00    +0.000 OA
BRANCH  28  29
ATOM     29  C   UNL     1       2.235   3.214  21.262  0.00  0.00    +0.000 C 
ATOM     30  C   UNL     1       1.067   2.663  20.504  0.00  0.00    +0.000 C 
ATOM     31  O   UNL     1       2.437   3.054  22.458  0.00  0.00    +0.000 OA
ENDBRANCH  28  29
ENDBRANCH  17  28
ENDBRANCH   1  17
TORSDOF 12
ENDMDL
MODEL 2
REMARK VINA RESULT:      -6.7      3.254      8.333
REMARK  Name = 
REMARK  18 active torsions:
REMARK  status: ('A' for Active; 'I' for Inactive)
REMARK    1  A    between atoms: C_2  and  C_3
REMARK    2  A    between atoms: C_3  and  C_4
REMARK    3  A    between atoms: C_7  and  O_8
REMARK    4  A    between atoms: O_8  and  C_9
REMARK    5  A    between atoms: C_10  and  O_11
REMARK    6  A    between atoms: O_11  and  C_12
REMARK    7  A    between atoms: C_12  and  C_13
REMARK    8  A    between atoms: C_12  and  C_14
REMARK    9  A    between atoms: C_14  and  O_15
REMARK   10  A    between atoms: C_14  and  C_19
REMARK   11  A    between atoms: O_15  and  C_16
REMARK   12  A    between atoms: C_16  and  C_17
REMARK   13  A    between atoms: C_22  and  O_23
REMARK   14  A    between atoms: O_23  and  C_24
REMARK   15  A    between atoms: C_25  and  O_26
REMARK   16  A    between atoms: O_26  and  C_27
REMARK   17  A    between atoms: C_29  and  O_30
REMARK   18  A    between atoms: O_30  and  C_31
REMARK                            x       y       z     vdW  Elec       q    Type
REMARK                         _______ _______ _______ _____ _____    ______ ____
ROOT
ATOM      1  C   UNL     1       1.151   9.245  19.019  0.00  0.00    +0.000 C 
ATOM      2  C   UNL     1       1.963   9.091  17.728  0.00  0.00    +0.000 C 
ENDROOT
BRANCH   1   3
ATOM      3  O   UNL     1       1.009  10.646  19.335  0.00  0.00    +0.000 OA
BRANCH   3   8
ATOM      4  C   UNL     1      -1.721  12.584  20.926  0.00  0.00    +0.000 A 
ATOM      5  C   UNL     1      -2.794  12.328  20.071  0.00  0.00    +0.000 A 
ATOM      6  C   UNL     1      -2.604  11.597  18.913  0.00  0.00    +0.000 A 
ATOM      7  C   UNL     1      -1.359  11.027  18.606  0.00  0.00    +0.000 A 
ATOM      8  C   UNL     1      -0.242  11.240  19.453  0.00  0.00    +0.000 A 
ATOM      9  C   UNL     1      -0.433  12.086  20.589  0.00  0.00    +0.000 A 
BRANCH   7  10
ATOM     10  O   UNL     1      -1.237  10.330  17.430  0.00  0.00    +0.000 OA
ATOM     11  C   UNL     1      -2.366  10.407  16.558  0.00  0.00    +0.000 C 
ENDBRANCH   7  10
BRANCH   9  12
ATOM     12  O   UNL     1       0.564  12.451  21.467  0.00  0.00    +0.000 OA
ATOM     13  C   UNL     1       1.356  13.566  21.063  0.00  0.00    +0.000 C 
ENDBRANCH   9  12
BRANCH   4  14
ATOM     14  C   UNL     1      -2.032  13.350  22.199  0.00  0.00    +0.000 C 
BRANCH  14  16
ATOM     15  C   UNL     1      -3.665  12.912  24.083  0.00  0.00    +0.000 C 
ATOM     16  C   UNL     1      -2.730  12.486  23.217  0.00  0.00    +0.000 C 
ENDBRANCH  14  16
ENDBRANCH   4  14
ENDBRANCH   3   8
ENDBRANCH   1   3
BRANCH   1  17
ATOM     17  C   UNL     1       1.750   8.387  20.189  0.00  0.00    +0.000 C 
BRANCH  17  18
ATOM     18  C   UNL     1       2.083   6.935  19.843  0.00  0.00    +0.000 A 
ATOM     19  C   UNL     1       3.039   6.640  18.874  0.00  0.00    +0.000 A 
ATOM     20  C   UNL     1       3.284   5.314  18.499  0.00  0.00    +0.000 A 
ATOM     21  C   UNL     1       2.607   4.250  19.106  0.00  0.00    +0.000 A 
ATOM     22  C   UNL     1       1.663   4.521  20.101  0.00  0.00    +0.000 A 
ATOM     23  C   UNL     1       1.443   5.853  20.480  0.00  0.00    +0.000 A 
BRANCH  21  24
ATOM     24  O   UNL     1       2.926   3.026  18.573  0.00  0.00    +0.000 OA
ATOM     25  C   UNL     1       4.049   2.359  19.131  0.00  0.00    +0.000 C 
ENDBRANCH  21  24
BRANCH  22  26
ATOM     26  O   UNL     1       0.974   3.485  20.681  0.00  0.00    +0.000 OA
ATOM     27  C   UNL     1       1.635   2.819  21.754  0.00  0.00    +0.000 C 
ENDBRANCH  22  26
ENDBRANCH  17  18
BRANCH  17  28
ATOM     28  O   UNL     1       0.768   8.311  21.268  0.00  0.00    +0.000 OA
BRANCH  28  29
ATOM     29  C   UNL     1       0.894   9.125  22.340  0.00  0.00    +0.000 C 
ATOM     30  C   UNL     1      -0.459   9.399  22.921  0.00  0.00    +0.000 C 
ATOM     31  O   UNL     1       1.952   9.537  22.796  0.00  0.00    +0.000 OA
ENDBRANCH  28  29
ENDBRANCH  17  28
ENDBRANCH   1  17
TORSDOF 12
ENDMDL
MODEL 3
REMARK VINA RESULT:      -6.5      2.716      8.342
REMARK  Name = 
REMARK  18 active torsions:
REMARK  status: ('A' for Active; 'I' for Inactive)
REMARK    1  A    between atoms: C_2  and  C_3
REMARK    2  A    between atoms: C_3  and  C_4
REMARK    3  A    between atoms: C_7  and  O_8
REMARK    4  A    between atoms: O_8  and  C_9
REMARK    5  A    between atoms: C_10  and  O_11
REMARK    6  A    between atoms: O_11  and  C_12
REMARK    7  A    between atoms: C_12  and  C_13
REMARK    8  A    between atoms: C_12  and  C_14
REMARK    9  A    between atoms: C_14  and  O_15
REMARK   10  A    between atoms: C_14  and  C_19
REMARK   11  A    between atoms: O_15  and  C_16
REMARK   12  A    between atoms: C_16  and  C_17
REMARK   13  A    between atoms: C_22  and  O_23
REMARK   14  A    between atoms: O_23  and  C_24
REMARK   15  A    between atoms: C_25  and  O_26
REMARK   16  A    between atoms: O_26  and  C_27
REMARK   17  A    between atoms: C_29  and  O_30
REMARK   18  A    between atoms: O_30  and  C_31
REMARK                            x       y       z     vdW  Elec       q    Type
REMARK                         _______ _______ _______ _____ _____    ______ ____
ROOT
ATOM      1  C   UNL     1       1.230   9.173  19.025  0.00  0.00    +0.000 C 
ATOM      2  C   UNL     1       2.118   8.935  17.799  0.00  0.00    +0.000 C 
ENDROOT
BRANCH   1   3
ATOM      3  O   UNL     1       1.090  10.593  19.250  0.00  0.00    +0.000 OA
BRANCH   3   8
ATOM      4  C   UNL     1      -1.610  12.732  20.619  0.00  0.00    +0.000 A 
ATOM      5  C   UNL     1      -2.701  12.360  19.832  0.00  0.00    +0.000 A 
ATOM      6  C   UNL     1      -2.534  11.476  18.782  0.00  0.00    +0.000 A 
ATOM      7  C   UNL     1      -1.295  10.869  18.529  0.00  0.00    +0.000 A 
ATOM      8  C   UNL     1      -0.160  11.197  19.313  0.00  0.00    +0.000 A 
ATOM      9  C   UNL     1      -0.328  12.192  20.325  0.00  0.00    +0.000 A 
BRANCH   7  10
ATOM     10  O   UNL     1      -1.196  10.017  17.457  0.00  0.00    +0.000 OA
ATOM     11  C   UNL     1      -2.300  10.050  16.551  0.00  0.00    +0.000 C 
ENDBRANCH   7  10
BRANCH   9  12
ATOM     12  O   UNL     1       0.688  12.674  21.121  0.00  0.00    +0.000 OA
ATOM     13  C   UNL     1       1.519  13.663  20.519  0.00  0.00    +0.000 C 
ENDBRANCH   9  12
BRANCH   4  14
ATOM     14  C   UNL     1      -1.895  13.666  21.780  0.00  0.00    +0.000 C 
BRANCH  14  16
ATOM     15  C   UNL     1      -2.980  12.093  23.442  0.00  0.00    +0.000 C 
ATOM     16  C   UNL     1      -3.031  13.167  22.636  0.00  0.00    +0.000 C 
ENDBRANCH  14  16
ENDBRANCH   4  14
ENDBRANCH   3   8
ENDBRANCH   1   3
BRANCH   1  17
ATOM     17  C   UNL     1       1.742   8.379  20.278  0.00  0.00    +0.000 C 
BRANCH  17  18
ATOM     18  C   UNL     1       2.055   6.900  20.043  0.00  0.00    +0.000 A 
ATOM     19  C   UNL     1       1.283   5.910  20.646  0.00  0.00    +0.000 A 
ATOM     20  C   UNL     1       1.619   4.560  20.499  0.00  0.00    +0.000 A 
ATOM     21  C   UNL     1       2.711   4.164  19.719  0.00  0.00    +0.000 A 
ATOM     22  C   UNL     1       3.485   5.139  19.082  0.00  0.00    +0.000 A 
ATOM     23  C   UNL     1       3.124   6.486  19.223  0.00  0.00    +0.000 A 
BRANCH  21  24
ATOM     24  O   UNL     1       2.932   2.809  19.737  0.00  0.00    +0.000 OA
ATOM     25  C   UNL     1       3.790   2.314  20.756  0.00  0.00    +0.000 C 
ENDBRANCH  21  24
BRANCH  22  26
ATOM     26  O   UNL     1       4.575   4.760  18.339  0.00  0.00    +0.000 OA
ATOM     27  C   UNL     1       5.849   4.990  18.937  0.00  0.00    +0.000 C 
ENDBRANCH  22  26
ENDBRANCH  17  18
BRANCH  17  28
ATOM     28  O   UNL     1       0.702   8.395  21.304  0.00  0.00    +0.000 OA
BRANCH  28  29
ATOM     29  C   UNL     1       0.858   9.176  22.396  0.00  0.00    +0.000 C 
ATOM     30  C   UNL     1      -0.488   9.565  22.927  0.00  0.00    +0.000 C 
ATOM     31  O   UNL     1       1.929   9.481  22.903  0.00  0.00    +0.000 OA
ENDBRANCH  28  29
ENDBRANCH  17  28
ENDBRANCH   1  17
TORSDOF 12
ENDMDL
MODEL 4
REMARK VINA RESULT:      -6.4      3.032      8.289
REMARK  Name = 
REMARK  18 active torsions:
REMARK  status: ('A' for Active; 'I' for Inactive)
REMARK    1  A    between atoms: C_2  and  C_3
REMARK    2  A    between atoms: C_3  and  C_4
REMARK    3  A    between atoms: C_7  and  O_8
REMARK    4  A    between atoms: O_8  and  C_9
REMARK    5  A    between atoms: C_10  and  O_11
REMARK    6  A    between atoms: O_11  and  C_12
REMARK    7  A    between atoms: C_12  and  C_13
REMARK    8  A    between atoms: C_12  and  C_14
REMARK    9  A    between atoms: C_14  and  O_15
REMARK   10  A    between atoms: C_14  and  C_19
REMARK   11  A    between atoms: O_15  and  C_16
REMARK   12  A    between atoms: C_16  and  C_17
REMARK   13  A    between atoms: C_22  and  O_23
REMARK   14  A    between atoms: O_23  and  C_24
REMARK   15  A    between atoms: C_25  and  O_26
REMARK   16  A    between atoms: O_26  and  C_27
REMARK   17  A    between atoms: C_29  and  O_30
REMARK   18  A    between atoms: O_30  and  C_31
REMARK                            x       y       z     vdW  Elec       q    Type
REMARK                         _______ _______ _______ _____ _____    ______ ____
ROOT
ATOM      1  C   UNL     1       1.103   9.298  19.035  0.00  0.00    +0.000 C 
ATOM      2  C   UNL     1       1.784   8.843  17.739  0.00  0.00    +0.000 C 
ENDROOT
BRANCH   1   3
ATOM      3  O   UNL     1       1.166  10.737  19.133  0.00  0.00    +0.000 OA
BRANCH   3   8
ATOM      4  C   UNL     1      -0.814  12.974  21.328  0.00  0.00    +0.000 A 
ATOM      5  C   UNL     1      -2.088  12.876  20.766  0.00  0.00    +0.000 A 
ATOM      6  C   UNL     1      -2.285  12.152  19.605  0.00  0.00    +0.000 A 
ATOM      7  C   UNL     1      -1.239  11.434  19.006  0.00  0.00    +0.000 A 
ATOM      8  C   UNL     1       0.070  11.483  19.550  0.00  0.00    +0.000 A 
ATOM      9  C   UNL     1       0.276  12.322  20.688  0.00  0.00    +0.000 A 
BRANCH   7  10
ATOM     10  O   UNL     1      -1.500  10.753  17.843  0.00  0.00    +0.000 OA
ATOM     11  C   UNL     1      -2.855  10.816  17.395  0.00  0.00    +0.000 C 
ENDBRANCH   7  10
BRANCH   9  12
ATOM     12  O   UNL     1       1.497  12.537  21.289  0.00  0.00    +0.000 OA
ATOM     13  C   UNL     1       2.308  13.540  20.684  0.00  0.00    +0.000 C 
ENDBRANCH   9  12
BRANCH   4  14
ATOM     14  C   UNL     1      -0.701  13.745  22.629  0.00  0.00    +0.000 C 
BRANCH  14  16
ATOM     15  C   UNL     1      -1.650  16.062  23.002  0.00  0.00    +0.000 C 
ATOM     16  C   UNL     1      -0.775  15.233  22.409  0.00  0.00    +0.000 C 
ENDBRANCH  14  16
ENDBRANCH   4  14
ENDBRANCH   3   8
ENDBRANCH   1   3
BRANCH   1  17
ATOM     17  C   UNL     1       1.681   8.550  20.288  0.00  0.00    +0.000 C 
BRANCH  17  18
ATOM     18  C   UNL     1       2.053   7.082  20.071  0.00  0.00    +0.000 A 
ATOM     19  C   UNL     1       1.302   6.068  20.661  0.00  0.00    +0.000 A 
ATOM     20  C   UNL     1       1.691   4.730  20.532  0.00  0.00    +0.000 A 
ATOM     21  C   UNL     1       2.817   4.370  19.782  0.00  0.00    +0.000 A 
ATOM     22  C   UNL     1       3.570   5.369  19.158  0.00  0.00    +0.000 A 
ATOM     23  C   UNL     1       3.156   6.703  19.280  0.00  0.00    +0.000 A 
BRANCH  21  24
ATOM     24  O   UNL     1       3.086   3.024  19.814  0.00  0.00    +0.000 OA
ATOM     25  C   UNL     1       2.065   2.156  19.341  0.00  0.00    +0.000 C 
ENDBRANCH  21  24
BRANCH  22  26
ATOM     26  O   UNL     1       4.691   5.026  18.445  0.00  0.00    +0.000 OA
ATOM     27  C   UNL     1       5.926   5.083  19.157  0.00  0.00    +0.000 C 
ENDBRANCH  22  26
ENDBRANCH  17  18
BRANCH  17  28
ATOM     28  O   UNL     1       0.665   8.539  21.339  0.00  0.00    +0.000 OA
BRANCH  28  29
ATOM     29  C   UNL     1       0.871   9.251  22.469  0.00  0.00    +0.000 C 
ATOM     30  C   UNL     1      -0.449   9.628  23.068  0.00  0.00    +0.000 C 
ATOM     31  O   UNL     1       1.964   9.509  22.955  0.00  0.00    +0.000 OA
ENDBRANCH  28  29
ENDBRANCH  17  28
ENDBRANCH   1  17
TORSDOF 12
ENDMDL
MODEL 5
REMARK VINA RESULT:      -6.4      1.746      3.939
REMARK  Name = 
REMARK  18 active torsions:
REMARK  status: ('A' for Active; 'I' for Inactive)
REMARK    1  A    between atoms: C_2  and  C_3
REMARK    2  A    between atoms: C_3  and  C_4
REMARK    3  A    between atoms: C_7  and  O_8
REMARK    4  A    between atoms: O_8  and  C_9
REMARK    5  A    between atoms: C_10  and  O_11
REMARK    6  A    between atoms: O_11  and  C_12
REMARK    7  A    between atoms: C_12  and  C_13
REMARK    8  A    between atoms: C_12  and  C_14
REMARK    9  A    between atoms: C_14  and  O_15
REMARK   10  A    between atoms: C_14  and  C_19
REMARK   11  A    between atoms: O_15  and  C_16
REMARK   12  A    between atoms: C_16  and  C_17
REMARK   13  A    between atoms: C_22  and  O_23
REMARK   14  A    between atoms: O_23  and  C_24
REMARK   15  A    between atoms: C_25  and  O_26
REMARK   16  A    between atoms: O_26  and  C_27
REMARK   17  A    between atoms: C_29  and  O_30
REMARK   18  A    between atoms: O_30  and  C_31
REMARK                            x       y       z     vdW  Elec       q    Type
REMARK                         _______ _______ _______ _____ _____    ______ ____
ROOT
ATOM      1  C   UNL     1       3.891   6.273  19.317  0.00  0.00    +0.000 C 
ATOM      2  C   UNL     1       4.233   7.246  18.184  0.00  0.00    +0.000 C 
ENDROOT
BRANCH   1   3
ATOM      3  O   UNL     1       4.404   4.961  18.997  0.00  0.00    +0.000 OA
BRANCH   3   8
ATOM      4  C   UNL     1       5.747   3.984  15.683  0.00  0.00    +0.000 A 
ATOM      5  C   UNL     1       7.125   4.064  15.894  0.00  0.00    +0.000 A 
ATOM      6  C   UNL     1       7.620   4.533  17.096  0.00  0.00    +0.000 A 
ATOM      7  C   UNL     1       6.765   4.863  18.159  0.00  0.00    +0.000 A 
ATOM      8  C   UNL     1       5.359   4.779  18.002  0.00  0.00    +0.000 A 
ATOM      9  C   UNL     1       4.864   4.394  16.718  0.00  0.00    +0.000 A 
BRANCH   7  10
ATOM     10  O   UNL     1       7.324   5.342  19.318  0.00  0.00    +0.000 OA
ATOM     11  C   UNL     1       8.175   6.478  19.158  0.00  0.00    +0.000 C 
ENDBRANCH   7  10
BRANCH   9  12
ATOM     12  O   UNL     1       3.529   4.336  16.381  0.00  0.00    +0.000 OA
ATOM     13  C   UNL     1       2.761   3.367  17.091  0.00  0.00    +0.000 C 
ENDBRANCH   9  12
BRANCH   4  14
ATOM     14  C   UNL     1       5.295   3.410  14.354  0.00  0.00    +0.000 C 
BRANCH  14  16
ATOM     15  C   UNL     1       6.299   3.208  12.038  0.00  0.00    +0.000 C 
ATOM     16  C   UNL     1       6.195   3.835  13.223  0.00  0.00    +0.000 C 
ENDBRANCH  14  16
ENDBRANCH   4  14
ENDBRANCH   3   8
ENDBRANCH   1   3
BRANCH   1  17
ATOM     17  C   UNL     1       2.359   6.290  19.656  0.00  0.00    +0.000 C 
BRANCH  17  18
ATOM     18  C   UNL     1       1.760   7.667  19.946  0.00  0.00    +0.000 A 
ATOM     19  C   UNL     1       1.502   8.559  18.908  0.00  0.00    +0.000 A 
ATOM     20  C   UNL     1       1.032   9.848  19.181  0.00  0.00    +0.000 A 
ATOM     21  C   UNL     1       0.774  10.266  20.491  0.00  0.00    +0.000 A 
ATOM     22  C   UNL     1       0.998   9.378  21.548  0.00  0.00    +0.000 A 
ATOM     23  C   UNL     1       1.451   8.083  21.257  0.00  0.00    +0.000 A 
BRANCH  21  24
ATOM     24  O   UNL     1       0.378  11.578  20.578  0.00  0.00    +0.000 OA
ATOM     25  C   UNL     1       0.851  12.456  19.566  0.00  0.00    +0.000 C 
ENDBRANCH  21  24
BRANCH  22  26
ATOM     26  O   UNL     1       0.775   9.789  22.837  0.00  0.00    +0.000 OA
ATOM     27  C   UNL     1      -0.588   9.823  23.255  0.00  0.00    +0.000 C 
ENDBRANCH  22  26
ENDBRANCH  17  18
BRANCH  17  28
ATOM     28  O   UNL     1       2.137   5.508  20.871  0.00  0.00    +0.000 OA
BRANCH  28  29
ATOM     29  C   UNL     1       1.556   4.291  20.780  0.00  0.00    +0.000 C 
ATOM     30  C   UNL     1       2.228   3.347  21.729  0.00  0.00    +0.000 C 
ATOM     31  O   UNL     1       0.599   4.013  20.071  0.00  0.00    +0.000 OA
ENDBRANCH  28  29
ENDBRANCH  17  28
ENDBRANCH   1  17
TORSDOF 12
ENDMDL
MODEL 6
REMARK VINA RESULT:      -6.3      2.460      7.830
REMARK  Name = 
REMARK  18 active torsions:
REMARK  status: ('A' for Active; 'I' for Inactive)
REMARK    1  A    between atoms: C_2  and  C_3
REMARK    2  A    between atoms: C_3  and  C_4
REMARK    3  A    between atoms: C_7  and  O_8
REMARK    4  A    between atoms: O_8  and  C_9
REMARK    5  A    between atoms: C_10  and  O_11
REMARK    6  A    between atoms: O_11  and  C_12
REMARK    7  A    between atoms: C_12  and  C_13
REMARK    8  A    between atoms: C_12  and  C_14
REMARK    9  A    between atoms: C_14  and  O_15
REMARK   10  A    between atoms: C_14  and  C_19
REMARK   11  A    between atoms: O_15  and  C_16
REMARK   12  A    between atoms: C_16  and  C_17
REMARK   13  A    between atoms: C_22  and  O_23
REMARK   14  A    between atoms: O_23  and  C_24
REMARK   15  A    between atoms: C_25  and  O_26
REMARK   16  A    between atoms: O_26  and  C_27
REMARK   17  A    between atoms: C_29  and  O_30
REMARK   18  A    between atoms: O_30  and  C_31
REMARK                            x       y       z     vdW  Elec       q    Type
REMARK                         _______ _______ _______ _____ _____    ______ ____
ROOT
ATOM      1  C   UNL     1       1.794   8.881  17.831  0.00  0.00    +0.000 C 
ATOM      2  C   UNL     1       2.777  10.056  17.848  0.00  0.00    +0.000 C 
ENDROOT
BRANCH   1   3
ATOM      3  O   UNL     1       1.003   8.897  19.039  0.00  0.00    +0.000 OA
BRANCH   3   8
ATOM      4  C   UNL     1      -0.777  11.479  21.015  0.00  0.00    +0.000 A 
ATOM      5  C   UNL     1      -1.832  11.816  20.166  0.00  0.00    +0.000 A 
ATOM      6  C   UNL     1      -1.911  11.269  18.899  0.00  0.00    +0.000 A 
ATOM      7  C   UNL     1      -0.988  10.306  18.462  0.00  0.00    +0.000 A 
ATOM      8  C   UNL     1       0.090   9.914  19.294  0.00  0.00    +0.000 A 
ATOM      9  C   UNL     1       0.215  10.569  20.557  0.00  0.00    +0.000 A 
BRANCH   7  10
ATOM     10  O   UNL     1      -1.114   9.819  17.184  0.00  0.00    +0.000 OA
ATOM     11  C   UNL     1      -2.366  10.090  16.552  0.00  0.00    +0.000 C 
ENDBRANCH   7  10
BRANCH   9  12
ATOM     12  O   UNL     1       1.244  10.357  21.449  0.00  0.00    +0.000 OA
ATOM     13  C   UNL     1       1.102   9.211  22.285  0.00  0.00    +0.000 C 
ENDBRANCH   9  12
BRANCH   4  14
ATOM     14  C   UNL     1      -0.799  12.088  22.404  0.00  0.00    +0.000 C 
BRANCH  14  16
ATOM     15  C   UNL     1      -2.847  12.957  23.614  0.00  0.00    +0.000 C 
ATOM     16  C   UNL     1      -2.151  11.952  23.055  0.00  0.00    +0.000 C 
ENDBRANCH  14  16
ENDBRANCH   4  14
ENDBRANCH   3   8
ENDBRANCH   1   3
BRANCH   1  17
ATOM     17  C   UNL     1       2.525   7.517  17.569  0.00  0.00    +0.000 C 
BRANCH  17  18
ATOM     18  C   UNL     1       2.137   6.367  18.501  0.00  0.00    +0.000 A 
ATOM     19  C   UNL     1       2.119   6.551  19.882  0.00  0.00    +0.000 A 
ATOM     20  C   UNL     1       1.847   5.479  20.737  0.00  0.00    +0.000 A 
ATOM     21  C   UNL     1       1.551   4.206  20.236  0.00  0.00    +0.000 A 
ATOM     22  C   UNL     1       1.536   4.003  18.852  0.00  0.00    +0.000 A 
ATOM     23  C   UNL     1       1.792   5.093  18.007  0.00  0.00    +0.000 A 
BRANCH  21  24
ATOM     24  O   UNL     1       1.371   3.261  21.216  0.00  0.00    +0.000 OA
ATOM     25  C   UNL     1       2.530   2.561  21.649  0.00  0.00    +0.000 C 
ENDBRANCH  21  24
BRANCH  22  26
ATOM     26  O   UNL     1       1.276   2.752  18.354  0.00  0.00    +0.000 OA
ATOM     27  C   UNL     1       2.399   2.034  17.849  0.00  0.00    +0.000 C 
ENDBRANCH  22  26
ENDBRANCH  17  18
BRANCH  17  28
ATOM     28  O   UNL     1       3.961   7.705  17.766  0.00  0.00    +0.000 OA
BRANCH  28  29
ATOM     29  C   UNL     1       4.832   6.954  17.057  0.00  0.00    +0.000 C 
ATOM     30  C   UNL     1       5.546   6.015  17.980  0.00  0.00    +0.000 C 
ATOM     31  O   UNL     1       4.982   6.996  15.843  0.00  0.00    +0.000 OA
ENDBRANCH  28  29
ENDBRANCH  17  28
ENDBRANCH   1  17
TORSDOF 12
ENDMDL
MODEL 7
REMARK VINA RESULT:      -6.2      3.386      8.978
REMARK  Name = 
REMARK  18 active torsions:
REMARK  status: ('A' for Active; 'I' for Inactive)
REMARK    1  A    between atoms: C_2  and  C_3
REMARK    2  A    between atoms: C_3  and  C_4
REMARK    3  A    between atoms: C_7  and  O_8
REMARK    4  A    between atoms: O_8  and  C_9
REMARK    5  A    between atoms: C_10  and  O_11
REMARK    6  A    between atoms: O_11  and  C_12
REMARK    7  A    between atoms: C_12  and  C_13
REMARK    8  A    between atoms: C_12  and  C_14
REMARK    9  A    between atoms: C_14  and  O_15
REMARK   10  A    between atoms: C_14  and  C_19
REMARK   11  A    between atoms: O_15  and  C_16
REMARK   12  A    between atoms: C_16  and  C_17
REMARK   13  A    between atoms: C_22  and  O_23
REMARK   14  A    between atoms: O_23  and  C_24
REMARK   15  A    between atoms: C_25  and  O_26
REMARK   16  A    between atoms: O_26  and  C_27
REMARK   17  A    between atoms: C_29  and  O_30
REMARK   18  A    between atoms: O_30  and  C_31
REMARK                            x       y       z     vdW  Elec       q    Type
REMARK                         _______ _______ _______ _____ _____    ______ ____
ROOT
ATOM      1  C   UNL     1      -0.090   9.901  19.169  0.00  0.00    +0.000 C 
ATOM      2  C   UNL     1       0.037   9.505  17.694  0.00  0.00    +0.000 C 
ENDROOT
BRANCH   1   3
ATOM      3  O   UNL     1      -0.263  11.331  19.271  0.00  0.00    +0.000 OA
BRANCH   3   8
ATOM      4  C   UNL     1      -2.681  12.858  21.629  0.00  0.00    +0.000 A 
ATOM      5  C   UNL     1      -3.868  12.813  20.896  0.00  0.00    +0.000 A 
ATOM      6  C   UNL     1      -3.862  12.372  19.586  0.00  0.00    +0.000 A 
ATOM      7  C   UNL     1      -2.692  11.883  18.986  0.00  0.00    +0.000 A 
ATOM      8  C   UNL     1      -1.464  11.887  19.696  0.00  0.00    +0.000 A 
ATOM      9  C   UNL     1      -1.469  12.446  21.010  0.00  0.00    +0.000 A 
BRANCH   7  10
ATOM     10  O   UNL     1      -2.754  11.479  17.675  0.00  0.00    +0.000 OA
ATOM     11  C   UNL     1      -3.576  10.336  17.431  0.00  0.00    +0.000 C 
ENDBRANCH   7  10
BRANCH   9  12
ATOM     12  O   UNL     1      -0.350  12.591  21.801  0.00  0.00    +0.000 OA
ATOM     13  C   UNL     1       0.530  13.648  21.426  0.00  0.00    +0.000 C 
ENDBRANCH   9  12
BRANCH   4  14
ATOM     14  C   UNL     1      -2.790  13.307  23.074  0.00  0.00    +0.000 C 
BRANCH  14  16
ATOM     15  C   UNL     1      -4.413  12.550  24.864  0.00  0.00    +0.000 C 
ATOM     16  C   UNL     1      -3.484  12.281  23.931  0.00  0.00    +0.000 C 
ENDBRANCH  14  16
ENDBRANCH   4  14
ENDBRANCH   3   8
ENDBRANCH   1   3
BRANCH   1  17
ATOM     17  C   UNL     1       1.101   9.342  20.025  0.00  0.00    +0.000 C 
BRANCH  17  18
ATOM     18  C   UNL     1       1.929   8.237  19.368  0.00  0.00    +0.000 A 
ATOM     19  C   UNL     1       2.670   8.497  18.217  0.00  0.00    +0.000 A 
ATOM     20  C   UNL     1       3.360   7.467  17.569  0.00  0.00    +0.000 A 
ATOM     21  C   UNL     1       3.357   6.161  18.073  0.00  0.00    +0.000 A 
ATOM     22  C   UNL     1       2.644   5.882  19.242  0.00  0.00    +0.000 A 
ATOM     23  C   UNL     1       1.973   6.929  19.891  0.00  0.00    +0.000 A 
BRANCH  21  24
ATOM     24  O   UNL     1       4.033   5.268  17.278  0.00  0.00    +0.000 OA
ATOM     25  C   UNL     1       5.411   5.074  17.564  0.00  0.00    +0.000 C 
ENDBRANCH  21  24
BRANCH  22  26
ATOM     26  O   UNL     1       2.613   4.599  19.727  0.00  0.00    +0.000 OA
ATOM     27  C   UNL     1       2.230   4.456  21.092  0.00  0.00    +0.000 C 
ENDBRANCH  22  26
ENDBRANCH  17  18
BRANCH  17  28
ATOM     28  O   UNL     1       0.564   8.747  21.247  0.00  0.00    +0.000 OA
BRANCH  28  29
ATOM     29  C   UNL     1       0.830   9.325  22.439  0.00  0.00    +0.000 C 
ATOM     30  C   UNL     1      -0.454   9.581  23.166  0.00  0.00    +0.000 C 
ATOM     31  O   UNL     1       1.947   9.559  22.880  0.00  0.00    +0.000 OA
ENDBRANCH  28  29
ENDBRANCH  17  28
ENDBRANCH   1  17
TORSDOF 12
ENDMDL
MODEL 8
REMARK VINA RESULT:      -6.1      1.934      3.759
REMARK  Name = 
REMARK  18 active torsions:
REMARK  status: ('A' for Active; 'I' for Inactive)
REMARK    1  A    between atoms: C_2  and  C_3
REMARK    2  A    between atoms: C_3  and  C_4
REMARK    3  A    between atoms: C_7  and  O_8
REMARK    4  A    between atoms: O_8  and  C_9
REMARK    5  A    between atoms: C_10  and  O_11
REMARK    6  A    between atoms: O_11  and  C_12
REMARK    7  A    between atoms: C_12  and  C_13
REMARK    8  A    between atoms: C_12  and  C_14
REMARK    9  A    between atoms: C_14  and  O_15
REMARK   10  A    between atoms: C_14  and  C_19
REMARK   11  A    between atoms: O_15  and  C_16
REMARK   12  A    between atoms: C_16  and  C_17
REMARK   13  A    between atoms: C_22  and  O_23
REMARK   14  A    between atoms: O_23  and  C_24
REMARK   15  A    between atoms: C_25  and  O_26
REMARK   16  A    between atoms: O_26  and  C_27
REMARK   17  A    between atoms: C_29  and  O_30
REMARK   18  A    between atoms: O_30  and  C_31
REMARK                            x       y       z     vdW  Elec       q    Type
REMARK                         _______ _______ _______ _____ _____    ______ ____
ROOT
ATOM      1  C   UNL     1       3.554   6.982  18.945  0.00  0.00    +0.000 C 
ATOM      2  C   UNL     1       3.369   7.314  17.460  0.00  0.00    +0.000 C 
ENDROOT
BRANCH   1   3
ATOM      3  O   UNL     1       4.440   5.850  19.079  0.00  0.00    +0.000 OA
BRANCH   3   8
ATOM      4  C   UNL     1       6.270   4.885  16.004  0.00  0.00    +0.000 A 
ATOM      5  C   UNL     1       5.516   3.803  15.546  0.00  0.00    +0.000 A 
ATOM      6  C   UNL     1       4.460   3.322  16.297  0.00  0.00    +0.000 A 
ATOM      7  C   UNL     1       4.065   3.950  17.488  0.00  0.00    +0.000 A 
ATOM      8  C   UNL     1       4.785   5.066  17.985  0.00  0.00    +0.000 A 
ATOM      9  C   UNL     1       5.938   5.482  17.250  0.00  0.00    +0.000 A 
BRANCH   7  10
ATOM     10  O   UNL     1       3.020   3.407  18.193  0.00  0.00    +0.000 OA
ATOM     11  C   UNL     1       2.791   2.015  17.964  0.00  0.00    +0.000 C 
ENDBRANCH   7  10
BRANCH   9  12
ATOM     12  O   UNL     1       6.784   6.498  17.636  0.00  0.00    +0.000 OA
ATOM     13  C   UNL     1       7.731   6.155  18.645  0.00  0.00    +0.000 C 
ENDBRANCH   9  12
BRANCH   4  14
ATOM     14  C   UNL     1       7.377   5.378  15.091  0.00  0.00    +0.000 C 
BRANCH  14  16
ATOM     15  C   UNL     1       7.539   5.175  12.572  0.00  0.00    +0.000 C 
ATOM     16  C   UNL     1       7.411   4.620  13.789  0.00  0.00    +0.000 C 
ENDBRANCH  14  16
ENDBRANCH   4  14
ENDBRANCH   3   8
ENDBRANCH   1   3
BRANCH   1  17
ATOM     17  C   UNL     1       2.178   6.801  19.676  0.00  0.00    +0.000 C 
BRANCH  17  18
ATOM     18  C   UNL     1       1.616   8.054  20.352  0.00  0.00    +0.000 A 
ATOM     19  C   UNL     1       1.478   8.109  21.737  0.00  0.00    +0.000 A 
ATOM     20  C   UNL     1       0.887   9.220  22.348  0.00  0.00    +0.000 A 
ATOM     21  C   UNL     1       0.453  10.317  21.596  0.00  0.00    +0.000 A 
ATOM     22  C   UNL     1       0.605  10.296  20.206  0.00  0.00    +0.000 A 
ATOM     23  C   UNL     1       1.217   9.184  19.610  0.00  0.00    +0.000 A 
BRANCH  21  24
ATOM     24  O   UNL     1      -0.158  11.289  22.350  0.00  0.00    +0.000 OA
ATOM     25  C   UNL     1      -1.280  10.886  23.124  0.00  0.00    +0.000 C 
ENDBRANCH  21  24
BRANCH  22  26
ATOM     26  O   UNL     1       0.155  11.355  19.459  0.00  0.00    +0.000 OA
ATOM     27  C   UNL     1      -1.009  11.115  18.672  0.00  0.00    +0.000 C 
ENDBRANCH  22  26
ENDBRANCH  17  18
BRANCH  17  28
ATOM     28  O   UNL     1       2.340   5.824  20.751  0.00  0.00    +0.000 OA
BRANCH  28  29
ATOM     29  C   UNL     1       1.625   4.677  20.718  0.00  0.00    +0.000 C 
ATOM     30  C   UNL     1       2.187   3.711  21.716  0.00  0.00    +0.000 C 
ATOM     31  O   UNL     1       0.643   4.473  20.018  0.00  0.00    +0.000 OA
ENDBRANCH  28  29
ENDBRANCH  17  28
ENDBRANCH   1  17
TORSDOF 12
ENDMDL
MODEL 9
REMARK VINA RESULT:      -6.1      2.402      5.170
REMARK  Name = 
REMARK  18 active torsions:
REMARK  status: ('A' for Active; 'I' for Inactive)
REMARK    1  A    between atoms: C_2  and  C_3
REMARK    2  A    between atoms: C_3  and  C_4
REMARK    3  A    between atoms: C_7  and  O_8
REMARK    4  A    between atoms: O_8  and  C_9
REMARK    5  A    between atoms: C_10  and  O_11
REMARK    6  A    between atoms: O_11  and  C_12
REMARK    7  A    between atoms: C_12  and  C_13
REMARK    8  A    between atoms: C_12  and  C_14
REMARK    9  A    between atoms: C_14  and  O_15
REMARK   10  A    between atoms: C_14  and  C_19
REMARK   11  A    between atoms: O_15  and  C_16
REMARK   12  A    between atoms: C_16  and  C_17
REMARK   13  A    between atoms: C_22  and  O_23
REMARK   14  A    between atoms: O_23  and  C_24
REMARK   15  A    between atoms: C_25  and  O_26
REMARK   16  A    between atoms: O_26  and  C_27
REMARK   17  A    between atoms: C_29  and  O_30
REMARK   18  A    between atoms: O_30  and  C_31
REMARK                            x       y       z     vdW  Elec       q    Type
REMARK                         _______ _______ _______ _____ _____    ______ ____
ROOT
ATOM      1  C   UNL     1       2.237   8.326  18.692  0.00  0.00    +0.000 C 
ATOM      2  C   UNL     1       2.491   9.314  17.549  0.00  0.00    +0.000 C 
ENDROOT
BRANCH   1   3
ATOM      3  O   UNL     1       2.221   6.980  18.171  0.00  0.00    +0.000 OA
BRANCH   3   8
ATOM      4  C   UNL     1       5.288   4.920  18.466  0.00  0.00    +0.000 A 
ATOM      5  C   UNL     1       4.878   3.912  19.340  0.00  0.00    +0.000 A 
ATOM      6  C   UNL     1       3.621   3.957  19.915  0.00  0.00    +0.000 A 
ATOM      7  C   UNL     1       2.700   4.961  19.579  0.00  0.00    +0.000 A 
ATOM      8  C   UNL     1       3.061   5.996  18.680  0.00  0.00    +0.000 A 
ATOM      9  C   UNL     1       4.399   5.992  18.179  0.00  0.00    +0.000 A 
BRANCH   7  10
ATOM     10  O   UNL     1       1.477   4.956  20.203  0.00  0.00    +0.000 OA
ATOM     11  C   UNL     1       0.829   3.684  20.258  0.00  0.00    +0.000 C 
ENDBRANCH   7  10
BRANCH   9  12
ATOM     12  O   UNL     1       4.929   6.963  17.357  0.00  0.00    +0.000 OA
ATOM     13  C   UNL     1       4.912   6.661  15.964  0.00  0.00    +0.000 C 
ENDBRANCH   9  12
BRANCH   4  14
ATOM     14  C   UNL     1       6.663   4.762  17.843  0.00  0.00    +0.000 C 
BRANCH  14  16
ATOM     15  C   UNL     1       8.038   6.769  18.545  0.00  0.00    +0.000 C 
ATOM     16  C   UNL     1       7.727   5.465  18.645  0.00  0.00    +0.000 C 
ENDBRANCH  14  16
ENDBRANCH   4  14
ENDBRANCH   3   8
ENDBRANCH   1   3
BRANCH   1  17
ATOM     17  C   UNL     1       0.954   8.705  19.513  0.00  0.00    +0.000 C 
BRANCH  17  18
ATOM     18  C   UNL     1       0.432  10.128  19.309  0.00  0.00    +0.000 A 
ATOM     19  C   UNL     1       1.122  11.217  19.837  0.00  0.00    +0.000 A 
ATOM     20  C   UNL     1       0.601  12.511  19.723  0.00  0.00    +0.000 A 
ATOM     21  C   UNL     1      -0.600  12.753  19.047  0.00  0.00    +0.000 A 
ATOM     22  C   UNL     1      -1.296  11.679  18.484  0.00  0.00    +0.000 A 
ATOM     23  C   UNL     1      -0.752  10.391  18.591  0.00  0.00    +0.000 A 
BRANCH  21  24
ATOM     24  O   UNL     1      -0.992  14.069  19.086  0.00  0.00    +0.000 OA
ATOM     25  C   UNL     1      -1.476  14.555  20.330  0.00  0.00    +0.000 C 
ENDBRANCH  21  24
BRANCH  22  26
ATOM     26  O   UNL     1      -2.489  11.905  17.846  0.00  0.00    +0.000 OA
ATOM     27  C   UNL     1      -3.661  11.775  18.647  0.00  0.00    +0.000 C 
ENDBRANCH  22  26
ENDBRANCH  17  18
BRANCH  17  28
ATOM     28  O   UNL     1       1.260   8.607  20.939  0.00  0.00    +0.000 OA
BRANCH  28  29
ATOM     29  C   UNL     1       0.249   8.567  21.834  0.00  0.00    +0.000 C 
ATOM     30  C   UNL     1       0.589   9.430  23.010  0.00  0.00    +0.000 C 
ATOM     31  O   UNL     1      -0.803   7.959  21.688  0.00  0.00    +0.000 OA
ENDBRANCH  28  29
ENDBRANCH  17  28
ENDBRANCH   1  17
TORSDOF 12
ENDMDL
