MODEL 1
REMARK VINA RESULT:      -8.8      0.000      0.000
REMARK  Name = 
REMARK  5 active torsions:
REMARK  status: ('A' for Active; 'I' for Inactive)
REMARK    1  A    between atoms: C_1  and  O_2
REMARK    2  A    between atoms: O_2  and  C_3
REMARK    3  A    between atoms: C_9  and  C_10
REMARK    4  A    between atoms: C_12  and  C_13
REMARK    5  A    between atoms: N_18  and  C_19
REMARK                            x       y       z     vdW  Elec       q    Type
REMARK                         _______ _______ _______ _____ _____    ______ ____
ROOT
ATOM      1  C   UNL     1       3.046   5.844  17.910  0.00  0.00    +0.000 A 
ATOM      2  C   UNL     1       4.215   6.118  17.181  0.00  0.00    +0.000 A 
ATOM      3  C   UNL     1       4.930   5.089  16.537  0.00  0.00    +0.000 A 
ATOM      4  C   UNL     1       6.006   5.405  15.542  0.00  0.00    +0.000 C 
ATOM      5  C   UNL     1       4.597   3.759  16.813  0.00  0.00    +0.000 A 
ATOM      6  C   UNL     1       3.432   3.504  17.528  0.00  0.00    +0.000 A 
ATOM      7  C   UNL     1       3.119   2.199  18.151  0.00  0.00    +0.000 A 
ATOM      8  O   UNL     1       3.859   1.228  18.002  0.00  0.00    +0.000 OA
ATOM      9  N   UNL     1       1.993   2.198  18.973  0.00  0.00    +0.000 N 
ATOM     10  C   UNL     1       2.278   2.289  20.393  0.00  0.00    +0.000 C 
ATOM     11  C   UNL     1       0.981   3.057  18.621  0.00  0.00    +0.000 A 
ATOM     12  N   UNL     1       1.206   4.223  18.133  0.00  0.00    +0.000 NA
ATOM     13  C   UNL     1       2.559   4.534  17.874  0.00  0.00    +0.000 A 
ENDROOT
BRANCH   1  20
ATOM     14  C   UNL     1       0.475  10.021  21.757  0.00  0.00    +0.000 A 
ATOM     15  C   UNL     1       0.523  10.731  20.560  0.00  0.00    +0.000 A 
ATOM     16  C   UNL     1       1.070  10.141  19.415  0.00  0.00    +0.000 A 
ATOM     17  F   UNL     1       1.095  10.857  18.281  0.00  0.00    +0.000 F 
ATOM     18  C   UNL     1       1.581   8.830  19.441  0.00  0.00    +0.000 A 
ATOM     19  N   UNL     1       2.117   8.104  18.378  0.00  0.00    +0.000 NA
ATOM     20  C   UNL     1       2.427   6.882  18.760  0.00  0.00    +0.000 A 
ATOM     21  S   UNL     1       2.259   6.618  20.466  0.00  0.00    +0.000 S 
ATOM     22  C   UNL     1       1.538   8.161  20.658  0.00  0.00    +0.000 A 
ATOM     23  C   UNL     1       0.987   8.723  21.821  0.00  0.00    +0.000 A 
BRANCH  14  25
ATOM     24  C   UNL     1      -1.140  11.375  22.857  0.00  0.00    +0.000 C 
ATOM     25  O   UNL     1      -0.050  10.468  22.940  0.00  0.00    +0.000 OA
ENDBRANCH  14  25
ENDBRANCH   1  20
TORSDOF 2
ENDMDL
MODEL 2
REMARK VINA RESULT:      -8.3      1.630      1.989
REMARK  Name = 
REMARK  5 active torsions:
REMARK  status: ('A' for Active; 'I' for Inactive)
REMARK    1  A    between atoms: C_1  and  O_2
REMARK    2  A    between atoms: O_2  and  C_3
REMARK    3  A    between atoms: C_9  and  C_10
REMARK    4  A    between atoms: C_12  and  C_13
REMARK    5  A    between atoms: N_18  and  C_19
REMARK                            x       y       z     vdW  Elec       q    Type
REMARK                         _______ _______ _______ _____ _____    ______ ____
ROOT
ATOM      1  C   UNL     1       3.422   6.039  18.001  0.00  0.00    +0.000 A 
ATOM      2  C   UNL     1       4.753   6.182  17.577  0.00  0.00    +0.000 A 
ATOM      3  C   UNL     1       5.528   5.061  17.218  0.00  0.00    +0.000 A 
ATOM      4  C   UNL     1       6.839   5.227  16.510  0.00  0.00    +0.000 C 
ATOM      5  C   UNL     1       5.039   3.782  17.500  0.00  0.00    +0.000 A 
ATOM      6  C   UNL     1       3.717   3.656  17.910  0.00  0.00    +0.000 A 
ATOM      7  C   UNL     1       3.161   2.432  18.531  0.00  0.00    +0.000 A 
ATOM      8  O   UNL     1       3.840   1.415  18.649  0.00  0.00    +0.000 OA
ATOM      9  N   UNL     1       1.868   2.567  19.034  0.00  0.00    +0.000 N 
ATOM     10  C   UNL     1       1.795   2.774  20.469  0.00  0.00    +0.000 C 
ATOM     11  C   UNL     1       1.044   3.442  18.372  0.00  0.00    +0.000 A 
ATOM     12  N   UNL     1       1.470   4.544  17.869  0.00  0.00    +0.000 NA
ATOM     13  C   UNL     1       2.863   4.758  17.942  0.00  0.00    +0.000 A 
ENDROOT
BRANCH   1  20
ATOM     14  C   UNL     1       0.317  10.996  20.156  0.00  0.00    +0.000 A 
ATOM     15  C   UNL     1       0.396  10.196  21.292  0.00  0.00    +0.000 A 
ATOM     16  C   UNL     1       1.017   8.944  21.228  0.00  0.00    +0.000 A 
ATOM     17  F   UNL     1       1.075   8.204  22.346  0.00  0.00    +0.000 F 
ATOM     18  C   UNL     1       1.571   8.463  20.027  0.00  0.00    +0.000 A 
ATOM     19  N   UNL     1       2.248   7.261  19.823  0.00  0.00    +0.000 NA
ATOM     20  C   UNL     1       2.689   7.182  18.584  0.00  0.00    +0.000 A 
ATOM     21  S   UNL     1       2.143   8.473  17.561  0.00  0.00    +0.000 S 
ATOM     22  C   UNL     1       1.453   9.278  18.908  0.00  0.00    +0.000 A 
ATOM     23  C   UNL     1       0.844  10.543  18.944  0.00  0.00    +0.000 A 
BRANCH  14  25
ATOM     24  C   UNL     1      -0.833  12.615  18.848  0.00  0.00    +0.000 C 
ATOM     25  O   UNL     1      -0.239  12.245  20.085  0.00  0.00    +0.000 OA
ENDBRANCH  14  25
ENDBRANCH   1  20
TORSDOF 2
ENDMDL
MODEL 3
REMARK VINA RESULT:      -7.9      2.273      3.696
REMARK  Name = 
REMARK  5 active torsions:
REMARK  status: ('A' for Active; 'I' for Inactive)
REMARK    1  A    between atoms: C_1  and  O_2
REMARK    2  A    between atoms: O_2  and  C_3
REMARK    3  A    between atoms: C_9  and  C_10
REMARK    4  A    between atoms: C_12  and  C_13
REMARK    5  A    between atoms: N_18  and  C_19
REMARK                            x       y       z     vdW  Elec       q    Type
REMARK                         _______ _______ _______ _____ _____    ______ ____
ROOT
ATOM      1  C   UNL     1       2.727   5.543  18.821  0.00  0.00    +0.000 A 
ATOM      2  C   UNL     1       1.858   4.445  18.930  0.00  0.00    +0.000 A 
ATOM      3  C   UNL     1       2.218   3.178  18.431  0.00  0.00    +0.000 A 
ATOM      4  C   UNL     1       1.424   1.956  18.785  0.00  0.00    +0.000 C 
ATOM      5  C   UNL     1       3.356   3.067  17.625  0.00  0.00    +0.000 A 
ATOM      6  C   UNL     1       4.211   4.159  17.536  0.00  0.00    +0.000 A 
ATOM      7  C   UNL     1       5.261   4.298  16.502  0.00  0.00    +0.000 A 
ATOM      8  O   UNL     1       5.484   3.397  15.696  0.00  0.00    +0.000 OA
ATOM      9  N   UNL     1       5.890   5.542  16.471  0.00  0.00    +0.000 N 
ATOM     10  C   UNL     1       5.404   6.442  15.442  0.00  0.00    +0.000 C 
ATOM     11  C   UNL     1       6.012   6.193  17.673  0.00  0.00    +0.000 A 
ATOM     12  N   UNL     1       5.100   6.150  18.576  0.00  0.00    +0.000 NA
ATOM     13  C   UNL     1       4.004   5.302  18.307  0.00  0.00    +0.000 A 
ENDROOT
BRANCH   1  20
ATOM     14  C   UNL     1       0.798  11.380  19.855  0.00  0.00    +0.000 A 
ATOM     15  C   UNL     1       0.616  10.796  21.105  0.00  0.00    +0.000 A 
ATOM     16  C   UNL     1       0.918   9.444  21.300  0.00  0.00    +0.000 A 
ATOM     17  F   UNL     1       0.731   8.919  22.521  0.00  0.00    +0.000 F 
ATOM     18  C   UNL     1       1.407   8.645  20.250  0.00  0.00    +0.000 A 
ATOM     19  N   UNL     1       1.782   7.304  20.304  0.00  0.00    +0.000 NA
ATOM     20  C   UNL     1       2.261   6.908  19.142  0.00  0.00    +0.000 A 
ATOM     21  S   UNL     1       2.103   8.088  17.881  0.00  0.00    +0.000 S 
ATOM     22  C   UNL     1       1.553   9.255  19.010  0.00  0.00    +0.000 A 
ATOM     23  C   UNL     1       1.268  10.611  18.787  0.00  0.00    +0.000 A 
BRANCH  14  25
ATOM     24  C   UNL     1      -0.463  12.948  18.590  0.00  0.00    +0.000 C 
ATOM     25  O   UNL     1       0.565  12.690  19.534  0.00  0.00    +0.000 OA
ENDBRANCH  14  25
ENDBRANCH   1  20
TORSDOF 2
ENDMDL
MODEL 4
REMARK VINA RESULT:      -7.5      1.711      3.142
REMARK  Name = 
REMARK  5 active torsions:
REMARK  status: ('A' for Active; 'I' for Inactive)
REMARK    1  A    between atoms: C_1  and  O_2
REMARK    2  A    between atoms: O_2  and  C_3
REMARK    3  A    between atoms: C_9  and  C_10
REMARK    4  A    between atoms: C_12  and  C_13
REMARK    5  A    between atoms: N_18  and  C_19
REMARK                            x       y       z     vdW  Elec       q    Type
REMARK                         _______ _______ _______ _____ _____    ______ ____
ROOT
ATOM      1  C   UNL     1       2.661   5.319  18.910  0.00  0.00    +0.000 A 
ATOM      2  C   UNL     1       1.800   4.210  18.934  0.00  0.00    +0.000 A 
ATOM      3  C   UNL     1       2.175   2.983  18.351  0.00  0.00    +0.000 A 
ATOM      4  C   UNL     1       1.389   1.734  18.613  0.00  0.00    +0.000 C 
ATOM      5  C   UNL     1       3.320   2.938  17.548  0.00  0.00    +0.000 A 
ATOM      6  C   UNL     1       4.166   4.040  17.542  0.00  0.00    +0.000 A 
ATOM      7  C   UNL     1       5.223   4.260  16.529  0.00  0.00    +0.000 A 
ATOM      8  O   UNL     1       5.459   3.419  15.664  0.00  0.00    +0.000 OA
ATOM      9  N   UNL     1       5.841   5.508  16.590  0.00  0.00    +0.000 N 
ATOM     10  C   UNL     1       5.355   6.473  15.623  0.00  0.00    +0.000 C 
ATOM     11  C   UNL     1       5.949   6.075  17.836  0.00  0.00    +0.000 A 
ATOM     12  N   UNL     1       5.031   5.961  18.726  0.00  0.00    +0.000 NA
ATOM     13  C   UNL     1       3.944   5.125  18.390  0.00  0.00    +0.000 A 
ENDROOT
BRANCH   1  20
ATOM     14  C   UNL     1       0.594  10.834  20.951  0.00  0.00    +0.000 A 
ATOM     15  C   UNL     1       0.961  11.137  19.643  0.00  0.00    +0.000 A 
ATOM     16  C   UNL     1       1.511  10.146  18.821  0.00  0.00    +0.000 A 
ATOM     17  F   UNL     1       1.849  10.477  17.565  0.00  0.00    +0.000 F 
ATOM     18  C   UNL     1       1.707   8.834  19.289  0.00  0.00    +0.000 A 
ATOM     19  N   UNL     1       2.207   7.743  18.579  0.00  0.00    +0.000 NA
ATOM     20  C   UNL     1       2.181   6.655  19.321  0.00  0.00    +0.000 A 
ATOM     21  S   UNL     1       1.729   6.943  20.971  0.00  0.00    +0.000 S 
ATOM     22  C   UNL     1       1.352   8.575  20.607  0.00  0.00    +0.000 A 
ATOM     23  C   UNL     1       0.789   9.545  21.452  0.00  0.00    +0.000 A 
BRANCH  14  25
ATOM     24  C   UNL     1      -0.898  11.144  22.776  0.00  0.00    +0.000 C 
ATOM     25  O   UNL     1       0.026  11.697  21.851  0.00  0.00    +0.000 OA
ENDBRANCH  14  25
ENDBRANCH   1  20
TORSDOF 2
ENDMDL
MODEL 5
REMARK VINA RESULT:      -7.2      2.324      3.801
REMARK  Name = 
REMARK  5 active torsions:
REMARK  status: ('A' for Active; 'I' for Inactive)
REMARK    1  A    between atoms: C_1  and  O_2
REMARK    2  A    between atoms: O_2  and  C_3
REMARK    3  A    between atoms: C_9  and  C_10
REMARK    4  A    between atoms: C_12  and  C_13
REMARK    5  A    between atoms: N_18  and  C_19
REMARK                            x       y       z     vdW  Elec       q    Type
REMARK                         _______ _______ _______ _____ _____    ______ ____
ROOT
ATOM      1  C   UNL     1       2.471   5.644  20.169  0.00  0.00    +0.000 A 
ATOM      2  C   UNL     1       1.629   4.748  20.849  0.00  0.00    +0.000 A 
ATOM      3  C   UNL     1       1.877   3.362  20.836  0.00  0.00    +0.000 A 
ATOM      4  C   UNL     1       1.155   2.441  21.774  0.00  0.00    +0.000 C 
ATOM      5  C   UNL     1       2.838   2.855  19.955  0.00  0.00    +0.000 A 
ATOM      6  C   UNL     1       3.670   3.753  19.297  0.00  0.00    +0.000 A 
ATOM      7  C   UNL     1       4.504   3.396  18.127  0.00  0.00    +0.000 A 
ATOM      8  O   UNL     1       4.561   2.239  17.716  0.00  0.00    +0.000 OA
ATOM      9  N   UNL     1       5.126   4.475  17.502  0.00  0.00    +0.000 N 
ATOM     10  C   UNL     1       4.459   4.947  16.302  0.00  0.00    +0.000 C 
ATOM     11  C   UNL     1       5.481   5.527  18.309  0.00  0.00    +0.000 A 
ATOM     12  N   UNL     1       4.758   5.911  19.299  0.00  0.00    +0.000 NA
ATOM     13  C   UNL     1       3.624   5.118  19.579  0.00  0.00    +0.000 A 
ENDROOT
BRANCH   1  20
ATOM     14  C   UNL     1       0.931  11.596  19.142  0.00  0.00    +0.000 A 
ATOM     15  C   UNL     1       0.545  11.429  20.469  0.00  0.00    +0.000 A 
ATOM     16  C   UNL     1       0.704  10.188  21.096  0.00  0.00    +0.000 A 
ATOM     17  F   UNL     1       0.323  10.069  22.377  0.00  0.00    +0.000 F 
ATOM     18  C   UNL     1       1.251   9.088  20.411  0.00  0.00    +0.000 A 
ATOM     19  N   UNL     1       1.501   7.811  20.913  0.00  0.00    +0.000 NA
ATOM     20  C   UNL     1       2.086   7.060  20.001  0.00  0.00    +0.000 A 
ATOM     21  S   UNL     1       2.188   7.807  18.439  0.00  0.00    +0.000 S 
ATOM     22  C   UNL     1       1.602   9.284  19.081  0.00  0.00    +0.000 A 
ATOM     23  C   UNL     1       1.464  10.520  18.428  0.00  0.00    +0.000 A 
BRANCH  14  25
ATOM     24  C   UNL     1      -0.426  13.365  18.316  0.00  0.00    +0.000 C 
ATOM     25  O   UNL     1       0.853  12.756  18.419  0.00  0.00    +0.000 OA
ENDBRANCH  14  25
ENDBRANCH   1  20
TORSDOF 2
ENDMDL
MODEL 6
REMARK VINA RESULT:      -6.8      2.774      7.670
REMARK  Name = 
REMARK  5 active torsions:
REMARK  status: ('A' for Active; 'I' for Inactive)
REMARK    1  A    between atoms: C_1  and  O_2
REMARK    2  A    between atoms: O_2  and  C_3
REMARK    3  A    between atoms: C_9  and  C_10
REMARK    4  A    between atoms: C_12  and  C_13
REMARK    5  A    between atoms: N_18  and  C_19
REMARK                            x       y       z     vdW  Elec       q    Type
REMARK                         _______ _______ _______ _____ _____    ______ ____
ROOT
ATOM      1  C   UNL     1       0.318   9.794  18.360  0.00  0.00    +0.000 A 
ATOM      2  C   UNL     1      -0.672   9.750  17.364  0.00  0.00    +0.000 A 
ATOM      3  C   UNL     1      -1.796  10.596  17.416  0.00  0.00    +0.000 A 
ATOM      4  C   UNL     1      -2.702  10.747  16.230  0.00  0.00    +0.000 C 
ATOM      5  C   UNL     1      -2.040  11.327  18.583  0.00  0.00    +0.000 A 
ATOM      6  C   UNL     1      -1.047  11.369  19.555  0.00  0.00    +0.000 A 
ATOM      7  C   UNL     1      -1.275  11.830  20.943  0.00  0.00    +0.000 A 
ATOM      8  O   UNL     1      -2.363  12.280  21.293  0.00  0.00    +0.000 OA
ATOM      9  N   UNL     1      -0.202  11.627  21.810  0.00  0.00    +0.000 N 
ATOM     10  C   UNL     1      -0.327  10.461  22.665  0.00  0.00    +0.000 C 
ATOM     11  C   UNL     1       1.052  11.695  21.255  0.00  0.00    +0.000 A 
ATOM     12  N   UNL     1       1.309  11.253  20.077  0.00  0.00    +0.000 NA
ATOM     13  C   UNL     1       0.201  10.788  19.336  0.00  0.00    +0.000 A 
ENDROOT
BRANCH   1  20
ATOM     14  C   UNL     1       4.635   5.330  18.902  0.00  0.00    +0.000 A 
ATOM     15  C   UNL     1       4.946   5.875  17.659  0.00  0.00    +0.000 A 
ATOM     16  C   UNL     1       4.177   6.922  17.139  0.00  0.00    +0.000 A 
ATOM     17  F   UNL     1       4.512   7.422  15.939  0.00  0.00    +0.000 F 
ATOM     18  C   UNL     1       3.080   7.446  17.847  0.00  0.00    +0.000 A 
ATOM     19  N   UNL     1       2.252   8.503  17.474  0.00  0.00    +0.000 NA
ATOM     20  C   UNL     1       1.373   8.762  18.421  0.00  0.00    +0.000 A 
ATOM     21  S   UNL     1       1.389   7.615  19.723  0.00  0.00    +0.000 S 
ATOM     22  C   UNL     1       2.784   6.861  19.072  0.00  0.00    +0.000 A 
ATOM     23  C   UNL     1       3.543   5.817  19.625  0.00  0.00    +0.000 A 
BRANCH  14  25
ATOM     24  C   UNL     1       4.669   3.061  19.612  0.00  0.00    +0.000 C 
ATOM     25  O   UNL     1       5.314   4.324  19.535  0.00  0.00    +0.000 OA
ENDBRANCH  14  25
ENDBRANCH   1  20
TORSDOF 2
ENDMDL
MODEL 7
REMARK VINA RESULT:      -6.7      5.432     11.215
REMARK  Name = 
REMARK  5 active torsions:
REMARK  status: ('A' for Active; 'I' for Inactive)
REMARK    1  A    between atoms: C_1  and  O_2
REMARK    2  A    between atoms: O_2  and  C_3
REMARK    3  A    between atoms: C_9  and  C_10
REMARK    4  A    between atoms: C_12  and  C_13
REMARK    5  A    between atoms: N_18  and  C_19
REMARK                            x       y       z     vdW  Elec       q    Type
REMARK                         _______ _______ _______ _____ _____    ______ ____
ROOT
ATOM      1  C   UNL     1      -2.201  13.659  23.660  0.00  0.00    +0.000 A 
ATOM      2  C   UNL     1      -1.444  14.577  24.405  0.00  0.00    +0.000 A 
ATOM      3  C   UNL     1      -2.065  15.587  25.166  0.00  0.00    +0.000 A 
ATOM      4  C   UNL     1      -1.286  16.385  26.169  0.00  0.00    +0.000 C 
ATOM      5  C   UNL     1      -3.434  15.815  24.998  0.00  0.00    +0.000 A 
ATOM      6  C   UNL     1      -4.172  14.892  24.266  0.00  0.00    +0.000 A 
ATOM      7  C   UNL     1      -5.535  15.153  23.750  0.00  0.00    +0.000 A 
ATOM      8  O   UNL     1      -6.126  16.197  24.015  0.00  0.00    +0.000 OA
ATOM      9  N   UNL     1      -6.032  14.175  22.890  0.00  0.00    +0.000 N 
ATOM     10  C   UNL     1      -5.933  14.502  21.479  0.00  0.00    +0.000 C 
ATOM     11  C   UNL     1      -5.615  12.888  23.124  0.00  0.00    +0.000 A 
ATOM     12  N   UNL     1      -4.424  12.609  23.514  0.00  0.00    +0.000 NA
ATOM     13  C   UNL     1      -3.592  13.715  23.795  0.00  0.00    +0.000 A 
ENDROOT
BRANCH   1  20
ATOM     14  C   UNL     1       0.446  10.013  19.352  0.00  0.00    +0.000 A 
ATOM     15  C   UNL     1       0.883   9.419  20.532  0.00  0.00    +0.000 A 
ATOM     16  C   UNL     1       0.519   9.963  21.769  0.00  0.00    +0.000 A 
ATOM     17  F   UNL     1       0.958   9.359  22.884  0.00  0.00    +0.000 F 
ATOM     18  C   UNL     1      -0.289  11.112  21.853  0.00  0.00    +0.000 A 
ATOM     19  N   UNL     1      -0.759  11.740  23.006  0.00  0.00    +0.000 NA
ATOM     20  C   UNL     1      -1.548  12.748  22.697  0.00  0.00    +0.000 A 
ATOM     21  S   UNL     1      -1.606  13.097  20.998  0.00  0.00    +0.000 S 
ATOM     22  C   UNL     1      -0.687  11.692  20.655  0.00  0.00    +0.000 A 
ATOM     23  C   UNL     1      -0.346  11.164  19.399  0.00  0.00    +0.000 A 
BRANCH  14  25
ATOM     24  C   UNL     1       1.901   8.829  17.893  0.00  0.00    +0.000 C 
ATOM     25  O   UNL     1       0.707   9.574  18.082  0.00  0.00    +0.000 OA
ENDBRANCH  14  25
ENDBRANCH   1  20
TORSDOF 2
ENDMDL
MODEL 8
REMARK VINA RESULT:      -6.5      2.958      7.978
REMARK  Name = 
REMARK  5 active torsions:
REMARK  status: ('A' for Active; 'I' for Inactive)
REMARK    1  A    between atoms: C_1  and  O_2
REMARK    2  A    between atoms: O_2  and  C_3
REMARK    3  A    between atoms: C_9  and  C_10
REMARK    4  A    between atoms: C_12  and  C_13
REMARK    5  A    between atoms: N_18  and  C_19
REMARK                            x       y       z     vdW  Elec       q    Type
REMARK                         _______ _______ _______ _____ _____    ______ ____
ROOT
ATOM      1  C   UNL     1      -0.014  10.036  18.588  0.00  0.00    +0.000 A 
ATOM      2  C   UNL     1      -0.993  10.049  17.580  0.00  0.00    +0.000 A 
ATOM      3  C   UNL     1      -2.095  10.924  17.646  0.00  0.00    +0.000 A 
ATOM      4  C   UNL     1      -2.981  11.137  16.455  0.00  0.00    +0.000 C 
ATOM      5  C   UNL     1      -2.332  11.625  18.832  0.00  0.00    +0.000 A 
ATOM      6  C   UNL     1      -1.350  11.610  19.816  0.00  0.00    +0.000 A 
ATOM      7  C   UNL     1      -1.582  12.033  21.215  0.00  0.00    +0.000 A 
ATOM      8  O   UNL     1      -2.662  12.502  21.568  0.00  0.00    +0.000 OA
ATOM      9  N   UNL     1      -0.525  11.774  22.087  0.00  0.00    +0.000 N 
ATOM     10  C   UNL     1      -0.692  10.586  22.904  0.00  0.00    +0.000 C 
ATOM     11  C   UNL     1       0.737  11.825  21.549  0.00  0.00    +0.000 A 
ATOM     12  N   UNL     1       0.996  11.413  20.361  0.00  0.00    +0.000 NA
ATOM     13  C   UNL     1      -0.116  11.001  19.593  0.00  0.00    +0.000 A 
ENDROOT
BRANCH   1  20
ATOM     14  C   UNL     1       4.463   5.699  18.503  0.00  0.00    +0.000 A 
ATOM     15  C   UNL     1       3.735   5.332  19.631  0.00  0.00    +0.000 A 
ATOM     16  C   UNL     1       2.624   6.086  20.026  0.00  0.00    +0.000 A 
ATOM     17  F   UNL     1       1.947   5.697  21.118  0.00  0.00    +0.000 F 
ATOM     18  C   UNL     1       2.218   7.224  19.305  0.00  0.00    +0.000 A 
ATOM     19  N   UNL     1       1.120   8.044  19.557  0.00  0.00    +0.000 NA
ATOM     20  C   UNL     1       1.011   8.973  18.628  0.00  0.00    +0.000 A 
ATOM     21  S   UNL     1       2.342   9.010  17.516  0.00  0.00    +0.000 S 
ATOM     22  C   UNL     1       2.983   7.574  18.199  0.00  0.00    +0.000 A 
ATOM     23  C   UNL     1       4.096   6.832  17.772  0.00  0.00    +0.000 A 
BRANCH  14  25
ATOM     24  C   UNL     1       5.460   4.596  16.648  0.00  0.00    +0.000 C 
ATOM     25  O   UNL     1       5.550   5.041  17.994  0.00  0.00    +0.000 OA
ENDBRANCH  14  25
ENDBRANCH   1  20
TORSDOF 2
ENDMDL
MODEL 9
REMARK VINA RESULT:      -6.5      3.134      8.190
REMARK  Name = 
REMARK  5 active torsions:
REMARK  status: ('A' for Active; 'I' for Inactive)
REMARK    1  A    between atoms: C_1  and  O_2
REMARK    2  A    between atoms: O_2  and  C_3
REMARK    3  A    between atoms: C_9  and  C_10
REMARK    4  A    between atoms: C_12  and  C_13
REMARK    5  A    between atoms: N_18  and  C_19
REMARK                            x       y       z     vdW  Elec       q    Type
REMARK                         _______ _______ _______ _____ _____    ______ ____
ROOT
ATOM      1  C   UNL     1       0.550  10.417  18.305  0.00  0.00    +0.000 A 
ATOM      2  C   UNL     1      -0.842  10.237  18.261  0.00  0.00    +0.000 A 
ATOM      3  C   UNL     1      -1.722  11.330  18.384  0.00  0.00    +0.000 A 
ATOM      4  C   UNL     1      -3.180  11.184  18.064  0.00  0.00    +0.000 C 
ATOM      5  C   UNL     1      -1.209  12.571  18.775  0.00  0.00    +0.000 A 
ATOM      6  C   UNL     1       0.170  12.735  18.805  0.00  0.00    +0.000 A 
ATOM      7  C   UNL     1       0.849  13.863  19.482  0.00  0.00    +0.000 A 
ATOM      8  O   UNL     1       0.207  14.773  20.002  0.00  0.00    +0.000 OA
ATOM      9  N   UNL     1       2.237  13.753  19.553  0.00  0.00    +0.000 N 
ATOM     10  C   UNL     1       2.743  13.283  20.829  0.00  0.00    +0.000 C 
ATOM     11  C   UNL     1       2.851  13.100  18.513  0.00  0.00    +0.000 A 
ATOM     12  N   UNL     1       2.327  12.080  17.935  0.00  0.00    +0.000 NA
ATOM     13  C   UNL     1       1.026  11.730  18.358  0.00  0.00    +0.000 A 
ENDROOT
BRANCH   1  20
ATOM     14  C   UNL     1       4.240   5.439  18.991  0.00  0.00    +0.000 A 
ATOM     15  C   UNL     1       4.590   5.877  17.717  0.00  0.00    +0.000 A 
ATOM     16  C   UNL     1       3.956   6.993  17.159  0.00  0.00    +0.000 A 
ATOM     17  F   UNL     1       4.324   7.385  15.929  0.00  0.00    +0.000 F 
ATOM     18  C   UNL     1       2.957   7.694  17.860  0.00  0.00    +0.000 A 
ATOM     19  N   UNL     1       2.270   8.835  17.450  0.00  0.00    +0.000 NA
ATOM     20  C   UNL     1       1.458   9.255  18.399  0.00  0.00    +0.000 A 
ATOM     21  S   UNL     1       1.353   8.180  19.756  0.00  0.00    +0.000 S 
ATOM     22  C   UNL     1       2.617   7.213  19.119  0.00  0.00    +0.000 A 
ATOM     23  C   UNL     1       3.242   6.103  19.709  0.00  0.00    +0.000 A 
BRANCH  14  25
ATOM     24  C   UNL     1       4.265   3.094  19.380  0.00  0.00    +0.000 C 
ATOM     25  O   UNL     1       4.794   4.382  19.662  0.00  0.00    +0.000 OA
ENDBRANCH  14  25
ENDBRANCH   1  20
TORSDOF 2
ENDMDL
