MODEL 1
REMARK VINA RESULT:      -6.8      0.000      0.000
REMARK  Name = 
REMARK  4 active torsions:
REMARK  status: ('A' for Active; 'I' for Inactive)
REMARK    1  A    between atoms: C_1  and  C_2
REMARK    2  A    between atoms: C_8  and  C_10
REMARK    3  A    between atoms: C_10  and  N_11
REMARK    4  A    between atoms: N_14  and  C_15
REMARK                            x       y       z     vdW  Elec       q    Type
REMARK                         _______ _______ _______ _____ _____    ______ ____
ROOT
ATOM      1  C   UNL     1      -3.620  13.667  22.382  0.00  0.00    +0.000 C 
ATOM      2  C   UNL     1      -4.571  13.197  21.311  0.00  0.00    +0.000 A 
ATOM      3  S   UNL     1      -6.161  13.592  21.633  0.00  0.00    +0.000 S 
ATOM      4  C   UNL     1      -6.758  13.141  20.189  0.00  0.00    +0.000 A 
ATOM      5  C   UNL     1      -5.732  12.666  19.362  0.00  0.00    +0.000 A 
ATOM      6  C   UNL     1      -4.444  12.554  20.000  0.00  0.00    +0.000 A 
ATOM      7  N   UNL     1      -3.211  12.012  19.363  0.00  0.00    +0.000 N 
ATOM      8  C   UNL     1      -1.975  12.063  20.042  0.00  0.00    +0.000 C 
ATOM      9  O   UNL     1      -1.927  12.202  21.236  0.00  0.00    +0.000 OA
ATOM     10  C   UNL     1      -3.198  11.322  18.057  0.00  0.00    +0.000 A 
ATOM     11  C   UNL     1      -2.224  10.289  17.849  0.00  0.00    +0.000 A 
ATOM     12  C   UNL     1      -1.991   9.669  16.631  0.00  0.00    +0.000 A 
ATOM     13  C   UNL     1      -2.744  10.009  15.537  0.00  0.00    +0.000 A 
ATOM     14  C   UNL     1      -3.794  10.886  15.699  0.00  0.00    +0.000 A 
ATOM     15  C   UNL     1      -4.090  11.507  16.941  0.00  0.00    +0.000 A 
ATOM     16  N   UNL     1      -5.334  12.170  16.922  0.00  0.00    +0.000 N 
ATOM     17  C   UNL     1      -6.126  12.529  17.943  0.00  0.00    +0.000 C 
ATOM     18  O   UNL     1      -7.273  12.852  17.649  0.00  0.00    +0.000 OA
ATOM     19  H   UNL     1      -5.806  12.225  16.001  0.00  0.00    +0.000 HD
ENDROOT
BRANCH   8  20
ATOM     20  C   UNL     1      -0.566  11.949  19.429  0.00  0.00    +0.000 C 
BRANCH  20  21
ATOM     21  N   UNL     1       0.202  13.185  19.657  0.00  0.00    +0.000 NA
ATOM     22  C   UNL     1      -0.000  14.167  18.580  0.00  0.00    +0.000 C 
ATOM     23  C   UNL     1       0.677  15.485  18.980  0.00  0.00    +0.000 C 
ATOM     24  N   UNL     1       2.116  15.314  19.283  0.00  0.00    +0.000 NA
ATOM     25  C   UNL     1       2.958  15.255  18.078  0.00  0.00    +0.000 C 
ATOM     26  C   UNL     1       2.366  14.192  20.213  0.00  0.00    +0.000 C 
ATOM     27  C   UNL     1       1.646  12.906  19.780  0.00  0.00    +0.000 C 
ENDBRANCH  20  21
ENDBRANCH   8  20
TORSDOF 2
ENDMDL
MODEL 2
REMARK VINA RESULT:      -6.6      1.551      2.034
REMARK  Name = 
REMARK  4 active torsions:
REMARK  status: ('A' for Active; 'I' for Inactive)
REMARK    1  A    between atoms: C_1  and  C_2
REMARK    2  A    between atoms: C_8  and  C_10
REMARK    3  A    between atoms: C_10  and  N_11
REMARK    4  A    between atoms: N_14  and  C_15
REMARK                            x       y       z     vdW  Elec       q    Type
REMARK                         _______ _______ _______ _____ _____    ______ ____
ROOT
ATOM      1  C   UNL     1      -1.247  13.991  23.585  0.00  0.00    +0.000 C 
ATOM      2  C   UNL     1      -2.442  13.435  22.853  0.00  0.00    +0.000 A 
ATOM      3  S   UNL     1      -3.882  13.714  23.650  0.00  0.00    +0.000 S 
ATOM      4  C   UNL     1      -4.857  13.196  22.456  0.00  0.00    +0.000 A 
ATOM      5  C   UNL     1      -4.100  12.786  21.351  0.00  0.00    +0.000 A 
ATOM      6  C   UNL     1      -2.674  12.782  21.562  0.00  0.00    +0.000 A 
ATOM      7  N   UNL     1      -1.657  12.323  20.573  0.00  0.00    +0.000 N 
ATOM      8  C   UNL     1      -0.281  12.478  20.841  0.00  0.00    +0.000 C 
ATOM      9  O   UNL     1       0.120  12.639  21.963  0.00  0.00    +0.000 OA
ATOM     10  C   UNL     1      -1.993  11.615  19.321  0.00  0.00    +0.000 A 
ATOM     11  C   UNL     1      -1.054  10.655  18.816  0.00  0.00    +0.000 A 
ATOM     12  C   UNL     1      -1.158  10.035  17.581  0.00  0.00    +0.000 A 
ATOM     13  C   UNL     1      -2.234  10.299  16.773  0.00  0.00    +0.000 A 
ATOM     14  C   UNL     1      -3.248  11.097  17.257  0.00  0.00    +0.000 A 
ATOM     15  C   UNL     1      -3.195  11.714  18.534  0.00  0.00    +0.000 A 
ATOM     16  N   UNL     1      -4.433  12.282  18.902  0.00  0.00    +0.000 N 
ATOM     17  C   UNL     1      -4.899  12.597  20.120  0.00  0.00    +0.000 C 
ATOM     18  O   UNL     1      -6.102  12.827  20.194  0.00  0.00    +0.000 OA
ATOM     19  H   UNL     1      -5.166  12.286  18.171  0.00  0.00    +0.000 HD
ENDROOT
BRANCH   8  20
ATOM     20  C   UNL     1       0.877  12.460  19.825  0.00  0.00    +0.000 C 
BRANCH  20  21
ATOM     21  N   UNL     1       1.614  13.735  19.854  0.00  0.00    +0.000 NA
ATOM     22  C   UNL     1       0.858  14.825  19.218  0.00  0.00    +0.000 C 
ATOM     23  C   UNL     1       1.604  16.145  19.453  0.00  0.00    +0.000 C 
ATOM     24  N   UNL     1       2.998  16.105  18.958  0.00  0.00    +0.000 NA
ATOM     25  C   UNL     1       3.104  16.312  17.506  0.00  0.00    +0.000 C 
ATOM     26  C   UNL     1       3.725  14.903  19.422  0.00  0.00    +0.000 C 
ATOM     27  C   UNL     1       2.925  13.614  19.185  0.00  0.00    +0.000 C 
ENDBRANCH  20  21
ENDBRANCH   8  20
TORSDOF 2
ENDMDL
MODEL 3
REMARK VINA RESULT:      -6.4      1.495      2.096
REMARK  Name = 
REMARK  4 active torsions:
REMARK  status: ('A' for Active; 'I' for Inactive)
REMARK    1  A    between atoms: C_1  and  C_2
REMARK    2  A    between atoms: C_8  and  C_10
REMARK    3  A    between atoms: C_10  and  N_11
REMARK    4  A    between atoms: N_14  and  C_15
REMARK                            x       y       z     vdW  Elec       q    Type
REMARK                         _______ _______ _______ _____ _____    ______ ____
ROOT
ATOM      1  C   UNL     1      -1.177  13.751  23.444  0.00  0.00    +0.000 C 
ATOM      2  C   UNL     1      -2.391  13.309  22.665  0.00  0.00    +0.000 A 
ATOM      3  S   UNL     1      -3.827  13.731  23.404  0.00  0.00    +0.000 S 
ATOM      4  C   UNL     1      -4.799  13.304  22.172  0.00  0.00    +0.000 A 
ATOM      5  C   UNL     1      -4.043  12.817  21.099  0.00  0.00    +0.000 A 
ATOM      6  C   UNL     1      -2.633  12.675  21.367  0.00  0.00    +0.000 A 
ATOM      7  N   UNL     1      -1.628  12.115  20.420  0.00  0.00    +0.000 N 
ATOM      8  C   UNL     1      -0.255  12.137  20.742  0.00  0.00    +0.000 C 
ATOM      9  O   UNL     1       0.115  12.264  21.880  0.00  0.00    +0.000 OA
ATOM     10  C   UNL     1      -1.981  11.437  19.157  0.00  0.00    +0.000 A 
ATOM     11  C   UNL     1      -1.120  10.388  18.691  0.00  0.00    +0.000 A 
ATOM     12  C   UNL     1      -1.234   9.774  17.453  0.00  0.00    +0.000 A 
ATOM     13  C   UNL     1      -2.247  10.137  16.602  0.00  0.00    +0.000 A 
ATOM     14  C   UNL     1      -3.197  11.032  17.044  0.00  0.00    +0.000 A 
ATOM     15  C   UNL     1      -3.135  11.648  18.321  0.00  0.00    +0.000 A 
ATOM     16  N   UNL     1      -4.325  12.335  18.639  0.00  0.00    +0.000 N 
ATOM     17  C   UNL     1      -4.806  12.700  19.837  0.00  0.00    +0.000 C 
ATOM     18  O   UNL     1      -5.983  13.046  19.863  0.00  0.00    +0.000 OA
ATOM     19  H   UNL     1      -5.025  12.406  17.879  0.00  0.00    +0.000 HD
ENDROOT
BRANCH   8  20
ATOM     20  C   UNL     1       0.935  12.002  19.773  0.00  0.00    +0.000 C 
BRANCH  20  21
ATOM     21  N   UNL     1       1.194  13.278  19.086  0.00  0.00    +0.000 NA
ATOM     22  C   UNL     1       2.631  13.585  19.013  0.00  0.00    +0.000 C 
ATOM     23  C   UNL     1       2.828  14.823  18.128  0.00  0.00    +0.000 C 
ATOM     24  N   UNL     1       2.057  15.992  18.608  0.00  0.00    +0.000 NA
ATOM     25  C   UNL     1       2.706  16.696  19.724  0.00  0.00    +0.000 C 
ATOM     26  C   UNL     1       0.643  15.657  18.884  0.00  0.00    +0.000 C 
ATOM     27  C   UNL     1       0.503  14.399  19.753  0.00  0.00    +0.000 C 
ENDBRANCH  20  21
ENDBRANCH   8  20
TORSDOF 2
ENDMDL
MODEL 4
REMARK VINA RESULT:      -6.3      0.830      1.115
REMARK  Name = 
REMARK  4 active torsions:
REMARK  status: ('A' for Active; 'I' for Inactive)
REMARK    1  A    between atoms: C_1  and  C_2
REMARK    2  A    between atoms: C_8  and  C_10
REMARK    3  A    between atoms: C_10  and  N_11
REMARK    4  A    between atoms: N_14  and  C_15
REMARK                            x       y       z     vdW  Elec       q    Type
REMARK                         _______ _______ _______ _____ _____    ______ ____
ROOT
ATOM      1  C   UNL     1      -4.065  13.651  22.559  0.00  0.00    +0.000 C 
ATOM      2  C   UNL     1      -4.946  13.116  21.458  0.00  0.00    +0.000 A 
ATOM      3  S   UNL     1      -6.571  13.370  21.744  0.00  0.00    +0.000 S 
ATOM      4  C   UNL     1      -7.093  12.889  20.281  0.00  0.00    +0.000 A 
ATOM      5  C   UNL     1      -6.010  12.515  19.475  0.00  0.00    +0.000 A 
ATOM      6  C   UNL     1      -4.733  12.504  20.144  0.00  0.00    +0.000 A 
ATOM      7  N   UNL     1      -3.443  12.078  19.532  0.00  0.00    +0.000 N 
ATOM      8  C   UNL     1      -2.233  12.225  20.243  0.00  0.00    +0.000 C 
ATOM      9  O   UNL     1      -2.226  12.351  21.439  0.00  0.00    +0.000 OA
ATOM     10  C   UNL     1      -3.339  11.410  18.219  0.00  0.00    +0.000 A 
ATOM     11  C   UNL     1      -2.276  10.467  18.024  0.00  0.00    +0.000 A 
ATOM     12  C   UNL     1      -1.960   9.885  16.805  0.00  0.00    +0.000 A 
ATOM     13  C   UNL     1      -2.714  10.174  15.696  0.00  0.00    +0.000 A 
ATOM     14  C   UNL     1      -3.838  10.956  15.842  0.00  0.00    +0.000 A 
ATOM     15  C   UNL     1      -4.216  11.533  17.083  0.00  0.00    +0.000 A 
ATOM     16  N   UNL     1      -5.512  12.088  17.040  0.00  0.00    +0.000 N 
ATOM     17  C   UNL     1      -6.356  12.364  18.045  0.00  0.00    +0.000 C 
ATOM     18  O   UNL     1      -7.519  12.591  17.725  0.00  0.00    +0.000 OA
ATOM     19  H   UNL     1      -5.964  12.114  16.107  0.00  0.00    +0.000 HD
ENDROOT
BRANCH   8  20
ATOM     20  C   UNL     1      -0.805  12.240  19.665  0.00  0.00    +0.000 C 
BRANCH  20  21
ATOM     21  N   UNL     1      -0.191  13.569  19.828  0.00  0.00    +0.000 NA
ATOM     22  C   UNL     1      -1.200  14.623  20.019  0.00  0.00    +0.000 C 
ATOM     23  C   UNL     1      -0.482  15.935  20.366  0.00  0.00    +0.000 C 
ATOM     24  N   UNL     1       0.511  16.326  19.340  0.00  0.00    +0.000 NA
ATOM     25  C   UNL     1      -0.093  16.975  18.167  0.00  0.00    +0.000 C 
ATOM     26  C   UNL     1       1.415  15.213  18.979  0.00  0.00    +0.000 C 
ATOM     27  C   UNL     1       0.649  13.920  18.666  0.00  0.00    +0.000 C 
ENDBRANCH  20  21
ENDBRANCH   8  20
TORSDOF 2
ENDMDL
MODEL 5
REMARK VINA RESULT:      -6.3      3.249      5.740
REMARK  Name = 
REMARK  4 active torsions:
REMARK  status: ('A' for Active; 'I' for Inactive)
REMARK    1  A    between atoms: C_1  and  C_2
REMARK    2  A    between atoms: C_8  and  C_10
REMARK    3  A    between atoms: C_10  and  N_11
REMARK    4  A    between atoms: N_14  and  C_15
REMARK                            x       y       z     vdW  Elec       q    Type
REMARK                         _______ _______ _______ _____ _____    ______ ____
ROOT
ATOM      1  C   UNL     1      -5.446  11.397  18.869  0.00  0.00    +0.000 C 
ATOM      2  C   UNL     1      -6.001  12.037  20.116  0.00  0.00    +0.000 A 
ATOM      3  S   UNL     1      -7.661  11.907  20.231  0.00  0.00    +0.000 S 
ATOM      4  C   UNL     1      -7.785  12.478  21.749  0.00  0.00    +0.000 A 
ATOM      5  C   UNL     1      -6.518  12.790  22.259  0.00  0.00    +0.000 A 
ATOM      6  C   UNL     1      -5.439  12.674  21.310  0.00  0.00    +0.000 A 
ATOM      7  N   UNL     1      -4.014  13.016  21.580  0.00  0.00    +0.000 N 
ATOM      8  C   UNL     1      -3.021  12.747  20.615  0.00  0.00    +0.000 C 
ATOM      9  O   UNL     1      -3.306  12.580  19.458  0.00  0.00    +0.000 OA
ATOM     10  C   UNL     1      -3.555  13.717  22.796  0.00  0.00    +0.000 A 
ATOM     11  C   UNL     1      -2.412  14.577  22.687  0.00  0.00    +0.000 A 
ATOM     12  C   UNL     1      -1.776  15.172  23.766  0.00  0.00    +0.000 A 
ATOM     13  C   UNL     1      -2.263  14.983  25.034  0.00  0.00    +0.000 A 
ATOM     14  C   UNL     1      -3.443  14.290  25.196  0.00  0.00    +0.000 A 
ATOM     15  C   UNL     1      -4.144  13.704  24.110  0.00  0.00    +0.000 A 
ATOM     16  N   UNL     1      -5.428  13.258  24.484  0.00  0.00    +0.000 N 
ATOM     17  C   UNL     1      -6.505  13.017  23.720  0.00  0.00    +0.000 C 
ATOM     18  O   UNL     1      -7.571  12.895  24.314  0.00  0.00    +0.000 OA
ATOM     19  H   UNL     1      -5.647  13.300  25.496  0.00  0.00    +0.000 HD
ENDROOT
BRANCH   8  20
ATOM     20  C   UNL     1      -1.501  12.636  20.843  0.00  0.00    +0.000 C 
BRANCH  20  21
ATOM     21  N   UNL     1      -1.129  11.260  21.212  0.00  0.00    +0.000 NA
ATOM     22  C   UNL     1      -0.773  11.146  22.635  0.00  0.00    +0.000 C 
ATOM     23  C   UNL     1      -0.582   9.663  22.979  0.00  0.00    +0.000 C 
ATOM     24  N   UNL     1       0.432   9.008  22.121  0.00  0.00    +0.000 NA
ATOM     25  C   UNL     1       1.813   9.277  22.548  0.00  0.00    +0.000 C 
ATOM     26  C   UNL     1       0.211   9.277  20.684  0.00  0.00    +0.000 C 
ATOM     27  C   UNL     1       0.002  10.772  20.398  0.00  0.00    +0.000 C 
ENDBRANCH  20  21
ENDBRANCH   8  20
TORSDOF 2
ENDMDL
MODEL 6
REMARK VINA RESULT:      -6.2      2.839      5.284
REMARK  Name = 
REMARK  4 active torsions:
REMARK  status: ('A' for Active; 'I' for Inactive)
REMARK    1  A    between atoms: C_1  and  C_2
REMARK    2  A    between atoms: C_8  and  C_10
REMARK    3  A    between atoms: C_10  and  N_11
REMARK    4  A    between atoms: N_14  and  C_15
REMARK                            x       y       z     vdW  Elec       q    Type
REMARK                         _______ _______ _______ _____ _____    ______ ____
ROOT
ATOM      1  C   UNL     1      -4.305  11.211  17.451  0.00  0.00    +0.000 C 
ATOM      2  C   UNL     1      -5.218  11.718  18.539  0.00  0.00    +0.000 A 
ATOM      3  S   UNL     1      -6.834  11.497  18.187  0.00  0.00    +0.000 S 
ATOM      4  C   UNL     1      -7.402  11.933  19.647  0.00  0.00    +0.000 A 
ATOM      5  C   UNL     1      -6.344  12.264  20.504  0.00  0.00    +0.000 A 
ATOM      6  C   UNL     1      -5.044  12.280  19.881  0.00  0.00    +0.000 A 
ATOM      7  N   UNL     1      -3.771  12.667  20.552  0.00  0.00    +0.000 N 
ATOM      8  C   UNL     1      -2.539  12.529  19.880  0.00  0.00    +0.000 C 
ATOM      9  O   UNL     1      -2.490  12.445  18.681  0.00  0.00    +0.000 OA
ATOM     10  C   UNL     1      -3.706  13.287  21.891  0.00  0.00    +0.000 A 
ATOM     11  C   UNL     1      -2.639  14.208  22.158  0.00  0.00    +0.000 A 
ATOM     12  C   UNL     1      -2.360  14.742  23.406  0.00  0.00    +0.000 A 
ATOM     13  C   UNL     1      -3.156  14.424  24.477  0.00  0.00    +0.000 A 
ATOM     14  C   UNL     1      -4.284  13.664  24.264  0.00  0.00    +0.000 A 
ATOM     15  C   UNL     1      -4.625  13.137  22.991  0.00  0.00    +0.000 A 
ATOM     16  N   UNL     1      -5.928  12.598  22.969  0.00  0.00    +0.000 N 
ATOM     17  C   UNL     1      -6.739  12.369  21.925  0.00  0.00    +0.000 C 
ATOM     18  O   UNL     1      -7.916  12.146  22.195  0.00  0.00    +0.000 OA
ATOM     19  H   UNL     1      -6.413  12.545  23.883  0.00  0.00    +0.000 HD
ENDROOT
BRANCH   8  20
ATOM     20  C   UNL     1      -1.132  12.474  20.508  0.00  0.00    +0.000 C 
BRANCH  20  21
ATOM     21  N   UNL     1      -0.823  11.111  20.972  0.00  0.00    +0.000 NA
ATOM     22  C   UNL     1      -0.674  11.047  22.435  0.00  0.00    +0.000 C 
ATOM     23  C   UNL     1      -0.541   9.576  22.853  0.00  0.00    +0.000 C 
ATOM     24  N   UNL     1       0.583   8.893  22.172  0.00  0.00    +0.000 NA
ATOM     25  C   UNL     1       1.890   9.178  22.783  0.00  0.00    +0.000 C 
ATOM     26  C   UNL     1       0.571   9.113  20.710  0.00  0.00    +0.000 C 
ATOM     27  C   UNL     1       0.412  10.597  20.347  0.00  0.00    +0.000 C 
ENDBRANCH  20  21
ENDBRANCH   8  20
TORSDOF 2
ENDMDL
MODEL 7
REMARK VINA RESULT:      -6.2      2.724      5.215
REMARK  Name = 
REMARK  4 active torsions:
REMARK  status: ('A' for Active; 'I' for Inactive)
REMARK    1  A    between atoms: C_1  and  C_2
REMARK    2  A    between atoms: C_8  and  C_10
REMARK    3  A    between atoms: C_10  and  N_11
REMARK    4  A    between atoms: N_14  and  C_15
REMARK                            x       y       z     vdW  Elec       q    Type
REMARK                         _______ _______ _______ _____ _____    ______ ____
ROOT
ATOM      1  C   UNL     1      -1.935  11.410  17.490  0.00  0.00    +0.000 C 
ATOM      2  C   UNL     1      -3.314  11.650  18.050  0.00  0.00    +0.000 A 
ATOM      3  S   UNL     1      -4.528  11.073  17.060  0.00  0.00    +0.000 S 
ATOM      4  C   UNL     1      -5.748  11.311  18.108  0.00  0.00    +0.000 A 
ATOM      5  C   UNL     1      -5.264  11.847  19.309  0.00  0.00    +0.000 A 
ATOM      6  C   UNL     1      -3.863  12.188  19.298  0.00  0.00    +0.000 A 
ATOM      7  N   UNL     1      -3.125  12.836  20.418  0.00  0.00    +0.000 N 
ATOM      8  C   UNL     1      -1.727  13.012  20.344  0.00  0.00    +0.000 C 
ATOM      9  O   UNL     1      -1.152  12.986  19.288  0.00  0.00    +0.000 OA
ATOM     10  C   UNL     1      -3.782  13.404  21.613  0.00  0.00    +0.000 A 
ATOM     11  C   UNL     1      -3.170  14.538  22.244  0.00  0.00    +0.000 A 
ATOM     12  C   UNL     1      -3.581  15.075  23.454  0.00  0.00    +0.000 A 
ATOM     13  C   UNL     1      -4.665  14.542  24.104  0.00  0.00    +0.000 A 
ATOM     14  C   UNL     1      -5.389  13.548  23.484  0.00  0.00    +0.000 A 
ATOM     15  C   UNL     1      -5.023  13.003  22.226  0.00  0.00    +0.000 A 
ATOM     16  N   UNL     1      -6.032  12.178  21.688  0.00  0.00    +0.000 N 
ATOM     17  C   UNL     1      -6.243  11.805  20.417  0.00  0.00    +0.000 C 
ATOM     18  O   UNL     1      -7.338  11.305  20.176  0.00  0.00    +0.000 OA
ATOM     19  H   UNL     1      -6.836  11.980  22.311  0.00  0.00    +0.000 HD
ENDROOT
BRANCH   8  20
ATOM     20  C   UNL     1      -0.754  13.263  21.512  0.00  0.00    +0.000 C 
BRANCH  20  21
ATOM     21  N   UNL     1      -0.154  11.998  21.970  0.00  0.00    +0.000 NA
ATOM     22  C   UNL     1       0.410  11.219  20.856  0.00  0.00    +0.000 C 
ATOM     23  C   UNL     1       1.174  10.018  21.431  0.00  0.00    +0.000 C 
ATOM     24  N   UNL     1       0.327   9.170  22.300  0.00  0.00    +0.000 NA
ATOM     25  C   UNL     1      -0.538   8.250  21.546  0.00  0.00    +0.000 C 
ATOM     26  C   UNL     1      -0.414   9.961  23.307  0.00  0.00    +0.000 C 
ATOM     27  C   UNL     1      -1.140  11.162  22.683  0.00  0.00    +0.000 C 
ENDBRANCH  20  21
ENDBRANCH   8  20
TORSDOF 2
ENDMDL
MODEL 8
REMARK VINA RESULT:      -6.2      2.045      4.459
REMARK  Name = 
REMARK  4 active torsions:
REMARK  status: ('A' for Active; 'I' for Inactive)
REMARK    1  A    between atoms: C_1  and  C_2
REMARK    2  A    between atoms: C_8  and  C_10
REMARK    3  A    between atoms: C_10  and  N_11
REMARK    4  A    between atoms: N_14  and  C_15
REMARK                            x       y       z     vdW  Elec       q    Type
REMARK                         _______ _______ _______ _____ _____    ______ ____
ROOT
ATOM      1  C   UNL     1      -4.361  11.161  17.405  0.00  0.00    +0.000 C 
ATOM      2  C   UNL     1      -5.244  11.702  18.501  0.00  0.00    +0.000 A 
ATOM      3  S   UNL     1      -6.871  11.581  18.145  0.00  0.00    +0.000 S 
ATOM      4  C   UNL     1      -7.413  12.025  19.613  0.00  0.00    +0.000 A 
ATOM      5  C   UNL     1      -6.339  12.279  20.475  0.00  0.00    +0.000 A 
ATOM      6  C   UNL     1      -5.039  12.231  19.852  0.00  0.00    +0.000 A 
ATOM      7  N   UNL     1      -3.747  12.532  20.530  0.00  0.00    +0.000 N 
ATOM      8  C   UNL     1      -2.524  12.334  19.856  0.00  0.00    +0.000 C 
ATOM      9  O   UNL     1      -2.479  12.267  18.656  0.00  0.00    +0.000 OA
ATOM     10  C   UNL     1      -3.648  13.125  21.879  0.00  0.00    +0.000 A 
ATOM     11  C   UNL     1      -2.529  13.978  22.161  0.00  0.00    +0.000 A 
ATOM     12  C   UNL     1      -2.221  14.473  23.419  0.00  0.00    +0.000 A 
ATOM     13  C   UNL     1      -3.035  14.185  24.484  0.00  0.00    +0.000 A 
ATOM     14  C   UNL     1      -4.206  13.495  24.258  0.00  0.00    +0.000 A 
ATOM     15  C   UNL     1      -4.575  13.009  22.976  0.00  0.00    +0.000 A 
ATOM     16  N   UNL     1      -5.907  12.547  22.945  0.00  0.00    +0.000 N 
ATOM     17  C   UNL     1      -6.729  12.383  21.897  0.00  0.00    +0.000 C 
ATOM     18  O   UNL     1      -7.917  12.225  22.164  0.00  0.00    +0.000 OA
ATOM     19  H   UNL     1      -6.395  12.507  23.858  0.00  0.00    +0.000 HD
ENDROOT
BRANCH   8  20
ATOM     20  C   UNL     1      -1.124  12.187  20.482  0.00  0.00    +0.000 C 
BRANCH  20  21
ATOM     21  N   UNL     1      -0.091  12.722  19.578  0.00  0.00    +0.000 NA
ATOM     22  C   UNL     1       1.155  11.944  19.642  0.00  0.00    +0.000 C 
ATOM     23  C   UNL     1       2.106  12.444  18.546  0.00  0.00    +0.000 C 
ATOM     24  N   UNL     1       2.378  13.896  18.650  0.00  0.00    +0.000 NA
ATOM     25  C   UNL     1       3.388  14.224  19.667  0.00  0.00    +0.000 C 
ATOM     26  C   UNL     1       1.139  14.691  18.793  0.00  0.00    +0.000 C 
ATOM     27  C   UNL     1       0.214  14.134  19.885  0.00  0.00    +0.000 C 
ENDBRANCH  20  21
ENDBRANCH   8  20
TORSDOF 2
ENDMDL
MODEL 9
REMARK VINA RESULT:      -6.1      2.341      3.324
REMARK  Name = 
REMARK  4 active torsions:
REMARK  status: ('A' for Active; 'I' for Inactive)
REMARK    1  A    between atoms: C_1  and  C_2
REMARK    2  A    between atoms: C_8  and  C_10
REMARK    3  A    between atoms: C_10  and  N_11
REMARK    4  A    between atoms: N_14  and  C_15
REMARK                            x       y       z     vdW  Elec       q    Type
REMARK                         _______ _______ _______ _____ _____    ______ ____
ROOT
ATOM      1  C   UNL     1      -5.245  13.630  20.172  0.00  0.00    +0.000 C 
ATOM      2  C   UNL     1      -4.804  12.598  19.166  0.00  0.00    +0.000 A 
ATOM      3  S   UNL     1      -5.935  12.332  17.967  0.00  0.00    +0.000 S 
ATOM      4  C   UNL     1      -4.993  11.394  17.030  0.00  0.00    +0.000 A 
ATOM      5  C   UNL     1      -3.723  11.249  17.604  0.00  0.00    +0.000 A 
ATOM      6  C   UNL     1      -3.583  11.826  18.918  0.00  0.00    +0.000 A 
ATOM      7  N   UNL     1      -2.362  11.747  19.768  0.00  0.00    +0.000 N 
ATOM      8  C   UNL     1      -2.295  12.453  20.987  0.00  0.00    +0.000 C 
ATOM      9  O   UNL     1      -3.292  12.832  21.542  0.00  0.00    +0.000 OA
ATOM     10  C   UNL     1      -1.203  10.886  19.459  0.00  0.00    +0.000 A 
ATOM     11  C   UNL     1      -0.451  10.348  20.556  0.00  0.00    +0.000 A 
ATOM     12  C   UNL     1       0.745   9.660  20.422  0.00  0.00    +0.000 A 
ATOM     13  C   UNL     1       1.259   9.422  19.172  0.00  0.00    +0.000 A 
ATOM     14  C   UNL     1       0.515   9.780  18.069  0.00  0.00    +0.000 A 
ATOM     15  C   UNL     1      -0.733  10.448  18.169  0.00  0.00    +0.000 A 
ATOM     16  N   UNL     1      -1.411  10.499  16.934  0.00  0.00    +0.000 N 
ATOM     17  C   UNL     1      -2.716  10.680  16.682  0.00  0.00    +0.000 C 
ATOM     18  O   UNL     1      -3.087  10.417  15.542  0.00  0.00    +0.000 OA
ATOM     19  H   UNL     1      -0.879  10.164  16.110  0.00  0.00    +0.000 HD
ENDROOT
BRANCH   8  20
ATOM     20  C   UNL     1      -1.029  12.832  21.779  0.00  0.00    +0.000 C 
BRANCH  20  21
ATOM     21  N   UNL     1      -0.524  14.150  21.355  0.00  0.00    +0.000 NA
ATOM     22  C   UNL     1       0.537  14.035  20.343  0.00  0.00    +0.000 C 
ATOM     23  C   UNL     1       0.874  15.438  19.821  0.00  0.00    +0.000 C 
ATOM     24  N   UNL     1       1.269  16.367  20.904  0.00  0.00    +0.000 NA
ATOM     25  C   UNL     1       2.666  16.197  21.332  0.00  0.00    +0.000 C 
ATOM     26  C   UNL     1       0.316  16.349  22.034  0.00  0.00    +0.000 C 
ATOM     27  C   UNL     1      -0.006  14.922  22.502  0.00  0.00    +0.000 C 
ENDBRANCH  20  21
ENDBRANCH   8  20
TORSDOF 2
ENDMDL
