MODEL 1
REMARK VINA RESULT:      -7.8      0.000      0.000
REMARK  Name = 
REMARK  15 active torsions:
REMARK  status: ('A' for Active; 'I' for Inactive)
REMARK    1  A    between atoms: C_4  and  N_5
REMARK    2  A    between atoms: C_6  and  C_7
REMARK    3  A    between atoms: C_7  and  C_8
REMARK    4  A    between atoms: C_8  and  C_9
REMARK    5  A    between atoms: C_9  and  C_10
REMARK    6  A    between atoms: C_10  and  C_11
REMARK    7  A    between atoms: C_10  and  C_13
REMARK    8  A    between atoms: C_16  and  C_17
REMARK    9  A    between atoms: N_19  and  CA_20
REMARK   10  A    between atoms: CA_20  and  CB_21
REMARK   11  A    between atoms: CA_20  and  C_26
REMARK   12  A    between atoms: CB_21  and  CG_22
REMARK   13  A    between atoms: CG_22  and  CD_23
REMARK   14  A    between atoms: CD_23  and  OE2_25
REMARK   15  A    between atoms: C_26  and  OXT_28
REMARK                            x       y       z     vdW  Elec       q    Type
REMARK                         _______ _______ _______ _____ _____    ______ ____
ROOT
ATOM      1  C   UNK A   0       3.945   6.419  18.255  0.00  0.00    +0.000 A 
ATOM      2  C   UNK A   0       3.546   7.545  17.521  0.00  0.00    +0.000 A 
ATOM      3  C   UNK A   0       2.540   8.381  18.006  0.00  0.00    +0.000 A 
ATOM      4  C   UNK A   0       1.920   8.109  19.231  0.00  0.00    +0.000 A 
ATOM      5  C   UNK A   0       2.277   6.960  19.946  0.00  0.00    +0.000 A 
ATOM      6  C   UNK A   0       3.282   6.123  19.457  0.00  0.00    +0.000 A 
ENDROOT
BRANCH   4   7
ATOM      7  C   UNK A   0       0.881   9.058  19.708  0.00  0.00    +0.000 C 
ATOM      8  O   UNK A   0       0.394   8.932  20.826  0.00  0.00    +0.000 OA
ATOM      9  N   GLU A   1       0.496  10.049  18.835  0.00  0.00    +0.000 N 
ATOM     10  H   GLU A   1       0.831  10.049  17.878  0.00  0.00    +0.000 HD
BRANCH   9  11
ATOM     11  CA  GLU A   1      -0.509  11.049  19.197  0.00  0.00    +0.000 C 
BRANCH  11  12
ATOM     12  C   GLU A   1      -1.398  11.237  17.963  0.00  0.00    +0.000 C 
ATOM     13  O   GLU A   1      -2.131  10.358  17.524  0.00  0.00    +0.000 OA
BRANCH  12  14
ATOM     14  OXT GLU A   1      -1.355  12.472  17.422  0.00  0.00    +0.000 OA
ATOM     15  HXT GLU A   1      -2.069  12.672  16.780  0.00  0.00    +0.000 HD
ENDBRANCH  12  14
ENDBRANCH  11  12
BRANCH  11  16
ATOM     16  CB  GLU A   1       0.162  12.378  19.592  0.00  0.00    +0.000 C 
BRANCH  16  17
ATOM     17  CG  GLU A   1       1.677  12.401  19.434  0.00  0.00    +0.000 C 
BRANCH  17  18
ATOM     18  CD  GLU A   1       2.082  13.267  18.275  0.00  0.00    +0.000 C 
ATOM     19  OE1 GLU A   1       2.089  14.490  18.338  0.00  0.00    +0.000 OA
BRANCH  18  20
ATOM     20  OE2 GLU A   1       2.518  12.580  17.202  0.00  0.00    +0.000 OA
ATOM     21  HE2 GLU A   1       3.490  12.544  17.107  0.00  0.00    +0.000 HD
ENDBRANCH  18  20
ENDBRANCH  17  18
ENDBRANCH  16  17
ENDBRANCH  11  16
ENDBRANCH   9  11
ENDBRANCH   4   7
BRANCH   1  22
ATOM     22  C   UNK A   0       5.064   5.531  17.745  0.00  0.00    +0.000 C 
BRANCH  22  23
ATOM     23  C   UNK A   0       6.283   6.377  17.407  0.00  0.00    +0.000 C 
ATOM     24  O   UNK A   0       6.881   6.336  16.335  0.00  0.00    +0.000 OA
ENDBRANCH  22  23
BRANCH  22  25
ATOM     25  C   UNK A   0       4.610   4.649  16.560  0.00  0.00    +0.000 C 
BRANCH  25  26
ATOM     26  C   UNK A   0       3.255   3.996  16.847  0.00  0.00    +0.000 C 
BRANCH  26  27
ATOM     27  C   UNK A   0       3.363   2.566  17.382  0.00  0.00    +0.000 C 
BRANCH  27  32
ATOM     28  N   UNK A   0       1.178   2.668  22.529  0.00  0.00    +0.000 N 
ATOM     29  C   UNK A   0       1.749   2.609  21.302  0.00  0.00    +0.000 A 
ATOM     30  N   UNK A   0       3.029   2.471  21.182  0.00  0.00    +0.000 NA
ATOM     31  C   UNK A   0       3.586   2.447  19.930  0.00  0.00    +0.000 A 
ATOM     32  C   UNK A   0       2.849   2.515  18.802  0.00  0.00    +0.000 A 
ATOM     33  C   UNK A   0       1.374   2.636  18.960  0.00  0.00    +0.000 A 
ATOM     34  O   UNK A   0       0.614   2.714  18.005  0.00  0.00    +0.000 OA
ATOM     35  N   UNK A   0       0.921   2.683  20.237  0.00  0.00    +0.000 N 
ATOM     36  H   UNK A   0       1.810   2.372  23.265  0.00  0.00    +0.000 HD
ATOM     37  H   UNK A   0       0.238   2.317  22.633  0.00  0.00    +0.000 HD
ATOM     38  H   UNK A   0      -0.066   2.815  20.361  0.00  0.00    +0.000 HD
BRANCH  31  39
ATOM     39  N   UNK A   0       4.963   2.385  19.898  0.00  0.00    +0.000 N 
ATOM     40  H   UNK A   0       5.290   2.080  20.814  0.00  0.00    +0.000 HD
ATOM     41  H   UNK A   0       5.334   1.813  19.151  0.00  0.00    +0.000 HD
ENDBRANCH  31  39
ENDBRANCH  27  32
ENDBRANCH  26  27
ENDBRANCH  25  26
ENDBRANCH  22  25
ENDBRANCH   1  22
TORSDOF 15
ENDMDL
MODEL 2
REMARK VINA RESULT:      -7.7      3.266      9.373
REMARK  Name = 
REMARK  15 active torsions:
REMARK  status: ('A' for Active; 'I' for Inactive)
REMARK    1  A    between atoms: C_4  and  N_5
REMARK    2  A    between atoms: C_6  and  C_7
REMARK    3  A    between atoms: C_7  and  C_8
REMARK    4  A    between atoms: C_8  and  C_9
REMARK    5  A    between atoms: C_9  and  C_10
REMARK    6  A    between atoms: C_10  and  C_11
REMARK    7  A    between atoms: C_10  and  C_13
REMARK    8  A    between atoms: C_16  and  C_17
REMARK    9  A    between atoms: N_19  and  CA_20
REMARK   10  A    between atoms: CA_20  and  CB_21
REMARK   11  A    between atoms: CA_20  and  C_26
REMARK   12  A    between atoms: CB_21  and  CG_22
REMARK   13  A    between atoms: CG_22  and  CD_23
REMARK   14  A    between atoms: CD_23  and  OE2_25
REMARK   15  A    between atoms: C_26  and  OXT_28
REMARK                            x       y       z     vdW  Elec       q    Type
REMARK                         _______ _______ _______ _____ _____    ______ ____
ROOT
ATOM      1  C   UNK A   0       1.598   8.194  20.145  0.00  0.00    +0.000 A 
ATOM      2  C   UNK A   0       1.779   6.908  20.674  0.00  0.00    +0.000 A 
ATOM      3  C   UNK A   0       2.445   5.930  19.935  0.00  0.00    +0.000 A 
ATOM      4  C   UNK A   0       2.943   6.221  18.660  0.00  0.00    +0.000 A 
ATOM      5  C   UNK A   0       2.722   7.486  18.104  0.00  0.00    +0.000 A 
ATOM      6  C   UNK A   0       2.053   8.462  18.844  0.00  0.00    +0.000 A 
ENDROOT
BRANCH   4   7
ATOM      7  C   UNK A   0       3.673   5.145  17.940  0.00  0.00    +0.000 C 
ATOM      8  O   UNK A   0       3.400   3.968  18.147  0.00  0.00    +0.000 OA
ATOM      9  N   GLU A   1       4.659   5.539  17.067  0.00  0.00    +0.000 N 
ATOM     10  H   GLU A   1       4.939   6.513  17.013  0.00  0.00    +0.000 HD
BRANCH   9  11
ATOM     11  CA  GLU A   1       5.438   4.571  16.293  0.00  0.00    +0.000 C 
BRANCH  11  12
ATOM     12  C   GLU A   1       6.779   4.415  17.017  0.00  0.00    +0.000 C 
ATOM     13  O   GLU A   1       7.860   4.636  16.484  0.00  0.00    +0.000 OA
BRANCH  12  14
ATOM     14  OXT GLU A   1       6.678   4.064  18.317  0.00  0.00    +0.000 OA
ATOM     15  HXT GLU A   1       6.911   3.132  18.517  0.00  0.00    +0.000 HD
ENDBRANCH  12  14
ENDBRANCH  11  12
BRANCH  11  16
ATOM     16  CB  GLU A   1       5.652   5.073  14.852  0.00  0.00    +0.000 C 
BRANCH  16  17
ATOM     17  CG  GLU A   1       6.128   4.011  13.870  0.00  0.00    +0.000 C 
BRANCH  17  18
ATOM     18  CD  GLU A   1       7.221   4.549  12.988  0.00  0.00    +0.000 C 
ATOM     19  OE1 GLU A   1       7.322   4.244  11.807  0.00  0.00    +0.000 OA
BRANCH  18  20
ATOM     20  OE2 GLU A   1       8.013   5.458  13.588  0.00  0.00    +0.000 OA
ATOM     21  HE2 GLU A   1       8.019   5.414  14.564  0.00  0.00    +0.000 HD
ENDBRANCH  18  20
ENDBRANCH  17  18
ENDBRANCH  16  17
ENDBRANCH  11  16
ENDBRANCH   9  11
ENDBRANCH   4   7
BRANCH   1  22
ATOM     22  C   UNK A   0       0.906   9.267  20.964  0.00  0.00    +0.000 C 
BRANCH  22  23
ATOM     23  C   UNK A   0      -0.373   8.711  21.573  0.00  0.00    +0.000 C 
ATOM     24  O   UNK A   0      -0.773   8.969  22.704  0.00  0.00    +0.000 OA
ENDBRANCH  22  23
BRANCH  22  25
ATOM     25  C   UNK A   0       0.658  10.553  20.144  0.00  0.00    +0.000 C 
BRANCH  25  26
ATOM     26  C   UNK A   0      -0.713  10.516  19.463  0.00  0.00    +0.000 C 
BRANCH  26  27
ATOM     27  C   UNK A   0      -1.026  11.767  18.639  0.00  0.00    +0.000 C 
BRANCH  27  32
ATOM     28  N   UNK A   0      -6.499  11.620  17.501  0.00  0.00    +0.000 N 
ATOM     29  C   UNK A   0      -5.163  11.661  17.720  0.00  0.00    +0.000 A 
ATOM     30  N   UNK A   0      -4.341  11.197  16.837  0.00  0.00    +0.000 NA
ATOM     31  C   UNK A   0      -2.994  11.220  17.097  0.00  0.00    +0.000 A 
ATOM     32  C   UNK A   0      -2.478  11.751  18.224  0.00  0.00    +0.000 A 
ATOM     33  C   UNK A   0      -3.438  12.315  19.212  0.00  0.00    +0.000 A 
ATOM     34  O   UNK A   0      -3.078  12.813  20.269  0.00  0.00    +0.000 OA
ATOM     35  N   UNK A   0      -4.749  12.217  18.880  0.00  0.00    +0.000 N 
ATOM     36  H   UNK A   0      -6.727  11.416  16.534  0.00  0.00    +0.000 HD
ATOM     37  H   UNK A   0      -7.070  12.344  17.911  0.00  0.00    +0.000 HD
ATOM     38  H   UNK A   0      -5.411  12.547  19.558  0.00  0.00    +0.000 HD
BRANCH  31  39
ATOM     39  N   UNK A   0      -2.200  10.625  16.140  0.00  0.00    +0.000 N 
ATOM     40  H   UNK A   0      -2.095   9.640  16.380  0.00  0.00    +0.000 HD
ATOM     41  H   UNK A   0      -2.529  10.754  15.192  0.00  0.00    +0.000 HD
ENDBRANCH  31  39
ENDBRANCH  27  32
ENDBRANCH  26  27
ENDBRANCH  25  26
ENDBRANCH  22  25
ENDBRANCH   1  22
TORSDOF 15
ENDMDL
MODEL 3
REMARK VINA RESULT:      -7.6      3.055      5.118
REMARK  Name = 
REMARK  15 active torsions:
REMARK  status: ('A' for Active; 'I' for Inactive)
REMARK    1  A    between atoms: C_4  and  N_5
REMARK    2  A    between atoms: C_6  and  C_7
REMARK    3  A    between atoms: C_7  and  C_8
REMARK    4  A    between atoms: C_8  and  C_9
REMARK    5  A    between atoms: C_9  and  C_10
REMARK    6  A    between atoms: C_10  and  C_11
REMARK    7  A    between atoms: C_10  and  C_13
REMARK    8  A    between atoms: C_16  and  C_17
REMARK    9  A    between atoms: N_19  and  CA_20
REMARK   10  A    between atoms: CA_20  and  CB_21
REMARK   11  A    between atoms: CA_20  and  C_26
REMARK   12  A    between atoms: CB_21  and  CG_22
REMARK   13  A    between atoms: CG_22  and  CD_23
REMARK   14  A    between atoms: CD_23  and  OE2_25
REMARK   15  A    between atoms: C_26  and  OXT_28
REMARK                            x       y       z     vdW  Elec       q    Type
REMARK                         _______ _______ _______ _____ _____    ______ ____
ROOT
ATOM      1  C   UNK A   0       2.339   5.747  19.072  0.00  0.00    +0.000 A 
ATOM      2  C   UNK A   0       1.872   6.136  20.335  0.00  0.00    +0.000 A 
ATOM      3  C   UNK A   0       1.486   7.457  20.566  0.00  0.00    +0.000 A 
ATOM      4  C   UNK A   0       1.557   8.406  19.540  0.00  0.00    +0.000 A 
ATOM      5  C   UNK A   0       2.069   8.037  18.292  0.00  0.00    +0.000 A 
ATOM      6  C   UNK A   0       2.458   6.716  18.064  0.00  0.00    +0.000 A 
ENDROOT
BRANCH   4   7
ATOM      7  C   UNK A   0       1.098   9.787  19.842  0.00  0.00    +0.000 C 
ATOM      8  O   UNK A   0       1.530  10.737  19.197  0.00  0.00    +0.000 OA
ATOM      9  N   GLU A   1       0.198   9.933  20.871  0.00  0.00    +0.000 N 
ATOM     10  H   GLU A   1      -0.043   9.143  21.459  0.00  0.00    +0.000 HD
BRANCH   9  11
ATOM     11  CA  GLU A   1      -0.335  11.243  21.251  0.00  0.00    +0.000 C 
BRANCH  11  12
ATOM     12  C   GLU A   1      -0.832  11.106  22.695  0.00  0.00    +0.000 C 
ATOM     13  O   GLU A   1      -1.855  11.640  23.106  0.00  0.00    +0.000 OA
BRANCH  12  14
ATOM     14  OXT GLU A   1      -0.079  10.301  23.474  0.00  0.00    +0.000 OA
ATOM     15  HXT GLU A   1       0.158   9.436  23.075  0.00  0.00    +0.000 HD
ENDBRANCH  12  14
ENDBRANCH  11  12
BRANCH  11  16
ATOM     16  CB  GLU A   1      -1.487  11.654  20.315  0.00  0.00    +0.000 C 
BRANCH  16  17
ATOM     17  CG  GLU A   1      -1.478  13.117  19.895  0.00  0.00    +0.000 C 
BRANCH  17  18
ATOM     18  CD  GLU A   1      -0.585  13.327  18.704  0.00  0.00    +0.000 C 
ATOM     19  OE1 GLU A   1       0.189  14.272  18.621  0.00  0.00    +0.000 OA
BRANCH  18  20
ATOM     20  OE2 GLU A   1      -0.649  12.341  17.790  0.00  0.00    +0.000 OA
ATOM     21  HE2 GLU A   1      -0.336  12.589  16.897  0.00  0.00    +0.000 HD
ENDBRANCH  18  20
ENDBRANCH  17  18
ENDBRANCH  16  17
ENDBRANCH  11  16
ENDBRANCH   9  11
ENDBRANCH   4   7
BRANCH   1  22
ATOM     22  C   UNK A   0       2.723   4.302  18.812  0.00  0.00    +0.000 C 
BRANCH  22  23
ATOM     23  C   UNK A   0       2.941   3.578  20.133  0.00  0.00    +0.000 C 
ATOM     24  O   UNK A   0       2.431   2.500  20.426  0.00  0.00    +0.000 OA
ENDBRANCH  22  23
BRANCH  22  25
ATOM     25  C   UNK A   0       3.942   4.187  17.869  0.00  0.00    +0.000 C 
BRANCH  25  26
ATOM     26  C   UNK A   0       5.255   4.281  18.652  0.00  0.00    +0.000 C 
BRANCH  26  27
ATOM     27  C   UNK A   0       6.498   4.345  17.763  0.00  0.00    +0.000 C 
BRANCH  27  32
ATOM     28  N   UNK A   0       8.586   9.507  18.287  0.00  0.00    +0.000 N 
ATOM     29  C   UNK A   0       8.080   8.264  18.103  0.00  0.00    +0.000 A 
ATOM     30  N   UNK A   0       7.299   8.018  17.102  0.00  0.00    +0.000 NA
ATOM     31  C   UNK A   0       6.773   6.760  16.956  0.00  0.00    +0.000 A 
ATOM     32  C   UNK A   0       7.071   5.743  17.791  0.00  0.00    +0.000 A 
ATOM     33  C   UNK A   0       8.002   6.036  18.915  0.00  0.00    +0.000 A 
ATOM     34  O   UNK A   0       8.332   5.191  19.734  0.00  0.00    +0.000 OA
ATOM     35  N   UNK A   0       8.444   7.316  18.994  0.00  0.00    +0.000 N 
ATOM     36  H   UNK A   0       8.472  10.097  17.470  0.00  0.00    +0.000 HD
ATOM     37  H   UNK A   0       9.490   9.591  18.728  0.00  0.00    +0.000 HD
ATOM     38  H   UNK A   0       9.032   7.542  19.775  0.00  0.00    +0.000 HD
BRANCH  31  39
ATOM     39  N   UNK A   0       5.883   6.611  15.914  0.00  0.00    +0.000 N 
ATOM     40  H   UNK A   0       5.131   7.288  16.038  0.00  0.00    +0.000 HD
ATOM     41  H   UNK A   0       6.307   6.674  14.998  0.00  0.00    +0.000 HD
ENDBRANCH  31  39
ENDBRANCH  27  32
ENDBRANCH  26  27
ENDBRANCH  25  26
ENDBRANCH  22  25
ENDBRANCH   1  22
TORSDOF 15
ENDMDL
MODEL 4
REMARK VINA RESULT:      -7.5      3.289      9.475
REMARK  Name = 
REMARK  15 active torsions:
REMARK  status: ('A' for Active; 'I' for Inactive)
REMARK    1  A    between atoms: C_4  and  N_5
REMARK    2  A    between atoms: C_6  and  C_7
REMARK    3  A    between atoms: C_7  and  C_8
REMARK    4  A    between atoms: C_8  and  C_9
REMARK    5  A    between atoms: C_9  and  C_10
REMARK    6  A    between atoms: C_10  and  C_11
REMARK    7  A    between atoms: C_10  and  C_13
REMARK    8  A    between atoms: C_16  and  C_17
REMARK    9  A    between atoms: N_19  and  CA_20
REMARK   10  A    between atoms: CA_20  and  CB_21
REMARK   11  A    between atoms: CA_20  and  C_26
REMARK   12  A    between atoms: CB_21  and  CG_22
REMARK   13  A    between atoms: CG_22  and  CD_23
REMARK   14  A    between atoms: CD_23  and  OE2_25
REMARK   15  A    between atoms: C_26  and  OXT_28
REMARK                            x       y       z     vdW  Elec       q    Type
REMARK                         _______ _______ _______ _____ _____    ______ ____
ROOT
ATOM      1  C   UNK A   0       1.562   8.914  19.211  0.00  0.00    +0.000 A 
ATOM      2  C   UNK A   0       2.138   8.883  17.933  0.00  0.00    +0.000 A 
ATOM      3  C   UNK A   0       2.865   7.768  17.515  0.00  0.00    +0.000 A 
ATOM      4  C   UNK A   0       3.024   6.667  18.364  0.00  0.00    +0.000 A 
ATOM      5  C   UNK A   0       2.496   6.709  19.658  0.00  0.00    +0.000 A 
ATOM      6  C   UNK A   0       1.772   7.828  20.076  0.00  0.00    +0.000 A 
ENDROOT
BRANCH   4   7
ATOM      7  C   UNK A   0       3.779   5.497  17.845  0.00  0.00    +0.000 C 
ATOM      8  O   UNK A   0       3.427   4.357  18.131  0.00  0.00    +0.000 OA
ATOM      9  N   GLU A   1       4.878   5.762  17.061  0.00  0.00    +0.000 N 
ATOM     10  H   GLU A   1       5.209   6.714  16.947  0.00  0.00    +0.000 HD
BRANCH   9  11
ATOM     11  CA  GLU A   1       5.691   4.691  16.484  0.00  0.00    +0.000 C 
BRANCH  11  12
ATOM     12  C   GLU A   1       7.153   5.131  16.629  0.00  0.00    +0.000 C 
ATOM     13  O   GLU A   1       7.549   6.253  16.335  0.00  0.00    +0.000 OA
BRANCH  12  14
ATOM     14  OXT GLU A   1       7.969   4.197  17.162  0.00  0.00    +0.000 OA
ATOM     15  HXT GLU A   1       8.417   4.461  17.994  0.00  0.00    +0.000 HD
ENDBRANCH  12  14
ENDBRANCH  11  12
BRANCH  11  16
ATOM     16  CB  GLU A   1       5.333   4.475  15.001  0.00  0.00    +0.000 C 
BRANCH  16  17
ATOM     17  CG  GLU A   1       6.362   3.684  14.204  0.00  0.00    +0.000 C 
BRANCH  17  18
ATOM     18  CD  GLU A   1       6.007   3.664  12.743  0.00  0.00    +0.000 C 
ATOM     19  OE1 GLU A   1       4.863   3.488  12.346  0.00  0.00    +0.000 OA
BRANCH  18  20
ATOM     20  OE2 GLU A   1       7.039   3.947  11.924  0.00  0.00    +0.000 OA
ATOM     21  HE2 GLU A   1       7.903   4.039  12.372  0.00  0.00    +0.000 HD
ENDBRANCH  18  20
ENDBRANCH  17  18
ENDBRANCH  16  17
ENDBRANCH  11  16
ENDBRANCH   9  11
ENDBRANCH   4   7
BRANCH   1  22
ATOM     22  C   UNK A   0       0.742  10.111  19.651  0.00  0.00    +0.000 C 
BRANCH  22  23
ATOM     23  C   UNK A   0       1.143  10.526  21.059  0.00  0.00    +0.000 C 
ATOM     24  O   UNK A   0       0.712  11.517  21.641  0.00  0.00    +0.000 OA
ENDBRANCH  22  23
BRANCH  22  25
ATOM     25  C   UNK A   0      -0.777   9.853  19.522  0.00  0.00    +0.000 C 
BRANCH  25  26
ATOM     26  C   UNK A   0      -1.258  10.103  18.090  0.00  0.00    +0.000 C 
BRANCH  26  27
ATOM     27  C   UNK A   0      -1.682  11.550  17.827  0.00  0.00    +0.000 C 
BRANCH  27  32
ATOM     28  N   UNK A   0      -7.243  12.098  17.609  0.00  0.00    +0.000 N 
ATOM     29  C   UNK A   0      -5.902  11.949  17.717  0.00  0.00    +0.000 A 
ATOM     30  N   UNK A   0      -5.309  12.165  18.846  0.00  0.00    +0.000 NA
ATOM     31  C   UNK A   0      -3.945  12.040  18.921  0.00  0.00    +0.000 A 
ATOM     32  C   UNK A   0      -3.189  11.653  17.873  0.00  0.00    +0.000 A 
ATOM     33  C   UNK A   0      -3.894  11.373  16.592  0.00  0.00    +0.000 A 
ATOM     34  O   UNK A   0      -3.305  11.025  15.579  0.00  0.00    +0.000 OA
ATOM     35  N   UNK A   0      -5.238  11.556  16.608  0.00  0.00    +0.000 N 
ATOM     36  H   UNK A   0      -7.701  12.159  18.512  0.00  0.00    +0.000 HD
ATOM     37  H   UNK A   0      -7.734  11.520  16.942  0.00  0.00    +0.000 HD
ATOM     38  H   UNK A   0      -5.721  11.420  15.739  0.00  0.00    +0.000 HD
BRANCH  31  39
ATOM     39  N   UNK A   0      -3.389  12.373  20.138  0.00  0.00    +0.000 N 
ATOM     40  H   UNK A   0      -3.850  11.822  20.861  0.00  0.00    +0.000 HD
ATOM     41  H   UNK A   0      -2.382  12.281  20.170  0.00  0.00    +0.000 HD
ENDBRANCH  31  39
ENDBRANCH  27  32
ENDBRANCH  26  27
ENDBRANCH  25  26
ENDBRANCH  22  25
ENDBRANCH   1  22
TORSDOF 15
ENDMDL
MODEL 5
REMARK VINA RESULT:      -7.5      1.495      2.395
REMARK  Name = 
REMARK  15 active torsions:
REMARK  status: ('A' for Active; 'I' for Inactive)
REMARK    1  A    between atoms: C_4  and  N_5
REMARK    2  A    between atoms: C_6  and  C_7
REMARK    3  A    between atoms: C_7  and  C_8
REMARK    4  A    between atoms: C_8  and  C_9
REMARK    5  A    between atoms: C_9  and  C_10
REMARK    6  A    between atoms: C_10  and  C_11
REMARK    7  A    between atoms: C_10  and  C_13
REMARK    8  A    between atoms: C_16  and  C_17
REMARK    9  A    between atoms: N_19  and  CA_20
REMARK   10  A    between atoms: CA_20  and  CB_21
REMARK   11  A    between atoms: CA_20  and  C_26
REMARK   12  A    between atoms: CB_21  and  CG_22
REMARK   13  A    between atoms: CG_22  and  CD_23
REMARK   14  A    between atoms: CD_23  and  OE2_25
REMARK   15  A    between atoms: C_26  and  OXT_28
REMARK                            x       y       z     vdW  Elec       q    Type
REMARK                         _______ _______ _______ _____ _____    ______ ____
ROOT
ATOM      1  C   UNK A   0       4.515   5.746  18.048  0.00  0.00    +0.000 A 
ATOM      2  C   UNK A   0       4.514   6.789  17.111  0.00  0.00    +0.000 A 
ATOM      3  C   UNK A   0       3.639   7.865  17.256  0.00  0.00    +0.000 A 
ATOM      4  C   UNK A   0       2.755   7.919  18.340  0.00  0.00    +0.000 A 
ATOM      5  C   UNK A   0       2.715   6.860  19.252  0.00  0.00    +0.000 A 
ATOM      6  C   UNK A   0       3.589   5.782  19.103  0.00  0.00    +0.000 A 
ENDROOT
BRANCH   4   7
ATOM      7  C   UNK A   0       1.874   9.110  18.456  0.00  0.00    +0.000 C 
ATOM      8  O   UNK A   0       1.679   9.832  17.484  0.00  0.00    +0.000 OA
ATOM      9  N   GLU A   1       1.321   9.358  19.690  0.00  0.00    +0.000 N 
ATOM     10  H   GLU A   1       1.601   8.812  20.498  0.00  0.00    +0.000 HD
BRANCH   9  11
ATOM     11  CA  GLU A   1       0.428  10.494  19.923  0.00  0.00    +0.000 C 
BRANCH  11  12
ATOM     12  C   GLU A   1       0.563  10.856  21.406  0.00  0.00    +0.000 C 
ATOM     13  O   GLU A   1       0.097  11.880  21.893  0.00  0.00    +0.000 OA
BRANCH  12  14
ATOM     14  OXT GLU A   1       1.195   9.928  22.155  0.00  0.00    +0.000 OA
ATOM     15  HXT GLU A   1       0.973   8.997  21.941  0.00  0.00    +0.000 HD
ENDBRANCH  12  14
ENDBRANCH  11  12
BRANCH  11  16
ATOM     16  CB  GLU A   1      -1.028  10.120  19.584  0.00  0.00    +0.000 C 
BRANCH  16  17
ATOM     17  CG  GLU A   1      -1.604  10.830  18.367  0.00  0.00    +0.000 C 
BRANCH  17  18
ATOM     18  CD  GLU A   1      -1.525  12.323  18.531  0.00  0.00    +0.000 C 
ATOM     19  OE1 GLU A   1      -0.736  13.013  17.899  0.00  0.00    +0.000 OA
BRANCH  18  20
ATOM     20  OE2 GLU A   1      -2.455  12.834  19.360  0.00  0.00    +0.000 OA
ATOM     21  HE2 GLU A   1      -2.363  13.790  19.538  0.00  0.00    +0.000 HD
ENDBRANCH  18  20
ENDBRANCH  17  18
ENDBRANCH  16  17
ENDBRANCH  11  16
ENDBRANCH   9  11
ENDBRANCH   4   7
BRANCH   1  22
ATOM     22  C   UNK A   0       5.492   4.595  17.909  0.00  0.00    +0.000 C 
BRANCH  22  23
ATOM     23  C   UNK A   0       6.906   5.132  17.743  0.00  0.00    +0.000 C 
ATOM     24  O   UNK A   0       7.742   4.664  16.975  0.00  0.00    +0.000 OA
ENDBRANCH  22  23
BRANCH  22  25
ATOM     25  C   UNK A   0       5.092   3.627  16.773  0.00  0.00    +0.000 C 
BRANCH  25  26
ATOM     26  C   UNK A   0       3.599   3.289  16.839  0.00  0.00    +0.000 C 
BRANCH  26  27
ATOM     27  C   UNK A   0       3.305   1.920  17.456  0.00  0.00    +0.000 C 
BRANCH  27  32
ATOM     28  N   UNK A   0       1.220   2.869  22.558  0.00  0.00    +0.000 N 
ATOM     29  C   UNK A   0       1.765   2.605  21.346  0.00  0.00    +0.000 A 
ATOM     30  N   UNK A   0       3.028   2.352  21.238  0.00  0.00    +0.000 NA
ATOM     31  C   UNK A   0       3.561   2.119  19.996  0.00  0.00    +0.000 A 
ATOM     32  C   UNK A   0       2.813   2.096  18.874  0.00  0.00    +0.000 A 
ATOM     33  C   UNK A   0       1.354   2.353  19.023  0.00  0.00    +0.000 A 
ATOM     34  O   UNK A   0       0.587   2.364  18.071  0.00  0.00    +0.000 OA
ATOM     35  N   UNK A   0       0.927   2.604  20.286  0.00  0.00    +0.000 N 
ATOM     36  H   UNK A   0       1.839   2.624  23.323  0.00  0.00    +0.000 HD
ATOM     37  H   UNK A   0       0.257   2.610  22.713  0.00  0.00    +0.000 HD
ATOM     38  H   UNK A   0      -0.044   2.828  20.396  0.00  0.00    +0.000 HD
BRANCH  31  39
ATOM     39  N   UNK A   0       4.928   1.946  19.965  0.00  0.00    +0.000 N 
ATOM     40  H   UNK A   0       5.300   2.169  20.888  0.00  0.00    +0.000 HD
ATOM     41  H   UNK A   0       5.221   1.031  19.647  0.00  0.00    +0.000 HD
ENDBRANCH  31  39
ENDBRANCH  27  32
ENDBRANCH  26  27
ENDBRANCH  25  26
ENDBRANCH  22  25
ENDBRANCH   1  22
TORSDOF 15
ENDMDL
MODEL 6
REMARK VINA RESULT:      -7.5      1.122      2.387
REMARK  Name = 
REMARK  15 active torsions:
REMARK  status: ('A' for Active; 'I' for Inactive)
REMARK    1  A    between atoms: C_4  and  N_5
REMARK    2  A    between atoms: C_6  and  C_7
REMARK    3  A    between atoms: C_7  and  C_8
REMARK    4  A    between atoms: C_8  and  C_9
REMARK    5  A    between atoms: C_9  and  C_10
REMARK    6  A    between atoms: C_10  and  C_11
REMARK    7  A    between atoms: C_10  and  C_13
REMARK    8  A    between atoms: C_16  and  C_17
REMARK    9  A    between atoms: N_19  and  CA_20
REMARK   10  A    between atoms: CA_20  and  CB_21
REMARK   11  A    between atoms: CA_20  and  C_26
REMARK   12  A    between atoms: CB_21  and  CG_22
REMARK   13  A    between atoms: CG_22  and  CD_23
REMARK   14  A    between atoms: CD_23  and  OE2_25
REMARK   15  A    between atoms: C_26  and  OXT_28
REMARK                            x       y       z     vdW  Elec       q    Type
REMARK                         _______ _______ _______ _____ _____    ______ ____
ROOT
ATOM      1  C   UNK A   0       4.097   6.287  18.212  0.00  0.00    +0.000 A 
ATOM      2  C   UNK A   0       3.831   7.379  17.374  0.00  0.00    +0.000 A 
ATOM      3  C   UNK A   0       2.841   8.302  17.713  0.00  0.00    +0.000 A 
ATOM      4  C   UNK A   0       2.106   8.151  18.894  0.00  0.00    +0.000 A 
ATOM      5  C   UNK A   0       2.331   7.037  19.711  0.00  0.00    +0.000 A 
ATOM      6  C   UNK A   0       3.319   6.114  19.368  0.00  0.00    +0.000 A 
ENDROOT
BRANCH   4   7
ATOM      7  C   UNK A   0       1.091   9.188  19.215  0.00  0.00    +0.000 C 
ATOM      8  O   UNK A   0       0.496   9.160  20.287  0.00  0.00    +0.000 OA
ATOM      9  N   GLU A   1       0.852  10.144  18.255  0.00  0.00    +0.000 N 
ATOM     10  H   GLU A   1       1.273  10.064  17.336  0.00  0.00    +0.000 HD
BRANCH   9  11
ATOM     11  CA  GLU A   1      -0.116  11.221  18.463  0.00  0.00    +0.000 C 
BRANCH  11  12
ATOM     12  C   GLU A   1       0.284  11.918  19.768  0.00  0.00    +0.000 C 
ATOM     13  O   GLU A   1      -0.512  12.175  20.663  0.00  0.00    +0.000 OA
BRANCH  12  14
ATOM     14  OXT GLU A   1       1.603  12.183  19.882  0.00  0.00    +0.000 OA
ATOM     15  HXT GLU A   1       2.192  11.604  19.352  0.00  0.00    +0.000 HD
ENDBRANCH  12  14
ENDBRANCH  11  12
BRANCH  11  16
ATOM     16  CB  GLU A   1      -1.546  10.657  18.563  0.00  0.00    +0.000 C 
BRANCH  16  17
ATOM     17  CG  GLU A   1      -2.045   9.953  17.309  0.00  0.00    +0.000 C 
BRANCH  17  18
ATOM     18  CD  GLU A   1      -2.746  10.920  16.395  0.00  0.00    +0.000 C 
ATOM     19  OE1 GLU A   1      -2.752  10.789  15.179  0.00  0.00    +0.000 OA
BRANCH  18  20
ATOM     20  OE2 GLU A   1      -3.434  11.883  17.039  0.00  0.00    +0.000 OA
ATOM     21  HE2 GLU A   1      -3.569  12.703  16.525  0.00  0.00    +0.000 HD
ENDBRANCH  18  20
ENDBRANCH  17  18
ENDBRANCH  16  17
ENDBRANCH  11  16
ENDBRANCH   9  11
ENDBRANCH   4   7
BRANCH   1  22
ATOM     22  C   UNK A   0       5.199   5.305  17.860  0.00  0.00    +0.000 C 
BRANCH  22  23
ATOM     23  C   UNK A   0       6.505   6.051  17.632  0.00  0.00    +0.000 C 
ATOM     24  O   UNK A   0       7.429   5.638  16.936  0.00  0.00    +0.000 OA
ENDBRANCH  22  23
BRANCH  22  25
ATOM     25  C   UNK A   0       4.815   4.407  16.663  0.00  0.00    +0.000 C 
BRANCH  25  26
ATOM     26  C   UNK A   0       3.403   3.837  16.833  0.00  0.00    +0.000 C 
BRANCH  26  27
ATOM     27  C   UNK A   0       3.379   2.408  17.380  0.00  0.00    +0.000 C 
BRANCH  27  32
ATOM     28  N   UNK A   0       1.200   2.719  22.521  0.00  0.00    +0.000 N 
ATOM     29  C   UNK A   0       1.770   2.611  21.297  0.00  0.00    +0.000 A 
ATOM     30  N   UNK A   0       3.053   2.496  21.181  0.00  0.00    +0.000 NA
ATOM     31  C   UNK A   0       3.609   2.421  19.929  0.00  0.00    +0.000 A 
ATOM     32  C   UNK A   0       2.869   2.416  18.802  0.00  0.00    +0.000 A 
ATOM     33  C   UNK A   0       1.392   2.512  18.957  0.00  0.00    +0.000 A 
ATOM     34  O   UNK A   0       0.628   2.525  18.002  0.00  0.00    +0.000 OA
ATOM     35  N   UNK A   0       0.939   2.614  20.232  0.00  0.00    +0.000 N 
ATOM     36  H   UNK A   0       1.839   2.475  23.269  0.00  0.00    +0.000 HD
ATOM     37  H   UNK A   0       0.268   2.352  22.645  0.00  0.00    +0.000 HD
ATOM     38  H   UNK A   0      -0.050   2.729  20.351  0.00  0.00    +0.000 HD
BRANCH  31  39
ATOM     39  N   UNK A   0       4.987   2.389  19.898  0.00  0.00    +0.000 N 
ATOM     40  H   UNK A   0       5.286   1.420  20.000  0.00  0.00    +0.000 HD
ATOM     41  H   UNK A   0       5.391   2.829  19.081  0.00  0.00    +0.000 HD
ENDBRANCH  31  39
ENDBRANCH  27  32
ENDBRANCH  26  27
ENDBRANCH  25  26
ENDBRANCH  22  25
ENDBRANCH   1  22
TORSDOF 15
ENDMDL
MODEL 7
REMARK VINA RESULT:      -7.4      2.846      5.143
REMARK  Name = 
REMARK  15 active torsions:
REMARK  status: ('A' for Active; 'I' for Inactive)
REMARK    1  A    between atoms: C_4  and  N_5
REMARK    2  A    between atoms: C_6  and  C_7
REMARK    3  A    between atoms: C_7  and  C_8
REMARK    4  A    between atoms: C_8  and  C_9
REMARK    5  A    between atoms: C_9  and  C_10
REMARK    6  A    between atoms: C_10  and  C_11
REMARK    7  A    between atoms: C_10  and  C_13
REMARK    8  A    between atoms: C_16  and  C_17
REMARK    9  A    between atoms: N_19  and  CA_20
REMARK   10  A    between atoms: CA_20  and  CB_21
REMARK   11  A    between atoms: CA_20  and  C_26
REMARK   12  A    between atoms: CB_21  and  CG_22
REMARK   13  A    between atoms: CG_22  and  CD_23
REMARK   14  A    between atoms: CD_23  and  OE2_25
REMARK   15  A    between atoms: C_26  and  OXT_28
REMARK                            x       y       z     vdW  Elec       q    Type
REMARK                         _______ _______ _______ _____ _____    ______ ____
ROOT
ATOM      1  C   UNK A   0       2.384   5.214  19.358  0.00  0.00    +0.000 A 
ATOM      2  C   UNK A   0       2.083   6.052  20.441  0.00  0.00    +0.000 A 
ATOM      3  C   UNK A   0       1.851   7.412  20.235  0.00  0.00    +0.000 A 
ATOM      4  C   UNK A   0       1.912   7.955  18.946  0.00  0.00    +0.000 A 
ATOM      5  C   UNK A   0       2.261   7.136  17.867  0.00  0.00    +0.000 A 
ATOM      6  C   UNK A   0       2.496   5.776  18.076  0.00  0.00    +0.000 A 
ENDROOT
BRANCH   4   7
ATOM      7  C   UNK A   0       1.619   9.403  18.791  0.00  0.00    +0.000 C 
ATOM      8  O   UNK A   0       2.064  10.025  17.832  0.00  0.00    +0.000 OA
ATOM      9  N   GLU A   1       0.855   9.993  19.770  0.00  0.00    +0.000 N 
ATOM     10  H   GLU A   1       0.607   9.478  20.608  0.00  0.00    +0.000 HD
BRANCH   9  11
ATOM     11  CA  GLU A   1       0.492  11.410  19.718  0.00  0.00    +0.000 C 
BRANCH  11  12
ATOM     12  C   GLU A   1       0.809  11.990  21.101  0.00  0.00    +0.000 C 
ATOM     13  O   GLU A   1       1.548  12.953  21.272  0.00  0.00    +0.000 OA
BRANCH  12  14
ATOM     14  OXT GLU A   1       0.166  11.389  22.124  0.00  0.00    +0.000 OA
ATOM     15  HXT GLU A   1      -0.608  10.843  21.867  0.00  0.00    +0.000 HD
ENDBRANCH  12  14
ENDBRANCH  11  12
BRANCH  11  16
ATOM     16  CB  GLU A   1      -1.004  11.577  19.388  0.00  0.00    +0.000 C 
BRANCH  16  17
ATOM     17  CG  GLU A   1      -1.293  12.199  18.029  0.00  0.00    +0.000 C 
BRANCH  17  18
ATOM     18  CD  GLU A   1      -2.294  11.376  17.266  0.00  0.00    +0.000 C 
ATOM     19  OE1 GLU A   1      -2.013  10.295  16.767  0.00  0.00    +0.000 OA
BRANCH  18  20
ATOM     20  OE2 GLU A   1      -3.538  11.892  17.262  0.00  0.00    +0.000 OA
ATOM     21  HE2 GLU A   1      -4.118  11.566  17.978  0.00  0.00    +0.000 HD
ENDBRANCH  18  20
ENDBRANCH  17  18
ENDBRANCH  16  17
ENDBRANCH  11  16
ENDBRANCH   9  11
ENDBRANCH   4   7
BRANCH   1  22
ATOM     22  C   UNK A   0       2.601   3.729  19.579  0.00  0.00    +0.000 C 
BRANCH  22  23
ATOM     23  C   UNK A   0       2.466   3.400  21.058  0.00  0.00    +0.000 C 
ATOM     24  O   UNK A   0       1.582   2.694  21.535  0.00  0.00    +0.000 OA
ENDBRANCH  22  23
BRANCH  22  25
ATOM     25  C   UNK A   0       3.943   3.244  18.986  0.00  0.00    +0.000 C 
BRANCH  25  26
ATOM     26  C   UNK A   0       5.059   4.259  19.248  0.00  0.00    +0.000 C 
BRANCH  26  27
ATOM     27  C   UNK A   0       6.090   4.344  18.121  0.00  0.00    +0.000 C 
BRANCH  27  32
ATOM     28  N   UNK A   0       8.494   9.380  17.741  0.00  0.00    +0.000 N 
ATOM     29  C   UNK A   0       7.921   8.161  17.890  0.00  0.00    +0.000 A 
ATOM     30  N   UNK A   0       8.327   7.357  18.818  0.00  0.00    +0.000 NA
ATOM     31  C   UNK A   0       7.753   6.116  18.927  0.00  0.00    +0.000 A 
ATOM     32  C   UNK A   0       6.744   5.706  18.132  0.00  0.00    +0.000 A 
ATOM     33  C   UNK A   0       6.266   6.660  17.094  0.00  0.00    +0.000 A 
ATOM     34  O   UNK A   0       5.363   6.387  16.315  0.00  0.00    +0.000 OA
ATOM     35  N   UNK A   0       6.916   7.849  17.043  0.00  0.00    +0.000 N 
ATOM     36  H   UNK A   0       9.063   9.641  18.538  0.00  0.00    +0.000 HD
ATOM     37  H   UNK A   0       7.924  10.132  17.382  0.00  0.00    +0.000 HD
ATOM     38  H   UNK A   0       6.640   8.483  16.316  0.00  0.00    +0.000 HD
BRANCH  31  39
ATOM     39  N   UNK A   0       8.306   5.294  19.886  0.00  0.00    +0.000 N 
ATOM     40  H   UNK A   0       8.781   4.526  19.413  0.00  0.00    +0.000 HD
ATOM     41  H   UNK A   0       8.912   5.773  20.539  0.00  0.00    +0.000 HD
ENDBRANCH  31  39
ENDBRANCH  27  32
ENDBRANCH  26  27
ENDBRANCH  25  26
ENDBRANCH  22  25
ENDBRANCH   1  22
TORSDOF 15
ENDMDL
MODEL 8
REMARK VINA RESULT:      -7.4      0.842      1.330
REMARK  Name = 
REMARK  15 active torsions:
REMARK  status: ('A' for Active; 'I' for Inactive)
REMARK    1  A    between atoms: C_4  and  N_5
REMARK    2  A    between atoms: C_6  and  C_7
REMARK    3  A    between atoms: C_7  and  C_8
REMARK    4  A    between atoms: C_8  and  C_9
REMARK    5  A    between atoms: C_9  and  C_10
REMARK    6  A    between atoms: C_10  and  C_11
REMARK    7  A    between atoms: C_10  and  C_13
REMARK    8  A    between atoms: C_16  and  C_17
REMARK    9  A    between atoms: N_19  and  CA_20
REMARK   10  A    between atoms: CA_20  and  CB_21
REMARK   11  A    between atoms: CA_20  and  C_26
REMARK   12  A    between atoms: CB_21  and  CG_22
REMARK   13  A    between atoms: CG_22  and  CD_23
REMARK   14  A    between atoms: CD_23  and  OE2_25
REMARK   15  A    between atoms: C_26  and  OXT_28
REMARK                            x       y       z     vdW  Elec       q    Type
REMARK                         _______ _______ _______ _____ _____    ______ ____
ROOT
ATOM      1  C   UNK A   0       3.931   6.321  18.267  0.00  0.00    +0.000 A 
ATOM      2  C   UNK A   0       3.257   6.153  19.484  0.00  0.00    +0.000 A 
ATOM      3  C   UNK A   0       2.274   7.062  19.876  0.00  0.00    +0.000 A 
ATOM      4  C   UNK A   0       1.946   8.148  19.057  0.00  0.00    +0.000 A 
ATOM      5  C   UNK A   0       2.648   8.351  17.864  0.00  0.00    +0.000 A 
ATOM      6  C   UNK A   0       3.634   7.443  17.477  0.00  0.00    +0.000 A 
ENDROOT
BRANCH   4   7
ATOM      7  C   UNK A   0       0.865   9.059  19.515  0.00  0.00    +0.000 C 
ATOM      8  O   UNK A   0       0.469   9.015  20.675  0.00  0.00    +0.000 OA
ATOM      9  N   GLU A   1       0.336   9.918  18.580  0.00  0.00    +0.000 N 
ATOM     10  H   GLU A   1       0.602   9.842  17.605  0.00  0.00    +0.000 HD
BRANCH   9  11
ATOM     11  CA  GLU A   1      -0.725  10.869  18.917  0.00  0.00    +0.000 C 
BRANCH  11  12
ATOM     12  C   GLU A   1      -1.880  10.590  17.950  0.00  0.00    +0.000 C 
ATOM     13  O   GLU A   1      -3.048  10.495  18.308  0.00  0.00    +0.000 OA
BRANCH  12  14
ATOM     14  OXT GLU A   1      -1.519  10.511  16.651  0.00  0.00    +0.000 OA
ATOM     15  HXT GLU A   1      -1.365  11.372  16.208  0.00  0.00    +0.000 HD
ENDBRANCH  12  14
ENDBRANCH  11  12
BRANCH  11  16
ATOM     16  CB  GLU A   1      -0.224  12.318  18.765  0.00  0.00    +0.000 C 
BRANCH  16  17
ATOM     17  CG  GLU A   1       1.290  12.472  18.742  0.00  0.00    +0.000 C 
BRANCH  17  18
ATOM     18  CD  GLU A   1       1.800  12.953  20.073  0.00  0.00    +0.000 C 
ATOM     19  OE1 GLU A   1       1.634  12.321  21.108  0.00  0.00    +0.000 OA
BRANCH  18  20
ATOM     20  OE2 GLU A   1       2.527  14.084  20.005  0.00  0.00    +0.000 OA
ATOM     21  HE2 GLU A   1       2.219  14.730  19.339  0.00  0.00    +0.000 HD
ENDBRANCH  18  20
ENDBRANCH  17  18
ENDBRANCH  16  17
ENDBRANCH  11  16
ENDBRANCH   9  11
ENDBRANCH   4   7
BRANCH   1  22
ATOM     22  C   UNK A   0       4.974   5.312  17.826  0.00  0.00    +0.000 C 
BRANCH  22  23
ATOM     23  C   UNK A   0       6.311   6.008  17.613  0.00  0.00    +0.000 C 
ATOM     24  O   UNK A   0       6.793   6.264  16.513  0.00  0.00    +0.000 OA
ENDBRANCH  22  23
BRANCH  22  25
ATOM     25  C   UNK A   0       4.520   4.514  16.583  0.00  0.00    +0.000 C 
BRANCH  25  26
ATOM     26  C   UNK A   0       3.147   3.875  16.812  0.00  0.00    +0.000 C 
BRANCH  26  27
ATOM     27  C   UNK A   0       3.216   2.450  17.366  0.00  0.00    +0.000 C 
BRANCH  27  32
ATOM     28  N   UNK A   0       1.222   2.706  22.584  0.00  0.00    +0.000 N 
ATOM     29  C   UNK A   0       1.748   2.611  21.340  0.00  0.00    +0.000 A 
ATOM     30  N   UNK A   0       3.024   2.483  21.177  0.00  0.00    +0.000 NA
ATOM     31  C   UNK A   0       3.535   2.422  19.906  0.00  0.00    +0.000 A 
ATOM     32  C   UNK A   0       2.756   2.443  18.805  0.00  0.00    +0.000 A 
ATOM     33  C   UNK A   0       1.286   2.552  19.014  0.00  0.00    +0.000 A 
ATOM     34  O   UNK A   0       0.490   2.589  18.086  0.00  0.00    +0.000 OA
ATOM     35  N   UNK A   0       0.880   2.639  20.305  0.00  0.00    +0.000 N 
ATOM     36  H   UNK A   0       1.884   2.443  23.306  0.00  0.00    +0.000 HD
ATOM     37  H   UNK A   0       0.291   2.348  22.736  0.00  0.00    +0.000 HD
ATOM     38  H   UNK A   0      -0.103   2.764  20.460  0.00  0.00    +0.000 HD
BRANCH  31  39
ATOM     39  N   UNK A   0       4.911   2.375  19.825  0.00  0.00    +0.000 N 
ATOM     40  H   UNK A   0       5.220   1.471  20.181  0.00  0.00    +0.000 HD
ATOM     41  H   UNK A   0       5.276   2.567  18.902  0.00  0.00    +0.000 HD
ENDBRANCH  31  39
ENDBRANCH  27  32
ENDBRANCH  26  27
ENDBRANCH  25  26
ENDBRANCH  22  25
ENDBRANCH   1  22
TORSDOF 15
ENDMDL
MODEL 9
REMARK VINA RESULT:      -7.3      1.595      2.952
REMARK  Name = 
REMARK  15 active torsions:
REMARK  status: ('A' for Active; 'I' for Inactive)
REMARK    1  A    between atoms: C_4  and  N_5
REMARK    2  A    between atoms: C_6  and  C_7
REMARK    3  A    between atoms: C_7  and  C_8
REMARK    4  A    between atoms: C_8  and  C_9
REMARK    5  A    between atoms: C_9  and  C_10
REMARK    6  A    between atoms: C_10  and  C_11
REMARK    7  A    between atoms: C_10  and  C_13
REMARK    8  A    between atoms: C_16  and  C_17
REMARK    9  A    between atoms: N_19  and  CA_20
REMARK   10  A    between atoms: CA_20  and  CB_21
REMARK   11  A    between atoms: CA_20  and  C_26
REMARK   12  A    between atoms: CB_21  and  CG_22
REMARK   13  A    between atoms: CG_22  and  CD_23
REMARK   14  A    between atoms: CD_23  and  OE2_25
REMARK   15  A    between atoms: C_26  and  OXT_28
REMARK                            x       y       z     vdW  Elec       q    Type
REMARK                         _______ _______ _______ _____ _____    ______ ____
ROOT
ATOM      1  C   UNK A   0       3.296   7.184  18.313  0.00  0.00    +0.000 A 
ATOM      2  C   UNK A   0       2.656   7.005  19.548  0.00  0.00    +0.000 A 
ATOM      3  C   UNK A   0       1.689   7.914  19.977  0.00  0.00    +0.000 A 
ATOM      4  C   UNK A   0       1.343   9.011  19.180  0.00  0.00    +0.000 A 
ATOM      5  C   UNK A   0       2.012   9.224  17.970  0.00  0.00    +0.000 A 
ATOM      6  C   UNK A   0       2.982   8.316  17.544  0.00  0.00    +0.000 A 
ENDROOT
BRANCH   4   7
ATOM      7  C   UNK A   0       0.280   9.922  19.679  0.00  0.00    +0.000 C 
ATOM      8  O   UNK A   0      -0.900   9.595  19.605  0.00  0.00    +0.000 OA
ATOM      9  N   GLU A   1       0.687  11.130  20.197  0.00  0.00    +0.000 N 
ATOM     10  H   GLU A   1       1.657  11.416  20.130  0.00  0.00    +0.000 HD
BRANCH   9  11
ATOM     11  CA  GLU A   1      -0.268  12.103  20.729  0.00  0.00    +0.000 C 
BRANCH  11  12
ATOM     12  C   GLU A   1       0.199  13.479  20.243  0.00  0.00    +0.000 C 
ATOM     13  O   GLU A   1       1.138  14.086  20.746  0.00  0.00    +0.000 OA
BRANCH  12  14
ATOM     14  OXT GLU A   1      -0.473  13.955  19.173  0.00  0.00    +0.000 OA
ATOM     15  HXT GLU A   1      -0.044  13.792  18.306  0.00  0.00    +0.000 HD
ENDBRANCH  12  14
ENDBRANCH  11  12
BRANCH  11  16
ATOM     16  CB  GLU A   1      -0.297  12.050  22.269  0.00  0.00    +0.000 C 
BRANCH  16  17
ATOM     17  CG  GLU A   1      -1.217  10.988  22.855  0.00  0.00    +0.000 C 
BRANCH  17  18
ATOM     18  CD  GLU A   1      -0.453   9.732  23.169  0.00  0.00    +0.000 C 
ATOM     19  OE1 GLU A   1       0.480   9.710  23.960  0.00  0.00    +0.000 OA
BRANCH  18  20
ATOM     20  OE2 GLU A   1      -0.945   8.628  22.575  0.00  0.00    +0.000 OA
ATOM     21  HE2 GLU A   1      -1.799   8.756  22.116  0.00  0.00    +0.000 HD
ENDBRANCH  18  20
ENDBRANCH  17  18
ENDBRANCH  16  17
ENDBRANCH  11  16
ENDBRANCH   9  11
ENDBRANCH   4   7
BRANCH   1  22
ATOM     22  C   UNK A   0       4.321   6.175  17.831  0.00  0.00    +0.000 C 
BRANCH  22  23
ATOM     23  C   UNK A   0       5.368   6.870  16.973  0.00  0.00    +0.000 C 
ATOM     24  O   UNK A   0       6.565   6.598  16.982  0.00  0.00    +0.000 OA
ENDBRANCH  22  23
BRANCH  22  25
ATOM     25  C   UNK A   0       3.662   4.980  17.106  0.00  0.00    +0.000 C 
BRANCH  25  26
ATOM     26  C   UNK A   0       4.512   3.713  17.249  0.00  0.00    +0.000 C 
BRANCH  26  27
ATOM     27  C   UNK A   0       3.689   2.440  17.453  0.00  0.00    +0.000 C 
BRANCH  27  32
ATOM     28  N   UNK A   0       1.226   2.750  22.464  0.00  0.00    +0.000 N 
ATOM     29  C   UNK A   0       1.860   2.637  21.272  0.00  0.00    +0.000 A 
ATOM     30  N   UNK A   0       3.126   2.376  21.227  0.00  0.00    +0.000 NA
ATOM     31  C   UNK A   0       3.750   2.299  20.008  0.00  0.00    +0.000 A 
ATOM     32  C   UNK A   0       3.091   2.438  18.840  0.00  0.00    +0.000 A 
ATOM     33  C   UNK A   0       1.627   2.700  18.912  0.00  0.00    +0.000 A 
ATOM     34  O   UNK A   0       0.935   2.851  17.915  0.00  0.00    +0.000 OA
ATOM     35  N   UNK A   0       1.107   2.791  20.161  0.00  0.00    +0.000 N 
ATOM     36  H   UNK A   0       1.782   2.395  23.234  0.00  0.00    +0.000 HD
ATOM     37  H   UNK A   0       0.252   2.492  22.511  0.00  0.00    +0.000 HD
ATOM     38  H   UNK A   0       0.131   3.018  20.228  0.00  0.00    +0.000 HD
BRANCH  31  39
ATOM     39  N   UNK A   0       5.114   2.105  20.057  0.00  0.00    +0.000 N 
ATOM     40  H   UNK A   0       5.346   1.311  19.461  0.00  0.00    +0.000 HD
ATOM     41  H   UNK A   0       5.656   2.927  19.824  0.00  0.00    +0.000 HD
ENDBRANCH  31  39
ENDBRANCH  27  32
ENDBRANCH  26  27
ENDBRANCH  25  26
ENDBRANCH  22  25
ENDBRANCH   1  22
TORSDOF 15
ENDMDL
