MODEL 1
REMARK VINA RESULT:      -8.6      0.000      0.000
REMARK  Name = 
REMARK  5 active torsions:
REMARK  status: ('A' for Active; 'I' for Inactive)
REMARK    1  A    between atoms: C_1  and  C_2
REMARK    2  A    between atoms: C_8  and  N_9
REMARK    3  A    between atoms: C_10  and  C_12
REMARK    4  A    between atoms: C_12  and  S_13
REMARK    5  A    between atoms: S_13  and  C_16
REMARK                            x       y       z     vdW  Elec       q    Type
REMARK                         _______ _______ _______ _____ _____    ______ ____
ROOT
ATOM      1  C   UNL     1       3.092   4.047  20.146  0.00  0.00    +0.000 C 
ENDROOT
BRANCH   1   3
ATOM      2  N   UNL     1       2.615   6.455  20.057  0.00  0.00    +0.000 N 
ATOM      3  C   UNL     1       2.105   5.175  20.249  0.00  0.00    +0.000 C 
ATOM      4  O   UNL     1       0.942   4.899  20.549  0.00  0.00    +0.000 OA
ATOM      5  H   UNL     1       3.557   6.531  19.683  0.00  0.00    +0.000 HD
BRANCH   2  13
ATOM      6  C   UNL     1       2.511   8.239  17.687  0.00  0.00    +0.000 C 
ATOM      7  C   UNL     1       1.788   8.508  18.981  0.00  0.00    +0.000 A 
ATOM      8  C   UNL     1       0.986   9.671  19.043  0.00  0.00    +0.000 A 
ATOM      9  C   UNL     1       0.284   9.999  20.200  0.00  0.00    +0.000 A 
ATOM     10 CL   UNL     1      -0.717  11.398  20.236  0.00  0.00    +0.000 Cl
ATOM     11  C   UNL     1       0.391   9.198  21.323  0.00  0.00    +0.000 A 
ATOM     12  C   UNL     1       1.184   8.049  21.278  0.00  0.00    +0.000 A 
ATOM     13  C   UNL     1       1.867   7.665  20.112  0.00  0.00    +0.000 A 
ENDBRANCH   2  13
ENDBRANCH   1   3
BRANCH   1  14
ATOM     14  S   UNL     1       3.486   3.763  18.453  0.00  0.00    +0.000 S 
ATOM     15  O   UNL     1       3.701   2.340  18.270  0.00  0.00    +0.000 OA
ATOM     16  O   UNL     1       2.496   4.457  17.649  0.00  0.00    +0.000 OA
BRANCH  14  17
ATOM     17  C   UNL     1       5.036   4.546  18.173  0.00  0.00    +0.000 A 
ATOM     18  C   UNL     1       5.762   5.099  19.252  0.00  0.00    +0.000 A 
ATOM     19  C   UNL     1       7.030   5.705  19.098  0.00  0.00    +0.000 A 
ATOM     20  C   UNL     1       7.684   5.809  17.860  0.00  0.00    +0.000 A 
ATOM     21  C   UNL     1       6.995   5.277  16.742  0.00  0.00    +0.000 A 
ATOM     22  N   UNL     1       7.441   5.278  15.478  0.00  0.00    +0.000 NA
ATOM     23  S   UNL     1       6.271   4.539  14.563  0.00  0.00    +0.000 S 
ATOM     24  N   UNL     1       5.128   4.212  15.726  0.00  0.00    +0.000 NA
ATOM     25  C   UNL     1       5.633   4.635  16.896  0.00  0.00    +0.000 A 
ENDBRANCH  14  17
ENDBRANCH   1  14
TORSDOF 4
ENDMDL
MODEL 2
REMARK VINA RESULT:      -7.7      1.720      2.086
REMARK  Name = 
REMARK  5 active torsions:
REMARK  status: ('A' for Active; 'I' for Inactive)
REMARK    1  A    between atoms: C_1  and  C_2
REMARK    2  A    between atoms: C_8  and  N_9
REMARK    3  A    between atoms: C_10  and  C_12
REMARK    4  A    between atoms: C_12  and  S_13
REMARK    5  A    between atoms: S_13  and  C_16
REMARK                            x       y       z     vdW  Elec       q    Type
REMARK                         _______ _______ _______ _____ _____    ______ ____
ROOT
ATOM      1  C   UNL     1       3.375   3.891  20.484  0.00  0.00    +0.000 C 
ENDROOT
BRANCH   1   3
ATOM      2  N   UNL     1       2.980   6.260  19.967  0.00  0.00    +0.000 N 
ATOM      3  C   UNL     1       2.414   5.011  20.203  0.00  0.00    +0.000 C 
ATOM      4  O   UNL     1       1.208   4.764  20.257  0.00  0.00    +0.000 OA
ATOM      5  H   UNL     1       3.985   6.296  19.816  0.00  0.00    +0.000 HD
BRANCH   2  13
ATOM      6  C   UNL     1       3.268   7.564  17.316  0.00  0.00    +0.000 C 
ATOM      7  C   UNL     1       2.373   8.072  18.416  0.00  0.00    +0.000 A 
ATOM      8  C   UNL     1       1.602   9.224  18.141  0.00  0.00    +0.000 A 
ATOM      9  C   UNL     1       0.749   9.763  19.100  0.00  0.00    +0.000 A 
ATOM     10 CL   UNL     1      -0.210  11.143  18.727  0.00  0.00    +0.000 Cl
ATOM     11  C   UNL     1       0.671   9.189  20.356  0.00  0.00    +0.000 A 
ATOM     12  C   UNL     1       1.431   8.054  20.644  0.00  0.00    +0.000 A 
ATOM     13  C   UNL     1       2.264   7.457  19.684  0.00  0.00    +0.000 A 
ENDBRANCH   2  13
ENDBRANCH   1   3
BRANCH   1  14
ATOM     14  S   UNL     1       3.578   2.912  19.035  0.00  0.00    +0.000 S 
ATOM     15  O   UNL     1       4.350   1.735  19.386  0.00  0.00    +0.000 OA
ATOM     16  O   UNL     1       2.271   2.765  18.418  0.00  0.00    +0.000 OA
BRANCH  14  17
ATOM     17  C   UNL     1       4.575   3.859  17.938  0.00  0.00    +0.000 A 
ATOM     18  C   UNL     1       4.236   3.956  16.570  0.00  0.00    +0.000 A 
ATOM     19  C   UNL     1       4.973   4.733  15.646  0.00  0.00    +0.000 A 
ATOM     20  C   UNL     1       6.107   5.479  16.006  0.00  0.00    +0.000 A 
ATOM     21  C   UNL     1       6.497   5.407  17.366  0.00  0.00    +0.000 A 
ATOM     22  N   UNL     1       7.547   6.038  17.911  0.00  0.00    +0.000 NA
ATOM     23  S   UNL     1       7.561   5.631  19.519  0.00  0.00    +0.000 S 
ATOM     24  N   UNL     1       6.251   4.609  19.592  0.00  0.00    +0.000 NA
ATOM     25  C   UNL     1       5.719   4.572  18.360  0.00  0.00    +0.000 A 
ENDBRANCH  14  17
ENDBRANCH   1  14
TORSDOF 4
ENDMDL
MODEL 3
REMARK VINA RESULT:      -7.5      1.516      1.917
REMARK  Name = 
REMARK  5 active torsions:
REMARK  status: ('A' for Active; 'I' for Inactive)
REMARK    1  A    between atoms: C_1  and  C_2
REMARK    2  A    between atoms: C_8  and  N_9
REMARK    3  A    between atoms: C_10  and  C_12
REMARK    4  A    between atoms: C_12  and  S_13
REMARK    5  A    between atoms: S_13  and  C_16
REMARK                            x       y       z     vdW  Elec       q    Type
REMARK                         _______ _______ _______ _____ _____    ______ ____
ROOT
ATOM      1  C   UNL     1       3.342   4.240  19.894  0.00  0.00    +0.000 C 
ENDROOT
BRANCH   1   3
ATOM      2  N   UNL     1       2.680   6.606  19.895  0.00  0.00    +0.000 N 
ATOM      3  C   UNL     1       2.300   5.292  20.146  0.00  0.00    +0.000 C 
ATOM      4  O   UNL     1       1.215   4.931  20.606  0.00  0.00    +0.000 OA
ATOM      5  H   UNL     1       3.552   6.751  19.391  0.00  0.00    +0.000 HD
BRANCH   2  13
ATOM      6  C   UNL     1       2.321   8.514  17.649  0.00  0.00    +0.000 C 
ATOM      7  C   UNL     1       1.660   8.658  18.996  0.00  0.00    +0.000 A 
ATOM      8  C   UNL     1       0.791   9.758  19.174  0.00  0.00    +0.000 A 
ATOM      9  C   UNL     1       0.140   9.969  20.386  0.00  0.00    +0.000 A 
ATOM     10 CL   UNL     1      -0.946  11.293  20.565  0.00  0.00    +0.000 Cl
ATOM     11  C   UNL     1       0.365   9.114  21.450  0.00  0.00    +0.000 A 
ATOM     12  C   UNL     1       1.226   8.026  21.290  0.00  0.00    +0.000 A 
ATOM     13  C   UNL     1       1.861   7.758  20.067  0.00  0.00    +0.000 A 
ENDBRANCH   2  13
ENDBRANCH   1   3
BRANCH   1  14
ATOM     14  S   UNL     1       3.151   3.603  18.264  0.00  0.00    +0.000 S 
ATOM     15  O   UNL     1       3.196   2.154  18.335  0.00  0.00    +0.000 OA
ATOM     16  O   UNL     1       2.006   4.265  17.664  0.00  0.00    +0.000 OA
BRANCH  14  17
ATOM     17  C   UNL     1       4.580   4.106  17.370  0.00  0.00    +0.000 A 
ATOM     18  C   UNL     1       4.618   3.990  15.961  0.00  0.00    +0.000 A 
ATOM     19  C   UNL     1       5.719   4.413  15.182  0.00  0.00    +0.000 A 
ATOM     20  C   UNL     1       6.873   4.990  15.736  0.00  0.00    +0.000 A 
ATOM     21  C   UNL     1       6.891   5.121  17.147  0.00  0.00    +0.000 A 
ATOM     22  N   UNL     1       7.893   5.639  17.869  0.00  0.00    +0.000 NA
ATOM     23  S   UNL     1       7.419   5.568  19.457  0.00  0.00    +0.000 S 
ATOM     24  N   UNL     1       5.929   4.845  19.304  0.00  0.00    +0.000 NA
ATOM     25  C   UNL     1       5.720   4.662  17.990  0.00  0.00    +0.000 A 
ENDBRANCH  14  17
ENDBRANCH   1  14
TORSDOF 4
ENDMDL
MODEL 4
REMARK VINA RESULT:      -7.5      0.650      1.500
REMARK  Name = 
REMARK  5 active torsions:
REMARK  status: ('A' for Active; 'I' for Inactive)
REMARK    1  A    between atoms: C_1  and  C_2
REMARK    2  A    between atoms: C_8  and  N_9
REMARK    3  A    between atoms: C_10  and  C_12
REMARK    4  A    between atoms: C_12  and  S_13
REMARK    5  A    between atoms: S_13  and  C_16
REMARK                            x       y       z     vdW  Elec       q    Type
REMARK                         _______ _______ _______ _____ _____    ______ ____
ROOT
ATOM      1  C   UNL     1       3.102   4.355  20.284  0.00  0.00    +0.000 C 
ENDROOT
BRANCH   1   3
ATOM      2  N   UNL     1       2.683   6.702  19.691  0.00  0.00    +0.000 N 
ATOM      3  C   UNL     1       2.130   5.474  20.037  0.00  0.00    +0.000 C 
ATOM      4  O   UNL     1       0.931   5.245  20.211  0.00  0.00    +0.000 OA
ATOM      5  H   UNL     1       3.670   6.718  19.449  0.00  0.00    +0.000 HD
BRANCH   2  13
ATOM      6  C   UNL     1       1.412   8.205  21.914  0.00  0.00    +0.000 C 
ATOM      7  C   UNL     1       1.369   8.633  20.470  0.00  0.00    +0.000 A 
ATOM      8  C   UNL     1       0.707   9.847  20.176  0.00  0.00    +0.000 A 
ATOM      9  C   UNL     1       0.618  10.317  18.869  0.00  0.00    +0.000 A 
ATOM     10 CL   UNL     1      -0.158  11.819  18.541  0.00  0.00    +0.000 Cl
ATOM     11  C   UNL     1       1.154   9.578  17.830  0.00  0.00    +0.000 A 
ATOM     12  C   UNL     1       1.806   8.374  18.105  0.00  0.00    +0.000 A 
ATOM     13  C   UNL     1       1.955   7.895  19.417  0.00  0.00    +0.000 A 
ENDBRANCH   2  13
ENDBRANCH   1   3
BRANCH   1  14
ATOM     14  S   UNL     1       3.637   3.691  18.744  0.00  0.00    +0.000 S 
ATOM     15  O   UNL     1       3.975   2.294  18.946  0.00  0.00    +0.000 OA
ATOM     16  O   UNL     1       2.655   4.062  17.740  0.00  0.00    +0.000 OA
BRANCH  14  17
ATOM     17  C   UNL     1       5.137   4.519  18.346  0.00  0.00    +0.000 A 
ATOM     18  C   UNL     1       5.897   5.144  19.360  0.00  0.00    +0.000 A 
ATOM     19  C   UNL     1       7.131   5.790  19.112  0.00  0.00    +0.000 A 
ATOM     20  C   UNL     1       7.711   5.867  17.836  0.00  0.00    +0.000 A 
ATOM     21  C   UNL     1       6.984   5.264  16.781  0.00  0.00    +0.000 A 
ATOM     22  N   UNL     1       7.360   5.229  15.494  0.00  0.00    +0.000 NA
ATOM     23  S   UNL     1       6.173   4.410  14.676  0.00  0.00    +0.000 S 
ATOM     24  N   UNL     1       5.109   4.088  15.913  0.00  0.00    +0.000 NA
ATOM     25  C   UNL     1       5.659   4.577  17.036  0.00  0.00    +0.000 A 
ENDBRANCH  14  17
ENDBRANCH   1  14
TORSDOF 4
ENDMDL
MODEL 5
REMARK VINA RESULT:      -7.3      1.811      2.641
REMARK  Name = 
REMARK  5 active torsions:
REMARK  status: ('A' for Active; 'I' for Inactive)
REMARK    1  A    between atoms: C_1  and  C_2
REMARK    2  A    between atoms: C_8  and  N_9
REMARK    3  A    between atoms: C_10  and  C_12
REMARK    4  A    between atoms: C_12  and  S_13
REMARK    5  A    between atoms: S_13  and  C_16
REMARK                            x       y       z     vdW  Elec       q    Type
REMARK                         _______ _______ _______ _____ _____    ______ ____
ROOT
ATOM      1  C   UNL     1       3.165   3.888  20.736  0.00  0.00    +0.000 C 
ENDROOT
BRANCH   1   3
ATOM      2  N   UNL     1       2.854   6.269  20.217  0.00  0.00    +0.000 N 
ATOM      3  C   UNL     1       2.409   4.966  20.014  0.00  0.00    +0.000 C 
ATOM      4  O   UNL     1       1.425   4.636  19.349  0.00  0.00    +0.000 OA
ATOM      5  H   UNL     1       3.754   6.388  20.675  0.00  0.00    +0.000 HD
BRANCH   2  13
ATOM      6  C   UNL     1       0.984   7.945  21.801  0.00  0.00    +0.000 C 
ATOM      7  C   UNL     1       1.419   8.261  20.394  0.00  0.00    +0.000 A 
ATOM      8  C   UNL     1       0.923   9.453  19.817  0.00  0.00    +0.000 A 
ATOM      9  C   UNL     1       1.272   9.822  18.521  0.00  0.00    +0.000 A 
ATOM     10 CL   UNL     1       0.688  11.298  17.856  0.00  0.00    +0.000 Cl
ATOM     11  C   UNL     1       2.089   9.001  17.764  0.00  0.00    +0.000 A 
ATOM     12  C   UNL     1       2.583   7.818  18.319  0.00  0.00    +0.000 A 
ATOM     13  C   UNL     1       2.289   7.441  19.639  0.00  0.00    +0.000 A 
ENDBRANCH   2  13
ENDBRANCH   1   3
BRANCH   1  14
ATOM     14  S   UNL     1       3.865   2.776  19.564  0.00  0.00    +0.000 S 
ATOM     15  O   UNL     1       4.967   2.079  20.202  0.00  0.00    +0.000 OA
ATOM     16  O   UNL     1       2.776   2.022  18.968  0.00  0.00    +0.000 OA
BRANCH  14  17
ATOM     17  C   UNL     1       4.569   3.775  18.299  0.00  0.00    +0.000 A 
ATOM     18  C   UNL     1       4.003   3.789  17.004  0.00  0.00    +0.000 A 
ATOM     19  C   UNL     1       4.496   4.600  15.955  0.00  0.00    +0.000 A 
ATOM     20  C   UNL     1       5.590   5.466  16.108  0.00  0.00    +0.000 A 
ATOM     21  C   UNL     1       6.202   5.483  17.385  0.00  0.00    +0.000 A 
ATOM     22  N   UNL     1       7.256   6.233  17.736  0.00  0.00    +0.000 NA
ATOM     23  S   UNL     1       7.574   5.889  19.328  0.00  0.00    +0.000 S 
ATOM     24  N   UNL     1       6.405   4.746  19.637  0.00  0.00    +0.000 NA
ATOM     25  C   UNL     1       5.686   4.612  18.511  0.00  0.00    +0.000 A 
ENDBRANCH  14  17
ENDBRANCH   1  14
TORSDOF 4
ENDMDL
MODEL 6
REMARK VINA RESULT:      -7.0      1.269      2.080
REMARK  Name = 
REMARK  5 active torsions:
REMARK  status: ('A' for Active; 'I' for Inactive)
REMARK    1  A    between atoms: C_1  and  C_2
REMARK    2  A    between atoms: C_8  and  N_9
REMARK    3  A    between atoms: C_10  and  C_12
REMARK    4  A    between atoms: C_12  and  S_13
REMARK    5  A    between atoms: S_13  and  C_16
REMARK                            x       y       z     vdW  Elec       q    Type
REMARK                         _______ _______ _______ _____ _____    ______ ____
ROOT
ATOM      1  C   UNL     1       2.873   3.381  17.585  0.00  0.00    +0.000 C 
ENDROOT
BRANCH   1   3
ATOM      2  N   UNL     1       2.805   5.718  18.336  0.00  0.00    +0.000 N 
ATOM      3  C   UNL     1       2.113   4.666  17.747  0.00  0.00    +0.000 C 
ATOM      4  O   UNL     1       0.929   4.682  17.405  0.00  0.00    +0.000 OA
ATOM      5  H   UNL     1       3.811   5.614  18.444  0.00  0.00    +0.000 HD
BRANCH   2  13
ATOM      6  C   UNL     1       1.651   6.357  20.996  0.00  0.00    +0.000 C 
ATOM      7  C   UNL     1       1.757   7.342  19.861  0.00  0.00    +0.000 A 
ATOM      8  C   UNL     1       1.305   8.659  20.105  0.00  0.00    +0.000 A 
ATOM      9  C   UNL     1       1.364   9.634  19.112  0.00  0.00    +0.000 A 
ATOM     10 CL   UNL     1       0.846  11.241  19.446  0.00  0.00    +0.000 Cl
ATOM     11  C   UNL     1       1.841   9.311  17.854  0.00  0.00    +0.000 A 
ATOM     12  C   UNL     1       2.285   8.012  17.597  0.00  0.00    +0.000 A 
ATOM     13  C   UNL     1       2.284   7.019  18.590  0.00  0.00    +0.000 A 
ENDBRANCH   2  13
ENDBRANCH   1   3
BRANCH   1  14
ATOM     14  S   UNL     1       4.060   3.233  18.877  0.00  0.00    +0.000 S 
ATOM     15  O   UNL     1       3.482   3.784  20.089  0.00  0.00    +0.000 OA
ATOM     16  O   UNL     1       4.555   1.868  18.865  0.00  0.00    +0.000 OA
BRANCH  14  17
ATOM     17  C   UNL     1       5.400   4.284  18.436  0.00  0.00    +0.000 A 
ATOM     18  C   UNL     1       6.067   5.042  19.425  0.00  0.00    +0.000 A 
ATOM     19  C   UNL     1       7.175   5.873  19.142  0.00  0.00    +0.000 A 
ATOM     20  C   UNL     1       7.714   6.019  17.854  0.00  0.00    +0.000 A 
ATOM     21  C   UNL     1       7.075   5.287  16.823  0.00  0.00    +0.000 A 
ATOM     22  N   UNL     1       7.430   5.290  15.530  0.00  0.00    +0.000 NA
ATOM     23  S   UNL     1       6.376   4.274  14.748  0.00  0.00    +0.000 S 
ATOM     24  N   UNL     1       5.399   3.809  16.011  0.00  0.00    +0.000 NA
ATOM     25  C   UNL     1       5.883   4.402  17.115  0.00  0.00    +0.000 A 
ENDBRANCH  14  17
ENDBRANCH   1  14
TORSDOF 4
ENDMDL
MODEL 7
REMARK VINA RESULT:      -6.9      1.627      1.958
REMARK  Name = 
REMARK  5 active torsions:
REMARK  status: ('A' for Active; 'I' for Inactive)
REMARK    1  A    between atoms: C_1  and  C_2
REMARK    2  A    between atoms: C_8  and  N_9
REMARK    3  A    between atoms: C_10  and  C_12
REMARK    4  A    between atoms: C_12  and  S_13
REMARK    5  A    between atoms: S_13  and  C_16
REMARK                            x       y       z     vdW  Elec       q    Type
REMARK                         _______ _______ _______ _____ _____    ______ ____
ROOT
ATOM      1  C   UNL     1       3.407   4.724  19.544  0.00  0.00    +0.000 C 
ENDROOT
BRANCH   1   3
ATOM      2  N   UNL     1       2.588   7.024  19.812  0.00  0.00    +0.000 N 
ATOM      3  C   UNL     1       2.406   5.681  20.126  0.00  0.00    +0.000 C 
ATOM      4  O   UNL     1       1.541   5.226  20.876  0.00  0.00    +0.000 OA
ATOM      5  H   UNL     1       3.254   7.245  19.076  0.00  0.00    +0.000 HD
BRANCH   2  13
ATOM      6  C   UNL     1       1.673   9.078  17.874  0.00  0.00    +0.000 C 
ATOM      7  C   UNL     1       1.303   9.069  19.334  0.00  0.00    +0.000 A 
ATOM      8  C   UNL     1       0.437  10.090  19.787  0.00  0.00    +0.000 A 
ATOM      9  C   UNL     1       0.044  10.159  21.121  0.00  0.00    +0.000 A 
ATOM     10 CL   UNL     1      -1.043  11.388  21.640  0.00  0.00    +0.000 Cl
ATOM     11  C   UNL     1       0.529   9.238  22.032  0.00  0.00    +0.000 A 
ATOM     12  C   UNL     1       1.389   8.226  21.600  0.00  0.00    +0.000 A 
ATOM     13  C   UNL     1       1.767   8.100  20.253  0.00  0.00    +0.000 A 
ENDBRANCH   2  13
ENDBRANCH   1   3
BRANCH   1  14
ATOM     14  S   UNL     1       3.009   4.409  17.858  0.00  0.00    +0.000 S 
ATOM     15  O   UNL     1       2.552   3.036  17.748  0.00  0.00    +0.000 OA
ATOM     16  O   UNL     1       2.161   5.495  17.397  0.00  0.00    +0.000 OA
BRANCH  14  17
ATOM     17  C   UNL     1       4.523   4.508  16.969  0.00  0.00    +0.000 A 
ATOM     18  C   UNL     1       4.872   3.501  16.041  0.00  0.00    +0.000 A 
ATOM     19  C   UNL     1       6.054   3.542  15.266  0.00  0.00    +0.000 A 
ATOM     20  C   UNL     1       6.986   4.589  15.347  0.00  0.00    +0.000 A 
ATOM     21  C   UNL     1       6.690   5.620  16.272  0.00  0.00    +0.000 A 
ATOM     22  N   UNL     1       7.447   6.702  16.504  0.00  0.00    +0.000 NA
ATOM     23  S   UNL     1       6.658   7.593  17.660  0.00  0.00    +0.000 S 
ATOM     24  N   UNL     1       5.333   6.629  17.944  0.00  0.00    +0.000 NA
ATOM     25  C   UNL     1       5.431   5.580  17.111  0.00  0.00    +0.000 A 
ENDBRANCH  14  17
ENDBRANCH   1  14
TORSDOF 4
ENDMDL
MODEL 8
REMARK VINA RESULT:      -6.9      1.677      2.502
REMARK  Name = 
REMARK  5 active torsions:
REMARK  status: ('A' for Active; 'I' for Inactive)
REMARK    1  A    between atoms: C_1  and  C_2
REMARK    2  A    between atoms: C_8  and  N_9
REMARK    3  A    between atoms: C_10  and  C_12
REMARK    4  A    between atoms: C_12  and  S_13
REMARK    5  A    between atoms: S_13  and  C_16
REMARK                            x       y       z     vdW  Elec       q    Type
REMARK                         _______ _______ _______ _____ _____    ______ ____
ROOT
ATOM      1  C   UNL     1       3.279   3.840  19.456  0.00  0.00    +0.000 C 
ENDROOT
BRANCH   1   3
ATOM      2  N   UNL     1       3.002   6.274  19.269  0.00  0.00    +0.000 N 
ATOM      3  C   UNL     1       2.384   5.028  19.243  0.00  0.00    +0.000 C 
ATOM      4  O   UNL     1       1.175   4.825  19.121  0.00  0.00    +0.000 OA
ATOM      5  H   UNL     1       4.019   6.292  19.240  0.00  0.00    +0.000 HD
BRANCH   2  13
ATOM      6  C   UNL     1       1.355   7.404  21.464  0.00  0.00    +0.000 C 
ATOM      7  C   UNL     1       1.588   8.089  20.143  0.00  0.00    +0.000 A 
ATOM      8  C   UNL     1       1.007   9.366  19.966  0.00  0.00    +0.000 A 
ATOM      9  C   UNL     1       1.169  10.070  18.776  0.00  0.00    +0.000 A 
ATOM     10 CL   UNL     1       0.486  11.639  18.599  0.00  0.00    +0.000 Cl
ATOM     11  C   UNL     1       1.882   9.507  17.732  0.00  0.00    +0.000 A 
ATOM     12  C   UNL     1       2.457   8.244  17.891  0.00  0.00    +0.000 A 
ATOM     13  C   UNL     1       2.352   7.529  19.095  0.00  0.00    +0.000 A 
ENDBRANCH   2  13
ENDBRANCH   1   3
BRANCH   1  14
ATOM     14  S   UNL     1       3.493   2.985  17.931  0.00  0.00    +0.000 S 
ATOM     15  O   UNL     1       3.981   1.651  18.224  0.00  0.00    +0.000 OA
ATOM     16  O   UNL     1       2.278   3.160  17.155  0.00  0.00    +0.000 OA
BRANCH  14  17
ATOM     17  C   UNL     1       4.788   3.818  17.079  0.00  0.00    +0.000 A 
ATOM     18  C   UNL     1       4.820   3.827  15.666  0.00  0.00    +0.000 A 
ATOM     19  C   UNL     1       5.810   4.511  14.923  0.00  0.00    +0.000 A 
ATOM     20  C   UNL     1       6.847   5.244  15.521  0.00  0.00    +0.000 A 
ATOM     21  C   UNL     1       6.867   5.258  16.937  0.00  0.00    +0.000 A 
ATOM     22  N   UNL     1       7.770   5.892  17.699  0.00  0.00    +0.000 NA
ATOM     23  S   UNL     1       7.346   5.602  19.276  0.00  0.00    +0.000 S 
ATOM     24  N   UNL     1       6.013   4.631  19.066  0.00  0.00    +0.000 NA
ATOM     25  C   UNL     1       5.817   4.522  17.742  0.00  0.00    +0.000 A 
ENDBRANCH  14  17
ENDBRANCH   1  14
TORSDOF 4
ENDMDL
MODEL 9
REMARK VINA RESULT:      -6.9      1.006      1.217
REMARK  Name = 
REMARK  5 active torsions:
REMARK  status: ('A' for Active; 'I' for Inactive)
REMARK    1  A    between atoms: C_1  and  C_2
REMARK    2  A    between atoms: C_8  and  N_9
REMARK    3  A    between atoms: C_10  and  C_12
REMARK    4  A    between atoms: C_12  and  S_13
REMARK    5  A    between atoms: S_13  and  C_16
REMARK                            x       y       z     vdW  Elec       q    Type
REMARK                         _______ _______ _______ _____ _____    ______ ____
ROOT
ATOM      1  C   UNL     1       2.596   3.980  17.847  0.00  0.00    +0.000 C 
ENDROOT
BRANCH   1   3
ATOM      2  N   UNL     1       2.372   6.269  18.711  0.00  0.00    +0.000 N 
ATOM      3  C   UNL     1       1.940   4.949  18.790  0.00  0.00    +0.000 C 
ATOM      4  O   UNL     1       1.121   4.505  19.596  0.00  0.00    +0.000 OA
ATOM      5  H   UNL     1       2.949   6.525  17.913  0.00  0.00    +0.000 HD
BRANCH   2  13
ATOM      6  C   UNL     1       2.008   8.953  17.494  0.00  0.00    +0.000 C 
ATOM      7  C   UNL     1       1.691   8.625  18.930  0.00  0.00    +0.000 A 
ATOM      8  C   UNL     1       1.156   9.663  19.727  0.00  0.00    +0.000 A 
ATOM      9  C   UNL     1       0.836   9.449  21.064  0.00  0.00    +0.000 A 
ATOM     10 CL   UNL     1       0.147  10.717  22.002  0.00  0.00    +0.000 Cl
ATOM     11  C   UNL     1       1.072   8.214  21.643  0.00  0.00    +0.000 A 
ATOM     12  C   UNL     1       1.605   7.181  20.869  0.00  0.00    +0.000 A 
ATOM     13  C   UNL     1       1.894   7.350  19.505  0.00  0.00    +0.000 A 
ENDBRANCH   2  13
ENDBRANCH   1   3
BRANCH   1  14
ATOM     14  S   UNL     1       4.001   3.262  18.626  0.00  0.00    +0.000 S 
ATOM     15  O   UNL     1       3.801   3.314  20.063  0.00  0.00    +0.000 OA
ATOM     16  O   UNL     1       4.262   1.989  17.976  0.00  0.00    +0.000 OA
BRANCH  14  17
ATOM     17  C   UNL     1       5.358   4.323  18.269  0.00  0.00    +0.000 A 
ATOM     18  C   UNL     1       6.003   5.030  19.309  0.00  0.00    +0.000 A 
ATOM     19  C   UNL     1       7.122   5.867  19.094  0.00  0.00    +0.000 A 
ATOM     20  C   UNL     1       7.695   6.069  17.828  0.00  0.00    +0.000 A 
ATOM     21  C   UNL     1       7.080   5.390  16.748  0.00  0.00    +0.000 A 
ATOM     22  N   UNL     1       7.468   5.450  15.466  0.00  0.00    +0.000 NA
ATOM     23  S   UNL     1       6.429   4.478  14.611  0.00  0.00    +0.000 S 
ATOM     24  N   UNL     1       5.418   3.961  15.826  0.00  0.00    +0.000 NA
ATOM     25  C   UNL     1       5.876   4.499  16.968  0.00  0.00    +0.000 A 
ENDBRANCH  14  17
ENDBRANCH   1  14
TORSDOF 4
ENDMDL
