MODEL 1
REMARK VINA RESULT:      -7.3      0.000      0.000
REMARK  Name = 
REMARK  7 active torsions:
REMARK  status: ('A' for Active; 'I' for Inactive)
REMARK    1  A    between atoms: O_1  and  C_2
REMARK    2  A    between atoms: C_2  and  C_3
REMARK    3  A    between atoms: C_4  and  O_5
REMARK    4  A    between atoms: C_6  and  O_7
REMARK    5  A    between atoms: C_8  and  O_9
REMARK    6  A    between atoms: N_11  and  C_12
REMARK    7  A    between atoms: C_12  and  C_13
REMARK                            x       y       z     vdW  Elec       q    Type
REMARK                         _______ _______ _______ _____ _____    ______ ____
ROOT
ATOM      1  C   UNL     1       2.095   3.979  19.442  0.00  0.00    +0.000 C 
ATOM      2  C   UNL     1       3.125   3.156  20.254  0.00  0.00    +0.000 C 
ATOM      3  C   UNL     1       4.041   2.314  19.351  0.00  0.00    +0.000 C 
ATOM      4  C   UNL     1       4.659   3.145  18.218  0.00  0.00    +0.000 C 
ATOM      5  C   UNL     1       3.636   4.075  17.532  0.00  0.00    +0.000 C 
ATOM      6  N   UNL     1       2.741   4.854  18.415  0.00  0.00    +0.000 NA
ENDROOT
BRANCH   2   7
ATOM      7  O   UNL     1       2.446   2.338  21.215  0.00  0.00    +0.000 OA
ATOM      8  H   UNL     1       1.663   1.965  20.764  0.00  0.00    +0.000 HD
ENDBRANCH   2   7
BRANCH   3   9
ATOM      9  O   UNL     1       5.064   1.718  20.168  0.00  0.00    +0.000 OA
ATOM     10  H   UNL     1       5.817   2.341  20.176  0.00  0.00    +0.000 HD
ENDBRANCH   3   9
BRANCH   4  11
ATOM     11  O   UNL     1       5.804   3.867  18.694  0.00  0.00    +0.000 OA
ATOM     12  H   UNL     1       6.240   4.315  17.953  0.00  0.00    +0.000 HD
ENDBRANCH   4  11
BRANCH   1  13
ATOM     13  C   UNL     1       0.957   3.084  18.871  0.00  0.00    +0.000 C 
BRANCH  13  14
ATOM     14  O   UNL     1      -0.014   2.703  19.842  0.00  0.00    +0.000 OA
ATOM     15  H   UNL     1      -0.169   1.749  19.723  0.00  0.00    +0.000 HD
ENDBRANCH  13  14
ENDBRANCH   1  13
BRANCH   6  16
ATOM     16  C   UNL     1       3.355   6.035  19.049  0.00  0.00    +0.000 C 
BRANCH  16  17
ATOM     17  C   UNL     1       2.467   7.238  19.216  0.00  0.00    +0.000 A 
ATOM     18  C   UNL     1       1.737   7.462  20.389  0.00  0.00    +0.000 A 
ATOM     19  F   UNL     1       1.806   6.576  21.398  0.00  0.00    +0.000 F 
ATOM     20  C   UNL     1       0.968   8.613  20.554  0.00  0.00    +0.000 A 
ATOM     21  F   UNL     1       0.289   8.807  21.693  0.00  0.00    +0.000 F 
ATOM     22  C   UNL     1       0.919   9.567  19.548  0.00  0.00    +0.000 A 
ATOM     23  F   UNL     1       0.192  10.685  19.711  0.00  0.00    +0.000 F 
ATOM     24  C   UNL     1       1.643   9.371  18.381  0.00  0.00    +0.000 A 
ATOM     25  F   UNL     1       1.627  10.308  17.418  0.00  0.00    +0.000 F 
ATOM     26  C   UNL     1       2.406   8.223  18.220  0.00  0.00    +0.000 A 
ATOM     27  F   UNL     1       3.134   8.074  17.100  0.00  0.00    +0.000 F 
ENDBRANCH  16  17
ENDBRANCH   6  16
TORSDOF 7
ENDMDL
MODEL 2
REMARK VINA RESULT:      -7.3      3.262      5.264
REMARK  Name = 
REMARK  7 active torsions:
REMARK  status: ('A' for Active; 'I' for Inactive)
REMARK    1  A    between atoms: O_1  and  C_2
REMARK    2  A    between atoms: C_2  and  C_3
REMARK    3  A    between atoms: C_4  and  O_5
REMARK    4  A    between atoms: C_6  and  O_7
REMARK    5  A    between atoms: C_8  and  O_9
REMARK    6  A    between atoms: N_11  and  C_12
REMARK    7  A    between atoms: C_12  and  C_13
REMARK                            x       y       z     vdW  Elec       q    Type
REMARK                         _______ _______ _______ _____ _____    ______ ____
ROOT
ATOM      1  C   UNL     1       2.826   5.592  19.297  0.00  0.00    +0.000 C 
ATOM      2  C   UNL     1       2.614   4.408  20.271  0.00  0.00    +0.000 C 
ATOM      3  C   UNL     1       1.323   3.629  19.969  0.00  0.00    +0.000 C 
ATOM      4  C   UNL     1       1.211   3.246  18.488  0.00  0.00    +0.000 C 
ATOM      5  C   UNL     1       1.585   4.405  17.540  0.00  0.00    +0.000 C 
ATOM      6  N   UNL     1       2.812   5.165  17.863  0.00  0.00    +0.000 NA
ENDROOT
BRANCH   2   7
ATOM      7  O   UNL     1       2.633   4.881  21.624  0.00  0.00    +0.000 OA
ATOM      8  H   UNL     1       3.565   4.863  21.915  0.00  0.00    +0.000 HD
ENDBRANCH   2   7
BRANCH   3   9
ATOM      9  O   UNL     1       1.291   2.458  20.806  0.00  0.00    +0.000 OA
ATOM     10  H   UNL     1       1.492   1.694  20.231  0.00  0.00    +0.000 HD
ENDBRANCH   3   9
BRANCH   4  11
ATOM     11  O   UNL     1       1.979   2.065  18.216  0.00  0.00    +0.000 OA
ATOM     12  H   UNL     1       2.863   2.313  17.902  0.00  0.00    +0.000 HD
ENDBRANCH   4  11
BRANCH   1  13
ATOM     13  C   UNL     1       1.863   6.776  19.603  0.00  0.00    +0.000 C 
BRANCH  13  14
ATOM     14  O   UNL     1       2.217   7.515  20.769  0.00  0.00    +0.000 OA
ATOM     15  H   UNL     1       1.388   7.855  21.147  0.00  0.00    +0.000 HD
ENDBRANCH  13  14
ENDBRANCH   1  13
BRANCH   6  16
ATOM     16  C   UNL     1       4.077   4.496  17.507  0.00  0.00    +0.000 C 
BRANCH  16  17
ATOM     17  C   UNL     1       5.340   5.254  17.815  0.00  0.00    +0.000 A 
ATOM     18  C   UNL     1       5.726   6.381  17.080  0.00  0.00    +0.000 A 
ATOM     19  F   UNL     1       4.966   6.799  16.052  0.00  0.00    +0.000 F 
ATOM     20  C   UNL     1       6.865   7.110  17.417  0.00  0.00    +0.000 A 
ATOM     21  F   UNL     1       7.203   8.192  16.702  0.00  0.00    +0.000 F 
ATOM     22  C   UNL     1       7.640   6.728  18.503  0.00  0.00    +0.000 A 
ATOM     23  F   UNL     1       8.728   7.439  18.840  0.00  0.00    +0.000 F 
ATOM     24  C   UNL     1       7.270   5.622  19.253  0.00  0.00    +0.000 A 
ATOM     25  F   UNL     1       7.996   5.268  20.327  0.00  0.00    +0.000 F 
ATOM     26  C   UNL     1       6.136   4.897  18.913  0.00  0.00    +0.000 A 
ATOM     27  F   UNL     1       5.773   3.855  19.679  0.00  0.00    +0.000 F 
ENDBRANCH  16  17
ENDBRANCH   6  16
TORSDOF 7
ENDMDL
MODEL 3
REMARK VINA RESULT:      -7.2      0.115      2.215
REMARK  Name = 
REMARK  7 active torsions:
REMARK  status: ('A' for Active; 'I' for Inactive)
REMARK    1  A    between atoms: O_1  and  C_2
REMARK    2  A    between atoms: C_2  and  C_3
REMARK    3  A    between atoms: C_4  and  O_5
REMARK    4  A    between atoms: C_6  and  O_7
REMARK    5  A    between atoms: C_8  and  O_9
REMARK    6  A    between atoms: N_11  and  C_12
REMARK    7  A    between atoms: C_12  and  C_13
REMARK                            x       y       z     vdW  Elec       q    Type
REMARK                         _______ _______ _______ _____ _____    ______ ____
ROOT
ATOM      1  C   UNL     1       2.078   4.026  19.405  0.00  0.00    +0.000 C 
ATOM      2  C   UNL     1       3.094   3.161  20.188  0.00  0.00    +0.000 C 
ATOM      3  C   UNL     1       3.998   2.337  19.257  0.00  0.00    +0.000 C 
ATOM      4  C   UNL     1       4.629   3.195  18.153  0.00  0.00    +0.000 C 
ATOM      5  C   UNL     1       3.620   4.164  17.499  0.00  0.00    +0.000 C 
ATOM      6  N   UNL     1       2.737   4.925  18.408  0.00  0.00    +0.000 NA
ENDROOT
BRANCH   2   7
ATOM      7  O   UNL     1       2.403   2.321  21.122  0.00  0.00    +0.000 OA
ATOM      8  H   UNL     1       1.952   2.915  21.754  0.00  0.00    +0.000 HD
ENDBRANCH   2   7
BRANCH   3   9
ATOM      9  O   UNL     1       5.012   1.698  20.054  0.00  0.00    +0.000 OA
ATOM     10  H   UNL     1       4.707   0.785  20.220  0.00  0.00    +0.000 HD
ENDBRANCH   3   9
BRANCH   4  11
ATOM     11  O   UNL     1       5.784   3.884  18.653  0.00  0.00    +0.000 OA
ATOM     12  H   UNL     1       5.757   4.814  18.377  0.00  0.00    +0.000 HD
ENDBRANCH   4  11
BRANCH   1  13
ATOM     13  C   UNL     1       0.926   3.168  18.804  0.00  0.00    +0.000 C 
BRANCH  13  14
ATOM     14  O   UNL     1      -0.029   2.735  19.769  0.00  0.00    +0.000 OA
ATOM     15  H   UNL     1      -0.178   1.786  19.609  0.00  0.00    +0.000 HD
ENDBRANCH  13  14
ENDBRANCH   1  13
BRANCH   6  16
ATOM     16  C   UNL     1       3.369   6.075  19.081  0.00  0.00    +0.000 C 
BRANCH  16  17
ATOM     17  C   UNL     1       2.510   7.299  19.252  0.00  0.00    +0.000 A 
ATOM     18  C   UNL     1       2.379   8.259  18.243  0.00  0.00    +0.000 A 
ATOM     19  F   UNL     1       3.049   8.107  17.086  0.00  0.00    +0.000 F 
ATOM     20  C   UNL     1       1.532   9.355  18.392  0.00  0.00    +0.000 A 
ATOM     21  F   UNL     1       1.416  10.252  17.403  0.00  0.00    +0.000 F 
ATOM     22  C   UNL     1       0.792   9.510  19.556  0.00  0.00    +0.000 A 
ATOM     23  F   UNL     1      -0.039  10.556  19.695  0.00  0.00    +0.000 F 
ATOM     24  C   UNL     1       0.897   8.565  20.565  0.00  0.00    +0.000 A 
ATOM     25  F   UNL     1       0.157   8.690  21.680  0.00  0.00    +0.000 F 
ATOM     26  C   UNL     1       1.744   7.476  20.414  0.00  0.00    +0.000 A 
ATOM     27  F   UNL     1       1.798   6.550  21.386  0.00  0.00    +0.000 F 
ENDBRANCH  16  17
ENDBRANCH   6  16
TORSDOF 7
ENDMDL
MODEL 4
REMARK VINA RESULT:      -7.2      3.782      5.689
REMARK  Name = 
REMARK  7 active torsions:
REMARK  status: ('A' for Active; 'I' for Inactive)
REMARK    1  A    between atoms: O_1  and  C_2
REMARK    2  A    between atoms: C_2  and  C_3
REMARK    3  A    between atoms: C_4  and  O_5
REMARK    4  A    between atoms: C_6  and  O_7
REMARK    5  A    between atoms: C_8  and  O_9
REMARK    6  A    between atoms: N_11  and  C_12
REMARK    7  A    between atoms: C_12  and  C_13
REMARK                            x       y       z     vdW  Elec       q    Type
REMARK                         _______ _______ _______ _____ _____    ______ ____
ROOT
ATOM      1  C   UNL     1       6.456   5.353  17.547  0.00  0.00    +0.000 C 
ATOM      2  C   UNL     1       6.890   6.032  16.226  0.00  0.00    +0.000 C 
ATOM      3  C   UNL     1       7.384   5.016  15.184  0.00  0.00    +0.000 C 
ATOM      4  C   UNL     1       6.399   3.855  14.995  0.00  0.00    +0.000 C 
ATOM      5  C   UNL     1       5.860   3.304  16.332  0.00  0.00    +0.000 C 
ATOM      6  N   UNL     1       5.419   4.296  17.336  0.00  0.00    +0.000 NA
ENDROOT
BRANCH   2   7
ATOM      7  O   UNL     1       7.884   7.030  16.494  0.00  0.00    +0.000 OA
ATOM      8  H   UNL     1       8.592   6.591  17.004  0.00  0.00    +0.000 HD
ENDBRANCH   2   7
BRANCH   3   9
ATOM      9  O   UNL     1       7.606   5.709  13.942  0.00  0.00    +0.000 OA
ATOM     10  H   UNL     1       8.109   5.100  13.366  0.00  0.00    +0.000 HD
ENDBRANCH   3   9
BRANCH   4  11
ATOM     11  O   UNL     1       5.338   4.238  14.108  0.00  0.00    +0.000 OA
ATOM     12  H   UNL     1       5.472   5.152  13.812  0.00  0.00    +0.000 HD
ENDBRANCH   4  11
BRANCH   1  13
ATOM     13  C   UNL     1       7.678   4.870  18.381  0.00  0.00    +0.000 C 
BRANCH  13  14
ATOM     14  O   UNL     1       8.189   5.856  19.274  0.00  0.00    +0.000 OA
ATOM     15  H   UNL     1       8.011   5.536  20.176  0.00  0.00    +0.000 HD
ENDBRANCH  13  14
ENDBRANCH   1  13
BRANCH   6  16
ATOM     16  C   UNL     1       4.100   4.903  17.082  0.00  0.00    +0.000 C 
BRANCH  16  17
ATOM     17  C   UNL     1       2.998   4.525  18.035  0.00  0.00    +0.000 A 
ATOM     18  C   UNL     1       2.219   3.378  17.849  0.00  0.00    +0.000 A 
ATOM     19  F   UNL     1       2.437   2.590  16.782  0.00  0.00    +0.000 F 
ATOM     20  C   UNL     1       1.246   3.007  18.774  0.00  0.00    +0.000 A 
ATOM     21  F   UNL     1       0.523   1.895  18.577  0.00  0.00    +0.000 F 
ATOM     22  C   UNL     1       1.035   3.776  19.910  0.00  0.00    +0.000 A 
ATOM     23  F   UNL     1       0.109   3.411  20.812  0.00  0.00    +0.000 F 
ATOM     24  C   UNL     1       1.803   4.911  20.121  0.00  0.00    +0.000 A 
ATOM     25  F   UNL     1       1.628   5.640  21.236  0.00  0.00    +0.000 F 
ATOM     26  C   UNL     1       2.770   5.279  19.196  0.00  0.00    +0.000 A 
ATOM     27  F   UNL     1       3.532   6.358  19.442  0.00  0.00    +0.000 F 
ENDBRANCH  16  17
ENDBRANCH   6  16
TORSDOF 7
ENDMDL
MODEL 5
REMARK VINA RESULT:      -7.2      3.265      4.839
REMARK  Name = 
REMARK  7 active torsions:
REMARK  status: ('A' for Active; 'I' for Inactive)
REMARK    1  A    between atoms: O_1  and  C_2
REMARK    2  A    between atoms: C_2  and  C_3
REMARK    3  A    between atoms: C_4  and  O_5
REMARK    4  A    between atoms: C_6  and  O_7
REMARK    5  A    between atoms: C_8  and  O_9
REMARK    6  A    between atoms: N_11  and  C_12
REMARK    7  A    between atoms: C_12  and  C_13
REMARK                            x       y       z     vdW  Elec       q    Type
REMARK                         _______ _______ _______ _____ _____    ______ ____
ROOT
ATOM      1  C   UNL     1       2.748   5.631  19.325  0.00  0.00    +0.000 C 
ATOM      2  C   UNL     1       2.589   4.425  20.283  0.00  0.00    +0.000 C 
ATOM      3  C   UNL     1       1.328   3.601  19.978  0.00  0.00    +0.000 C 
ATOM      4  C   UNL     1       1.220   3.236  18.491  0.00  0.00    +0.000 C 
ATOM      5  C   UNL     1       1.542   4.423  17.559  0.00  0.00    +0.000 C 
ATOM      6  N   UNL     1       2.741   5.225  17.886  0.00  0.00    +0.000 NA
ENDROOT
BRANCH   2   7
ATOM      7  O   UNL     1       2.600   4.878  21.643  0.00  0.00    +0.000 OA
ATOM      8  H   UNL     1       3.102   5.716  21.656  0.00  0.00    +0.000 HD
ENDBRANCH   2   7
BRANCH   3   9
ATOM      9  O   UNL     1       1.348   2.418  20.797  0.00  0.00    +0.000 OA
ATOM     10  H   UNL     1       1.127   1.666  20.213  0.00  0.00    +0.000 HD
ENDBRANCH   3   9
BRANCH   4  11
ATOM     11  O   UNL     1       2.032   2.090  18.197  0.00  0.00    +0.000 OA
ATOM     12  H   UNL     1       2.872   2.150  18.678  0.00  0.00    +0.000 HD
ENDBRANCH   4  11
BRANCH   1  13
ATOM     13  C   UNL     1       1.742   6.772  19.656  0.00  0.00    +0.000 C 
BRANCH  13  14
ATOM     14  O   UNL     1       2.023   7.446  20.879  0.00  0.00    +0.000 OA
ATOM     15  H   UNL     1       1.560   8.301  20.841  0.00  0.00    +0.000 HD
ENDBRANCH  13  14
ENDBRANCH   1  13
BRANCH   6  16
ATOM     16  C   UNL     1       4.028   4.612  17.510  0.00  0.00    +0.000 C 
BRANCH  16  17
ATOM     17  C   UNL     1       5.267   5.371  17.905  0.00  0.00    +0.000 A 
ATOM     18  C   UNL     1       6.076   4.965  18.972  0.00  0.00    +0.000 A 
ATOM     19  F   UNL     1       5.739   3.878  19.688  0.00  0.00    +0.000 F 
ATOM     20  C   UNL     1       7.253   5.641  19.285  0.00  0.00    +0.000 A 
ATOM     21  F   UNL     1       8.015   5.222  20.306  0.00  0.00    +0.000 F 
ATOM     22  C   UNL     1       7.648   6.737  18.532  0.00  0.00    +0.000 A 
ATOM     23  F   UNL     1       8.792   7.379  18.821  0.00  0.00    +0.000 F 
ATOM     24  C   UNL     1       6.868   7.150  17.462  0.00  0.00    +0.000 A 
ATOM     25  F   UNL     1       7.264   8.189  16.707  0.00  0.00    +0.000 F 
ATOM     26  C   UNL     1       5.695   6.476  17.154  0.00  0.00    +0.000 A 
ATOM     27  F   UNL     1       4.977   6.867  16.088  0.00  0.00    +0.000 F 
ENDBRANCH  16  17
ENDBRANCH   6  16
TORSDOF 7
ENDMDL
MODEL 6
REMARK VINA RESULT:      -7.1      1.213      2.621
REMARK  Name = 
REMARK  7 active torsions:
REMARK  status: ('A' for Active; 'I' for Inactive)
REMARK    1  A    between atoms: O_1  and  C_2
REMARK    2  A    between atoms: C_2  and  C_3
REMARK    3  A    between atoms: C_4  and  O_5
REMARK    4  A    between atoms: C_6  and  O_7
REMARK    5  A    between atoms: C_8  and  O_9
REMARK    6  A    between atoms: N_11  and  C_12
REMARK    7  A    between atoms: C_12  and  C_13
REMARK                            x       y       z     vdW  Elec       q    Type
REMARK                         _______ _______ _______ _____ _____    ______ ____
ROOT
ATOM      1  C   UNL     1       2.397   3.846  20.321  0.00  0.00    +0.000 C 
ATOM      2  C   UNL     1       3.529   2.925  19.803  0.00  0.00    +0.000 C 
ATOM      3  C   UNL     1       3.115   2.144  18.546  0.00  0.00    +0.000 C 
ATOM      4  C   UNL     1       2.510   3.056  17.470  0.00  0.00    +0.000 C 
ATOM      5  C   UNL     1       1.502   4.073  18.046  0.00  0.00    +0.000 C 
ATOM      6  N   UNL     1       1.903   4.792  19.274  0.00  0.00    +0.000 NA
ENDROOT
BRANCH   2   7
ATOM      7  O   UNL     1       3.955   2.042  20.849  0.00  0.00    +0.000 OA
ATOM      8  H   UNL     1       4.908   1.879  20.708  0.00  0.00    +0.000 HD
ENDBRANCH   2   7
BRANCH   3   9
ATOM      9  O   UNL     1       4.269   1.449  18.041  0.00  0.00    +0.000 OA
ATOM     10  H   UNL     1       5.024   1.710  18.604  0.00  0.00    +0.000 HD
ENDBRANCH   3   9
BRANCH   4  11
ATOM     11  O   UNL     1       3.549   3.701  16.719  0.00  0.00    +0.000 OA
ATOM     12  H   UNL     1       4.135   3.033  16.329  0.00  0.00    +0.000 HD
ENDBRANCH   4  11
BRANCH   1  13
ATOM     13  C   UNL     1       1.263   3.038  21.016  0.00  0.00    +0.000 C 
BRANCH  13  14
ATOM     14  O   UNL     1       1.631   2.512  22.289  0.00  0.00    +0.000 OA
ATOM     15  H   UNL     1       0.927   1.892  22.550  0.00  0.00    +0.000 HD
ENDBRANCH  13  14
ENDBRANCH   1  13
BRANCH   6  16
ATOM     16  C   UNL     1       2.862   5.894  19.072  0.00  0.00    +0.000 C 
BRANCH  16  17
ATOM     17  C   UNL     1       2.315   7.288  19.224  0.00  0.00    +0.000 A 
ATOM     18  C   UNL     1       2.439   8.246  18.212  0.00  0.00    +0.000 A 
ATOM     19  F   UNL     1       3.080   7.933  17.072  0.00  0.00    +0.000 F 
ATOM     20  C   UNL     1       1.873   9.512  18.341  0.00  0.00    +0.000 A 
ATOM     21  F   UNL     1       1.997  10.406  17.350  0.00  0.00    +0.000 F 
ATOM     22  C   UNL     1       1.165   9.845  19.487  0.00  0.00    +0.000 A 
ATOM     23  F   UNL     1       0.603  11.059  19.607  0.00  0.00    +0.000 F 
ATOM     24  C   UNL     1       1.019   8.907  20.499  0.00  0.00    +0.000 A 
ATOM     25  F   UNL     1       0.305   9.211  21.595  0.00  0.00    +0.000 F 
ATOM     26  C   UNL     1       1.587   7.647  20.367  0.00  0.00    +0.000 A 
ATOM     27  F   UNL     1       1.396   6.741  21.340  0.00  0.00    +0.000 F 
ENDBRANCH  16  17
ENDBRANCH   6  16
TORSDOF 7
ENDMDL
MODEL 7
REMARK VINA RESULT:      -7.1      2.811      4.514
REMARK  Name = 
REMARK  7 active torsions:
REMARK  status: ('A' for Active; 'I' for Inactive)
REMARK    1  A    between atoms: O_1  and  C_2
REMARK    2  A    between atoms: C_2  and  C_3
REMARK    3  A    between atoms: C_4  and  O_5
REMARK    4  A    between atoms: C_6  and  O_7
REMARK    5  A    between atoms: C_8  and  O_9
REMARK    6  A    between atoms: N_11  and  C_12
REMARK    7  A    between atoms: C_12  and  C_13
REMARK                            x       y       z     vdW  Elec       q    Type
REMARK                         _______ _______ _______ _____ _____    ______ ____
ROOT
ATOM      1  C   UNL     1       6.240   5.470  17.623  0.00  0.00    +0.000 C 
ATOM      2  C   UNL     1       6.769   6.060  16.293  0.00  0.00    +0.000 C 
ATOM      3  C   UNL     1       7.292   4.973  15.341  0.00  0.00    +0.000 C 
ATOM      4  C   UNL     1       6.285   3.829  15.160  0.00  0.00    +0.000 C 
ATOM      5  C   UNL     1       5.654   3.371  16.492  0.00  0.00    +0.000 C 
ATOM      6  N   UNL     1       5.186   4.430  17.411  0.00  0.00    +0.000 NA
ENDROOT
BRANCH   2   7
ATOM      7  O   UNL     1       7.776   7.045  16.563  0.00  0.00    +0.000 OA
ATOM      8  H   UNL     1       7.838   7.608  15.768  0.00  0.00    +0.000 HD
ENDBRANCH   2   7
BRANCH   3   9
ATOM      9  O   UNL     1       7.605   5.587  14.077  0.00  0.00    +0.000 OA
ATOM     10  H   UNL     1       8.092   4.920  13.553  0.00  0.00    +0.000 HD
ENDBRANCH   3   9
BRANCH   4  11
ATOM     11  O   UNL     1       5.288   4.188  14.192  0.00  0.00    +0.000 OA
ATOM     12  H   UNL     1       4.635   3.475  14.114  0.00  0.00    +0.000 HD
ENDBRANCH   4  11
BRANCH   1  13
ATOM     13  C   UNL     1       7.398   5.003  18.553  0.00  0.00    +0.000 C 
BRANCH  13  14
ATOM     14  O   UNL     1       7.201   5.338  19.924  0.00  0.00    +0.000 OA
ATOM     15  H   UNL     1       7.301   4.513  20.431  0.00  0.00    +0.000 HD
ENDBRANCH  13  14
ENDBRANCH   1  13
BRANCH   6  16
ATOM     16  C   UNL     1       3.902   5.057  17.046  0.00  0.00    +0.000 C 
BRANCH  16  17
ATOM     17  C   UNL     1       3.120   5.676  18.172  0.00  0.00    +0.000 A 
ATOM     18  C   UNL     1       2.707   4.933  19.284  0.00  0.00    +0.000 A 
ATOM     19  F   UNL     1       2.994   3.621  19.352  0.00  0.00    +0.000 F 
ATOM     20  C   UNL     1       2.039   5.534  20.348  0.00  0.00    +0.000 A 
ATOM     21  F   UNL     1       1.666   4.799  21.406  0.00  0.00    +0.000 F 
ATOM     22  C   UNL     1       1.774   6.896  20.325  0.00  0.00    +0.000 A 
ATOM     23  F   UNL     1       1.145   7.481  21.358  0.00  0.00    +0.000 F 
ATOM     24  C   UNL     1       2.184   7.655  19.239  0.00  0.00    +0.000 A 
ATOM     25  F   UNL     1       1.962   8.980  19.226  0.00  0.00    +0.000 F 
ATOM     26  C   UNL     1       2.848   7.052  18.179  0.00  0.00    +0.000 A 
ATOM     27  F   UNL     1       3.274   7.813  17.157  0.00  0.00    +0.000 F 
ENDBRANCH  16  17
ENDBRANCH   6  16
TORSDOF 7
ENDMDL
MODEL 8
REMARK VINA RESULT:      -7.1      2.842      4.875
REMARK  Name = 
REMARK  7 active torsions:
REMARK  status: ('A' for Active; 'I' for Inactive)
REMARK    1  A    between atoms: O_1  and  C_2
REMARK    2  A    between atoms: C_2  and  C_3
REMARK    3  A    between atoms: C_4  and  O_5
REMARK    4  A    between atoms: C_6  and  O_7
REMARK    5  A    between atoms: C_8  and  O_9
REMARK    6  A    between atoms: N_11  and  C_12
REMARK    7  A    between atoms: C_12  and  C_13
REMARK                            x       y       z     vdW  Elec       q    Type
REMARK                         _______ _______ _______ _____ _____    ______ ____
ROOT
ATOM      1  C   UNL     1       6.251   5.384  17.656  0.00  0.00    +0.000 C 
ATOM      2  C   UNL     1       6.775   6.006  16.340  0.00  0.00    +0.000 C 
ATOM      3  C   UNL     1       7.275   4.942  15.350  0.00  0.00    +0.000 C 
ATOM      4  C   UNL     1       6.253   3.816  15.144  0.00  0.00    +0.000 C 
ATOM      5  C   UNL     1       5.628   3.326  16.468  0.00  0.00    +0.000 C 
ATOM      6  N   UNL     1       5.182   4.364  17.423  0.00  0.00    +0.000 NA
ENDROOT
BRANCH   2   7
ATOM      7  O   UNL     1       7.797   6.970  16.629  0.00  0.00    +0.000 OA
ATOM      8  H   UNL     1       8.650   6.553  16.399  0.00  0.00    +0.000 HD
ENDBRANCH   2   7
BRANCH   3   9
ATOM      9  O   UNL     1       7.585   5.589  14.102  0.00  0.00    +0.000 OA
ATOM     10  H   UNL     1       8.541   5.793  14.121  0.00  0.00    +0.000 HD
ENDBRANCH   3   9
BRANCH   4  11
ATOM     11  O   UNL     1       5.251   4.217  14.197  0.00  0.00    +0.000 OA
ATOM     12  H   UNL     1       5.374   3.732  13.366  0.00  0.00    +0.000 HD
ENDBRANCH   4  11
BRANCH   1  13
ATOM     13  C   UNL     1       7.411   4.875  18.561  0.00  0.00    +0.000 C 
BRANCH  13  14
ATOM     14  O   UNL     1       7.366   5.385  19.891  0.00  0.00    +0.000 OA
ATOM     15  H   UNL     1       8.062   6.062  19.954  0.00  0.00    +0.000 HD
ENDBRANCH  13  14
ENDBRANCH   1  13
BRANCH   6  16
ATOM     16  C   UNL     1       3.903   5.017  17.089  0.00  0.00    +0.000 C 
BRANCH  16  17
ATOM     17  C   UNL     1       3.193   5.709  18.221  0.00  0.00    +0.000 A 
ATOM     18  C   UNL     1       2.899   7.077  18.185  0.00  0.00    +0.000 A 
ATOM     19  F   UNL     1       3.272   7.811  17.122  0.00  0.00    +0.000 F 
ATOM     20  C   UNL     1       2.186   7.690  19.212  0.00  0.00    +0.000 A 
ATOM     21  F   UNL     1       1.908   9.000  19.145  0.00  0.00    +0.000 F 
ATOM     22  C   UNL     1       1.747   6.945  20.297  0.00  0.00    +0.000 A 
ATOM     23  F   UNL     1       1.044   7.531  21.280  0.00  0.00    +0.000 F 
ATOM     24  C   UNL     1       2.016   5.586  20.349  0.00  0.00    +0.000 A 
ATOM     25  F   UNL     1       1.563   4.852  21.379  0.00  0.00    +0.000 F 
ATOM     26  C   UNL     1       2.729   4.978  19.325  0.00  0.00    +0.000 A 
ATOM     27  F   UNL     1       2.942   3.652  19.374  0.00  0.00    +0.000 F 
ENDBRANCH  16  17
ENDBRANCH   6  16
TORSDOF 7
ENDMDL
MODEL 9
REMARK VINA RESULT:      -7.0      1.221      1.446
REMARK  Name = 
REMARK  7 active torsions:
REMARK  status: ('A' for Active; 'I' for Inactive)
REMARK    1  A    between atoms: O_1  and  C_2
REMARK    2  A    between atoms: C_2  and  C_3
REMARK    3  A    between atoms: C_4  and  O_5
REMARK    4  A    between atoms: C_6  and  O_7
REMARK    5  A    between atoms: C_8  and  O_9
REMARK    6  A    between atoms: N_11  and  C_12
REMARK    7  A    between atoms: C_12  and  C_13
REMARK                            x       y       z     vdW  Elec       q    Type
REMARK                         _______ _______ _______ _____ _____    ______ ____
ROOT
ATOM      1  C   UNL     1       2.385   3.835  20.338  0.00  0.00    +0.000 C 
ATOM      2  C   UNL     1       3.535   2.965  19.775  0.00  0.00    +0.000 C 
ATOM      3  C   UNL     1       3.133   2.234  18.483  0.00  0.00    +0.000 C 
ATOM      4  C   UNL     1       2.504   3.182  17.453  0.00  0.00    +0.000 C 
ATOM      5  C   UNL     1       1.475   4.147  18.079  0.00  0.00    +0.000 C 
ATOM      6  N   UNL     1       1.865   4.817  19.338  0.00  0.00    +0.000 NA
ENDROOT
BRANCH   2   7
ATOM      7  O   UNL     1       3.986   2.044  20.777  0.00  0.00    +0.000 OA
ATOM      8  H   UNL     1       4.917   2.269  20.967  0.00  0.00    +0.000 HD
ENDBRANCH   2   7
BRANCH   3   9
ATOM      9  O   UNL     1       4.301   1.590  17.943  0.00  0.00    +0.000 OA
ATOM     10  H   UNL     1       4.503   0.835  18.530  0.00  0.00    +0.000 HD
ENDBRANCH   3   9
BRANCH   4  11
ATOM     11  O   UNL     1       3.525   3.884  16.730  0.00  0.00    +0.000 OA
ATOM     12  H   UNL     1       4.007   4.473  17.331  0.00  0.00    +0.000 HD
ENDBRANCH   4  11
BRANCH   1  13
ATOM     13  C   UNL     1       1.272   2.970  20.999  0.00  0.00    +0.000 C 
BRANCH  13  14
ATOM     14  O   UNL     1       1.586   2.546  22.322  0.00  0.00    +0.000 OA
ATOM     15  H   UNL     1       2.554   2.597  22.411  0.00  0.00    +0.000 HD
ENDBRANCH  13  14
ENDBRANCH   1  13
BRANCH   6  16
ATOM     16  C   UNL     1       2.798   5.949  19.185  0.00  0.00    +0.000 C 
BRANCH  16  17
ATOM     17  C   UNL     1       2.196   7.325  19.273  0.00  0.00    +0.000 A 
ATOM     18  C   UNL     1       1.517   7.765  20.415  0.00  0.00    +0.000 A 
ATOM     19  F   UNL     1       1.374   6.938  21.466  0.00  0.00    +0.000 F 
ATOM     20  C   UNL     1       1.020   9.063  20.506  0.00  0.00    +0.000 A 
ATOM     21  F   UNL     1       0.384   9.461  21.617  0.00  0.00    +0.000 F 
ATOM     22  C   UNL     1       1.197   9.952  19.455  0.00  0.00    +0.000 A 
ATOM     23  F   UNL     1       0.734  11.209  19.548  0.00  0.00    +0.000 F 
ATOM     24  C   UNL     1       1.877   9.542  18.318  0.00  0.00    +0.000 A 
ATOM     25  F   UNL     1       2.082  10.408  17.312  0.00  0.00    +0.000 F 
ATOM     26  C   UNL     1       2.369   8.247  18.230  0.00  0.00    +0.000 A 
ATOM     27  F   UNL     1       3.062   7.884  17.138  0.00  0.00    +0.000 F 
ENDBRANCH  16  17
ENDBRANCH   6  16
TORSDOF 7
ENDMDL
