MODEL 1
REMARK VINA RESULT:      -8.5      0.000      0.000
REMARK  Name = 
REMARK  7 active torsions:
REMARK  status: ('A' for Active; 'I' for Inactive)
REMARK    1  A    between atoms: C_1  and  C_2
REMARK    2  A    between atoms: C_6  and  C_7
REMARK    3  A    between atoms: N_13  and  C_14
REMARK    4  A    between atoms: C_14  and  C_15
REMARK    5  A    between atoms: N_17  and  C_18
REMARK    6  A    between atoms: C_18  and  C_19
REMARK    7  A    between atoms: C_19  and  C_20
REMARK                            x       y       z     vdW  Elec       q    Type
REMARK                         _______ _______ _______ _____ _____    ______ ____
ROOT
ATOM      1  C   UNL     1       6.278   4.730  15.294  0.00  0.00    +0.000 A 
ATOM      2  N   UNL     1       7.237   5.618  15.616  0.00  0.00    +0.000 NA
ATOM      3  S   UNL     1       7.089   6.054  17.215  0.00  0.00    +0.000 S 
ATOM      4  C   UNL     1       5.766   5.066  17.537  0.00  0.00    +0.000 A 
ATOM      5  C   UNL     1       5.087   4.929  18.784  0.00  0.00    +0.000 A 
ATOM      6  O   UNL     1       5.325   5.575  19.803  0.00  0.00    +0.000 OA
ATOM      7  N   UNL     1       4.087   3.964  18.729  0.00  0.00    +0.000 N 
ATOM      8  C   UNL     1       3.784   3.306  17.547  0.00  0.00    +0.000 A 
ATOM      9  N   UNL     1       4.368   3.453  16.401  0.00  0.00    +0.000 NA
ATOM     10  C   UNL     1       5.428   4.380  16.406  0.00  0.00    +0.000 A 
ENDROOT
BRANCH   1  16
ATOM     11  C   UNL     1       3.481   3.276  11.402  0.00  0.00    +0.000 C 
ATOM     12  C   UNL     1       4.837   3.515  11.998  0.00  0.00    +0.000 A 
ATOM     13  C   UNL     1       6.005   3.251  11.278  0.00  0.00    +0.000 A 
ATOM     14  C   UNL     1       7.253   3.480  11.856  0.00  0.00    +0.000 A 
ATOM     15  C   UNL     1       7.344   3.966  13.165  0.00  0.00    +0.000 A 
ATOM     16  C   UNL     1       6.186   4.226  13.912  0.00  0.00    +0.000 A 
ATOM     17  C   UNL     1       4.939   4.003  13.309  0.00  0.00    +0.000 A 
ENDBRANCH   1  16
BRANCH   7  18
ATOM     18  C   UNL     1       3.383   3.617  19.952  0.00  0.00    +0.000 C 
BRANCH  18  19
ATOM     19  C   UNL     1       2.168   4.516  20.171  0.00  0.00    +0.000 C 
ATOM     20  O   UNL     1       1.028   4.101  19.968  0.00  0.00    +0.000 OA
ATOM     21  N   UNL     1       2.437   5.810  20.568  0.00  0.00    +0.000 N 
ATOM     22  H   UNL     1       3.378   6.174  20.430  0.00  0.00    +0.000 HD
BRANCH  21  23
ATOM     23  C   UNL     1       1.336   6.733  20.826  0.00  0.00    +0.000 C 
BRANCH  23  24
ATOM     24  C   UNL     1       1.666   8.188  20.490  0.00  0.00    +0.000 C 
BRANCH  24  25
ATOM     25  C   UNL     1       0.732   9.174  21.160  0.00  0.00    +0.000 A 
ATOM     26  C   UNL     1       0.041  10.132  20.399  0.00  0.00    +0.000 A 
ATOM     27  C   UNL     1      -0.849  11.022  21.012  0.00  0.00    +0.000 A 
ATOM     28  C   UNL     1      -1.048  10.965  22.388  0.00  0.00    +0.000 A 
ATOM     29 CL   UNL     1      -2.163  12.041  23.136  0.00  0.00    +0.000 Cl
ATOM     30  C   UNL     1      -0.354  10.035  23.161  0.00  0.00    +0.000 A 
ATOM     31  C   UNL     1       0.536   9.147  22.549  0.00  0.00    +0.000 A 
ENDBRANCH  24  25
ENDBRANCH  23  24
ENDBRANCH  21  23
ENDBRANCH  18  19
ENDBRANCH   7  18
TORSDOF 6
ENDMDL
MODEL 2
REMARK VINA RESULT:      -8.3      4.620      8.681
REMARK  Name = 
REMARK  7 active torsions:
REMARK  status: ('A' for Active; 'I' for Inactive)
REMARK    1  A    between atoms: C_1  and  C_2
REMARK    2  A    between atoms: C_6  and  C_7
REMARK    3  A    between atoms: N_13  and  C_14
REMARK    4  A    between atoms: C_14  and  C_15
REMARK    5  A    between atoms: N_17  and  C_18
REMARK    6  A    between atoms: C_18  and  C_19
REMARK    7  A    between atoms: C_19  and  C_20
REMARK                            x       y       z     vdW  Elec       q    Type
REMARK                         _______ _______ _______ _____ _____    ______ ____
ROOT
ATOM      1  C   UNL     1       1.757   7.059  20.296  0.00  0.00    +0.000 A 
ATOM      2  N   UNL     1       1.447   6.060  21.145  0.00  0.00    +0.000 NA
ATOM      3  S   UNL     1       2.292   4.687  20.732  0.00  0.00    +0.000 S 
ATOM      4  C   UNL     1       3.108   5.375  19.432  0.00  0.00    +0.000 A 
ATOM      5  C   UNL     1       4.054   4.731  18.581  0.00  0.00    +0.000 A 
ATOM      6  O   UNL     1       4.363   3.541  18.625  0.00  0.00    +0.000 OA
ATOM      7  N   UNL     1       4.606   5.611  17.655  0.00  0.00    +0.000 N 
ATOM      8  C   UNL     1       4.183   6.928  17.572  0.00  0.00    +0.000 A 
ATOM      9  N   UNL     1       3.297   7.512  18.314  0.00  0.00    +0.000 NA
ATOM     10  C   UNL     1       2.739   6.685  19.308  0.00  0.00    +0.000 A 
ENDROOT
BRANCH   1  16
ATOM     11  C   UNL     1      -0.832  10.303  23.098  0.00  0.00    +0.000 C 
ATOM     12  C   UNL     1      -0.163   9.970  21.797  0.00  0.00    +0.000 A 
ATOM     13  C   UNL     1      -0.170  10.866  20.725  0.00  0.00    +0.000 A 
ATOM     14  C   UNL     1       0.458  10.530  19.526  0.00  0.00    +0.000 A 
ATOM     15  C   UNL     1       1.091   9.291  19.386  0.00  0.00    +0.000 A 
ATOM     16  C   UNL     1       1.099   8.369  20.443  0.00  0.00    +0.000 A 
ATOM     17  C   UNL     1       0.475   8.730  21.647  0.00  0.00    +0.000 A 
ENDBRANCH   1  16
BRANCH   7  18
ATOM     18  C   UNL     1       5.677   5.139  16.794  0.00  0.00    +0.000 C 
BRANCH  18  19
ATOM     19  C   UNL     1       6.887   6.068  16.847  0.00  0.00    +0.000 C 
ATOM     20  O   UNL     1       7.623   6.207  15.872  0.00  0.00    +0.000 OA
ATOM     21  N   UNL     1       7.113   6.698  18.055  0.00  0.00    +0.000 N 
ATOM     22  H   UNL     1       6.664   6.323  18.888  0.00  0.00    +0.000 HD
BRANCH  21  23
ATOM     23  C   UNL     1       8.233   7.624  18.190  0.00  0.00    +0.000 C 
BRANCH  23  24
ATOM     24  C   UNL     1       7.959   9.005  17.593  0.00  0.00    +0.000 C 
BRANCH  24  25
ATOM     25  C   UNL     1       8.663  10.120  18.339  0.00  0.00    +0.000 A 
ATOM     26  C   UNL     1       8.753  11.405  17.779  0.00  0.00    +0.000 A 
ATOM     27  C   UNL     1       9.372  12.446  18.482  0.00  0.00    +0.000 A 
ATOM     28  C   UNL     1       9.911  12.207  19.742  0.00  0.00    +0.000 A 
ATOM     29 CL   UNL     1      10.648  13.493  20.616  0.00  0.00    +0.000 Cl
ATOM     30  C   UNL     1       9.849  10.932  20.303  0.00  0.00    +0.000 A 
ATOM     31  C   UNL     1       9.232   9.892  19.601  0.00  0.00    +0.000 A 
ENDBRANCH  24  25
ENDBRANCH  23  24
ENDBRANCH  21  23
ENDBRANCH  18  19
ENDBRANCH   7  18
TORSDOF 6
ENDMDL
MODEL 3
REMARK VINA RESULT:      -8.3      1.153      1.347
REMARK  Name = 
REMARK  7 active torsions:
REMARK  status: ('A' for Active; 'I' for Inactive)
REMARK    1  A    between atoms: C_1  and  C_2
REMARK    2  A    between atoms: C_6  and  C_7
REMARK    3  A    between atoms: N_13  and  C_14
REMARK    4  A    between atoms: C_14  and  C_15
REMARK    5  A    between atoms: N_17  and  C_18
REMARK    6  A    between atoms: C_18  and  C_19
REMARK    7  A    between atoms: C_19  and  C_20
REMARK                            x       y       z     vdW  Elec       q    Type
REMARK                         _______ _______ _______ _____ _____    ______ ____
ROOT
ATOM      1  C   UNL     1       6.693   4.434  15.724  0.00  0.00    +0.000 A 
ATOM      2  N   UNL     1       7.860   4.718  16.334  0.00  0.00    +0.000 NA
ATOM      3  S   UNL     1       7.637   4.764  17.983  0.00  0.00    +0.000 S 
ATOM      4  C   UNL     1       5.998   4.390  17.943  0.00  0.00    +0.000 A 
ATOM      5  C   UNL     1       5.127   4.251  19.064  0.00  0.00    +0.000 A 
ATOM      6  O   UNL     1       5.432   4.459  20.237  0.00  0.00    +0.000 OA
ATOM      7  N   UNL     1       3.849   3.852  18.684  0.00  0.00    +0.000 N 
ATOM      8  C   UNL     1       3.507   3.702  17.349  0.00  0.00    +0.000 A 
ATOM      9  N   UNL     1       4.280   3.864  16.323  0.00  0.00    +0.000 NA
ATOM     10  C   UNL     1       5.605   4.217  16.646  0.00  0.00    +0.000 A 
ENDROOT
BRANCH   1  16
ATOM     11  C   UNL     1       4.391   2.910  11.546  0.00  0.00    +0.000 C 
ATOM     12  C   UNL     1       5.524   3.644  12.200  0.00  0.00    +0.000 A 
ATOM     13  C   UNL     1       6.529   4.254  11.443  0.00  0.00    +0.000 A 
ATOM     14  C   UNL     1       7.572   4.929  12.075  0.00  0.00    +0.000 A 
ATOM     15  C   UNL     1       7.625   4.993  13.472  0.00  0.00    +0.000 A 
ATOM     16  C   UNL     1       6.636   4.377  14.253  0.00  0.00    +0.000 A 
ATOM     17  C   UNL     1       5.586   3.715  13.598  0.00  0.00    +0.000 A 
ENDBRANCH   1  16
BRANCH   7  18
ATOM     18  C   UNL     1       2.876   3.548  19.719  0.00  0.00    +0.000 C 
BRANCH  18  19
ATOM     19  C   UNL     1       2.022   4.767  20.059  0.00  0.00    +0.000 C 
ATOM     20  O   UNL     1       0.826   4.651  20.320  0.00  0.00    +0.000 OA
ATOM     21  N   UNL     1       2.666   5.988  20.014  0.00  0.00    +0.000 N 
ATOM     22  H   UNL     1       3.549   6.051  19.513  0.00  0.00    +0.000 HD
BRANCH  21  23
ATOM     23  C   UNL     1       1.934   7.206  20.349  0.00  0.00    +0.000 C 
BRANCH  23  24
ATOM     24  C   UNL     1       1.886   8.223  19.209  0.00  0.00    +0.000 C 
BRANCH  24  25
ATOM     25  C   UNL     1       0.976   9.397  19.504  0.00  0.00    +0.000 A 
ATOM     26  C   UNL     1       0.707  10.357  18.514  0.00  0.00    +0.000 A 
ATOM     27  C   UNL     1      -0.162  11.424  18.774  0.00  0.00    +0.000 A 
ATOM     28  C   UNL     1      -0.759  11.542  20.024  0.00  0.00    +0.000 A 
ATOM     29 CL   UNL     1      -1.847  12.838  20.334  0.00  0.00    +0.000 Cl
ATOM     30  C   UNL     1      -0.486  10.610  21.026  0.00  0.00    +0.000 A 
ATOM     31  C   UNL     1       0.382   9.546  20.766  0.00  0.00    +0.000 A 
ENDBRANCH  24  25
ENDBRANCH  23  24
ENDBRANCH  21  23
ENDBRANCH  18  19
ENDBRANCH   7  18
TORSDOF 6
ENDMDL
MODEL 4
REMARK VINA RESULT:      -8.2      0.951      1.021
REMARK  Name = 
REMARK  7 active torsions:
REMARK  status: ('A' for Active; 'I' for Inactive)
REMARK    1  A    between atoms: C_1  and  C_2
REMARK    2  A    between atoms: C_6  and  C_7
REMARK    3  A    between atoms: N_13  and  C_14
REMARK    4  A    between atoms: C_14  and  C_15
REMARK    5  A    between atoms: N_17  and  C_18
REMARK    6  A    between atoms: C_18  and  C_19
REMARK    7  A    between atoms: C_19  and  C_20
REMARK                            x       y       z     vdW  Elec       q    Type
REMARK                         _______ _______ _______ _____ _____    ______ ____
ROOT
ATOM      1  C   UNL     1       6.717   4.461  15.840  0.00  0.00    +0.000 A 
ATOM      2  N   UNL     1       7.823   4.754  16.549  0.00  0.00    +0.000 NA
ATOM      3  S   UNL     1       7.468   4.750  18.175  0.00  0.00    +0.000 S 
ATOM      4  C   UNL     1       5.848   4.339  17.993  0.00  0.00    +0.000 A 
ATOM      5  C   UNL     1       4.893   4.149  19.035  0.00  0.00    +0.000 A 
ATOM      6  O   UNL     1       5.097   4.332  20.234  0.00  0.00    +0.000 OA
ATOM      7  N   UNL     1       3.660   3.732  18.543  0.00  0.00    +0.000 N 
ATOM      8  C   UNL     1       3.431   3.610  17.182  0.00  0.00    +0.000 A 
ATOM      9  N   UNL     1       4.279   3.819  16.226  0.00  0.00    +0.000 NA
ATOM     10  C   UNL     1       5.564   4.193  16.664  0.00  0.00    +0.000 A 
ENDROOT
BRANCH   1  16
ATOM     11  C   UNL     1       5.098   2.630  11.468  0.00  0.00    +0.000 C 
ATOM     12  C   UNL     1       6.000   3.563  12.221  0.00  0.00    +0.000 A 
ATOM     13  C   UNL     1       6.904   4.395  11.555  0.00  0.00    +0.000 A 
ATOM     14  C   UNL     1       7.732   5.252  12.279  0.00  0.00    +0.000 A 
ATOM     15  C   UNL     1       7.670   5.278  13.677  0.00  0.00    +0.000 A 
ATOM     16  C   UNL     1       6.780   4.443  14.367  0.00  0.00    +0.000 A 
ATOM     17  C   UNL     1       5.944   3.598  13.621  0.00  0.00    +0.000 A 
ENDBRANCH   1  16
BRANCH   7  18
ATOM     18  C   UNL     1       2.615   3.376  19.489  0.00  0.00    +0.000 C 
BRANCH  18  19
ATOM     19  C   UNL     1       2.304   4.531  20.436  0.00  0.00    +0.000 C 
ATOM     20  O   UNL     1       2.122   4.335  21.637  0.00  0.00    +0.000 OA
ATOM     21  N   UNL     1       2.204   5.780  19.856  0.00  0.00    +0.000 N 
ATOM     22  H   UNL     1       2.068   5.837  18.849  0.00  0.00    +0.000 HD
BRANCH  21  23
ATOM     23  C   UNL     1       1.934   6.948  20.690  0.00  0.00    +0.000 C 
BRANCH  23  24
ATOM     24  C   UNL     1       1.514   8.184  19.894  0.00  0.00    +0.000 C 
BRANCH  24  25
ATOM     25  C   UNL     1       0.714   9.171  20.717  0.00  0.00    +0.000 A 
ATOM     26  C   UNL     1       0.279  10.382  20.153  0.00  0.00    +0.000 A 
ATOM     27  C   UNL     1      -0.490  11.281  20.901  0.00  0.00    +0.000 A 
ATOM     28  C   UNL     1      -0.823  10.980  22.218  0.00  0.00    +0.000 A 
ATOM     29 CL   UNL     1      -1.791  12.072  23.128  0.00  0.00    +0.000 Cl
ATOM     30  C   UNL     1      -0.381   9.792  22.800  0.00  0.00    +0.000 A 
ATOM     31  C   UNL     1       0.389   8.895  22.053  0.00  0.00    +0.000 A 
ENDBRANCH  24  25
ENDBRANCH  23  24
ENDBRANCH  21  23
ENDBRANCH  18  19
ENDBRANCH   7  18
TORSDOF 6
ENDMDL
MODEL 5
REMARK VINA RESULT:      -8.2      0.550      1.248
REMARK  Name = 
REMARK  7 active torsions:
REMARK  status: ('A' for Active; 'I' for Inactive)
REMARK    1  A    between atoms: C_1  and  C_2
REMARK    2  A    between atoms: C_6  and  C_7
REMARK    3  A    between atoms: N_13  and  C_14
REMARK    4  A    between atoms: C_14  and  C_15
REMARK    5  A    between atoms: N_17  and  C_18
REMARK    6  A    between atoms: C_18  and  C_19
REMARK    7  A    between atoms: C_19  and  C_20
REMARK                            x       y       z     vdW  Elec       q    Type
REMARK                         _______ _______ _______ _____ _____    ______ ____
ROOT
ATOM      1  C   UNL     1       6.031   4.434  15.023  0.00  0.00    +0.000 A 
ATOM      2  N   UNL     1       7.065   5.282  15.182  0.00  0.00    +0.000 NA
ATOM      3  S   UNL     1       7.127   5.805  16.761  0.00  0.00    +0.000 S 
ATOM      4  C   UNL     1       5.803   4.911  17.287  0.00  0.00    +0.000 A 
ATOM      5  C   UNL     1       5.269   4.875  18.609  0.00  0.00    +0.000 A 
ATOM      6  O   UNL     1       5.657   5.557  19.556  0.00  0.00    +0.000 OA
ATOM      7  N   UNL     1       4.222   3.967  18.723  0.00  0.00    +0.000 N 
ATOM      8  C   UNL     1       3.750   3.269  17.623  0.00  0.00    +0.000 A 
ATOM      9  N   UNL     1       4.202   3.324  16.411  0.00  0.00    +0.000 NA
ATOM     10  C   UNL     1       5.301   4.189  16.242  0.00  0.00    +0.000 A 
ENDROOT
BRANCH   1  16
ATOM     11  C   UNL     1       7.564   1.827  11.031  0.00  0.00    +0.000 C 
ATOM     12  C   UNL     1       6.482   2.593  11.733  0.00  0.00    +0.000 A 
ATOM     13  C   UNL     1       5.232   2.793  11.142  0.00  0.00    +0.000 A 
ATOM     14  C   UNL     1       4.244   3.511  11.816  0.00  0.00    +0.000 A 
ATOM     15  C   UNL     1       4.502   4.043  13.084  0.00  0.00    +0.000 A 
ATOM     16  C   UNL     1       5.753   3.867  13.691  0.00  0.00    +0.000 A 
ATOM     17  C   UNL     1       6.730   3.130  13.004  0.00  0.00    +0.000 A 
ENDBRANCH   1  16
BRANCH   7  18
ATOM     18  C   UNL     1       3.649   3.722  20.036  0.00  0.00    +0.000 C 
BRANCH  18  19
ATOM     19  C   UNL     1       2.391   4.557  20.261  0.00  0.00    +0.000 C 
ATOM     20  O   UNL     1       1.272   4.075  20.095  0.00  0.00    +0.000 OA
ATOM     21  N   UNL     1       2.596   5.874  20.620  0.00  0.00    +0.000 N 
ATOM     22  H   UNL     1       3.511   6.285  20.452  0.00  0.00    +0.000 HD
BRANCH  21  23
ATOM     23  C   UNL     1       1.450   6.741  20.880  0.00  0.00    +0.000 C 
BRANCH  23  24
ATOM     24  C   UNL     1       1.635   8.170  20.368  0.00  0.00    +0.000 C 
BRANCH  24  25
ATOM     25  C   UNL     1       0.749   9.170  21.079  0.00  0.00    +0.000 A 
ATOM     26  C   UNL     1       0.197  10.257  20.380  0.00  0.00    +0.000 A 
ATOM     27  C   UNL     1      -0.651  11.164  21.028  0.00  0.00    +0.000 A 
ATOM     28  C   UNL     1      -0.945  10.996  22.377  0.00  0.00    +0.000 A 
ATOM     29 CL   UNL     1      -2.008  12.095  23.165  0.00  0.00    +0.000 Cl
ATOM     30  C   UNL     1      -0.388   9.935  23.091  0.00  0.00    +0.000 A 
ATOM     31  C   UNL     1       0.459   9.030  22.445  0.00  0.00    +0.000 A 
ENDBRANCH  24  25
ENDBRANCH  23  24
ENDBRANCH  21  23
ENDBRANCH  18  19
ENDBRANCH   7  18
TORSDOF 6
ENDMDL
MODEL 6
REMARK VINA RESULT:      -8.1      1.423      1.857
REMARK  Name = 
REMARK  7 active torsions:
REMARK  status: ('A' for Active; 'I' for Inactive)
REMARK    1  A    between atoms: C_1  and  C_2
REMARK    2  A    between atoms: C_6  and  C_7
REMARK    3  A    between atoms: N_13  and  C_14
REMARK    4  A    between atoms: C_14  and  C_15
REMARK    5  A    between atoms: N_17  and  C_18
REMARK    6  A    between atoms: C_18  and  C_19
REMARK    7  A    between atoms: C_19  and  C_20
REMARK                            x       y       z     vdW  Elec       q    Type
REMARK                         _______ _______ _______ _____ _____    ______ ____
ROOT
ATOM      1  C   UNL     1       6.811   4.593  15.824  0.00  0.00    +0.000 A 
ATOM      2  N   UNL     1       7.954   4.511  16.530  0.00  0.00    +0.000 NA
ATOM      3  S   UNL     1       7.632   4.716  18.150  0.00  0.00    +0.000 S 
ATOM      4  C   UNL     1       5.970   4.900  17.970  0.00  0.00    +0.000 A 
ATOM      5  C   UNL     1       5.017   5.115  19.009  0.00  0.00    +0.000 A 
ATOM      6  O   UNL     1       5.282   5.275  20.200  0.00  0.00    +0.000 OA
ATOM      7  N   UNL     1       3.714   5.139  18.524  0.00  0.00    +0.000 N 
ATOM      8  C   UNL     1       3.447   5.037  17.168  0.00  0.00    +0.000 A 
ATOM      9  N   UNL     1       4.307   4.881  16.214  0.00  0.00    +0.000 NA
ATOM     10  C   UNL     1       5.644   4.796  16.647  0.00  0.00    +0.000 A 
ENDROOT
BRANCH   1  16
ATOM     11  C   UNL     1       5.173   2.440  11.609  0.00  0.00    +0.000 C 
ATOM     12  C   UNL     1       6.063   3.441  12.284  0.00  0.00    +0.000 A 
ATOM     13  C   UNL     1       6.939   4.247  11.551  0.00  0.00    +0.000 A 
ATOM     14  C   UNL     1       7.757   5.168  12.203  0.00  0.00    +0.000 A 
ATOM     15  C   UNL     1       7.714   5.286  13.597  0.00  0.00    +0.000 A 
ATOM     16  C   UNL     1       6.853   4.479  14.355  0.00  0.00    +0.000 A 
ATOM     17  C   UNL     1       6.027   3.568  13.680  0.00  0.00    +0.000 A 
ENDBRANCH   1  16
BRANCH   7  18
ATOM     18  C   UNL     1       2.617   5.227  19.474  0.00  0.00    +0.000 C 
BRANCH  18  19
ATOM     19  C   UNL     1       2.233   6.679  19.749  0.00  0.00    +0.000 C 
ATOM     20  O   UNL     1       2.299   7.531  18.864  0.00  0.00    +0.000 OA
ATOM     21  N   UNL     1       1.851   6.969  21.044  0.00  0.00    +0.000 N 
ATOM     22  H   UNL     1       2.099   6.311  21.780  0.00  0.00    +0.000 HD
BRANCH  21  23
ATOM     23  C   UNL     1       1.442   8.326  21.392  0.00  0.00    +0.000 C 
BRANCH  23  24
ATOM     24  C   UNL     1      -0.073   8.496  21.512  0.00  0.00    +0.000 C 
BRANCH  24  25
ATOM     25  C   UNL     1      -0.496   9.946  21.622  0.00  0.00    +0.000 A 
ATOM     26  C   UNL     1      -0.855  10.491  22.866  0.00  0.00    +0.000 A 
ATOM     27  C   UNL     1      -1.213  11.840  22.977  0.00  0.00    +0.000 A 
ATOM     28  C   UNL     1      -1.222  12.649  21.846  0.00  0.00    +0.000 A 
ATOM     29 CL   UNL     1      -1.636  14.313  21.987  0.00  0.00    +0.000 Cl
ATOM     30  C   UNL     1      -0.889  12.120  20.599  0.00  0.00    +0.000 A 
ATOM     31  C   UNL     1      -0.533  10.772  20.489  0.00  0.00    +0.000 A 
ENDBRANCH  24  25
ENDBRANCH  23  24
ENDBRANCH  21  23
ENDBRANCH  18  19
ENDBRANCH   7  18
TORSDOF 6
ENDMDL
MODEL 7
REMARK VINA RESULT:      -8.1      0.872      1.197
REMARK  Name = 
REMARK  7 active torsions:
REMARK  status: ('A' for Active; 'I' for Inactive)
REMARK    1  A    between atoms: C_1  and  C_2
REMARK    2  A    between atoms: C_6  and  C_7
REMARK    3  A    between atoms: N_13  and  C_14
REMARK    4  A    between atoms: C_14  and  C_15
REMARK    5  A    between atoms: N_17  and  C_18
REMARK    6  A    between atoms: C_18  and  C_19
REMARK    7  A    between atoms: C_19  and  C_20
REMARK                            x       y       z     vdW  Elec       q    Type
REMARK                         _______ _______ _______ _____ _____    ______ ____
ROOT
ATOM      1  C   UNL     1       6.682   4.427  15.642  0.00  0.00    +0.000 A 
ATOM      2  N   UNL     1       7.881   4.653  16.210  0.00  0.00    +0.000 NA
ATOM      3  S   UNL     1       7.709   4.773  17.861  0.00  0.00    +0.000 S 
ATOM      4  C   UNL     1       6.048   4.509  17.877  0.00  0.00    +0.000 A 
ATOM      5  C   UNL     1       5.201   4.470  19.024  0.00  0.00    +0.000 A 
ATOM      6  O   UNL     1       5.552   4.699  20.181  0.00  0.00    +0.000 OA
ATOM      7  N   UNL     1       3.890   4.146  18.692  0.00  0.00    +0.000 N 
ATOM      8  C   UNL     1       3.501   3.971  17.374  0.00  0.00    +0.000 A 
ATOM      9  N   UNL     1       4.254   4.044  16.323  0.00  0.00    +0.000 NA
ATOM     10  C   UNL     1       5.608   4.317  16.598  0.00  0.00    +0.000 A 
ENDROOT
BRANCH   1  16
ATOM     11  C   UNL     1       4.194   2.866  11.585  0.00  0.00    +0.000 C 
ATOM     12  C   UNL     1       5.378   3.569  12.181  0.00  0.00    +0.000 A 
ATOM     13  C   UNL     1       6.387   4.104  11.375  0.00  0.00    +0.000 A 
ATOM     14  C   UNL     1       7.477   4.752  11.955  0.00  0.00    +0.000 A 
ATOM     15  C   UNL     1       7.573   4.862  13.346  0.00  0.00    +0.000 A 
ATOM     16  C   UNL     1       6.580   4.321  14.175  0.00  0.00    +0.000 A 
ATOM     17  C   UNL     1       5.483   3.686  13.574  0.00  0.00    +0.000 A 
ENDBRANCH   1  16
BRANCH   7  18
ATOM     18  C   UNL     1       2.928   3.945  19.763  0.00  0.00    +0.000 C 
BRANCH  18  19
ATOM     19  C   UNL     1       2.009   5.154  19.921  0.00  0.00    +0.000 C 
ATOM     20  O   UNL     1       0.788   5.018  19.980  0.00  0.00    +0.000 OA
ATOM     21  N   UNL     1       2.630   6.386  19.954  0.00  0.00    +0.000 N 
ATOM     22  H   UNL     1       3.585   6.457  19.607  0.00  0.00    +0.000 HD
BRANCH  21  23
ATOM     23  C   UNL     1       1.832   7.596  20.128  0.00  0.00    +0.000 C 
BRANCH  23  24
ATOM     24  C   UNL     1       1.148   7.686  21.493  0.00  0.00    +0.000 C 
BRANCH  24  25
ATOM     25  C   UNL     1       0.501   9.032  21.741  0.00  0.00    +0.000 A 
ATOM     26  C   UNL     1      -0.290   9.244  22.882  0.00  0.00    +0.000 A 
ATOM     27  C   UNL     1      -0.861  10.497  23.131  0.00  0.00    +0.000 A 
ATOM     28  C   UNL     1      -0.652  11.543  22.238  0.00  0.00    +0.000 A 
ATOM     29 CL   UNL     1      -1.331  13.091  22.558  0.00  0.00    +0.000 Cl
ATOM     30  C   UNL     1       0.113  11.345  21.089  0.00  0.00    +0.000 A 
ATOM     31  C   UNL     1       0.682  10.092  20.840  0.00  0.00    +0.000 A 
ENDBRANCH  24  25
ENDBRANCH  23  24
ENDBRANCH  21  23
ENDBRANCH  18  19
ENDBRANCH   7  18
TORSDOF 6
ENDMDL
MODEL 8
REMARK VINA RESULT:      -8.0      1.170      1.603
REMARK  Name = 
REMARK  7 active torsions:
REMARK  status: ('A' for Active; 'I' for Inactive)
REMARK    1  A    between atoms: C_1  and  C_2
REMARK    2  A    between atoms: C_6  and  C_7
REMARK    3  A    between atoms: N_13  and  C_14
REMARK    4  A    between atoms: C_14  and  C_15
REMARK    5  A    between atoms: N_17  and  C_18
REMARK    6  A    between atoms: C_18  and  C_19
REMARK    7  A    between atoms: C_19  and  C_20
REMARK                            x       y       z     vdW  Elec       q    Type
REMARK                         _______ _______ _______ _____ _____    ______ ____
ROOT
ATOM      1  C   UNL     1       6.278   4.579  15.039  0.00  0.00    +0.000 A 
ATOM      2  N   UNL     1       7.215   5.521  15.255  0.00  0.00    +0.000 NA
ATOM      3  S   UNL     1       7.150   6.027  16.839  0.00  0.00    +0.000 S 
ATOM      4  C   UNL     1       5.896   5.002  17.293  0.00  0.00    +0.000 A 
ATOM      5  C   UNL     1       5.306   4.897  18.587  0.00  0.00    +0.000 A 
ATOM      6  O   UNL     1       5.579   5.602  19.558  0.00  0.00    +0.000 OA
ATOM      7  N   UNL     1       4.348   3.890  18.643  0.00  0.00    +0.000 N 
ATOM      8  C   UNL     1       4.000   3.164  17.515  0.00  0.00    +0.000 A 
ATOM      9  N   UNL     1       4.502   3.278  16.327  0.00  0.00    +0.000 NA
ATOM     10  C   UNL     1       5.517   4.248  16.219  0.00  0.00    +0.000 A 
ENDROOT
BRANCH   1  16
ATOM     11  C   UNL     1       3.320   3.304  11.204  0.00  0.00    +0.000 C 
ATOM     12  C   UNL     1       4.692   3.377  11.805  0.00  0.00    +0.000 A 
ATOM     13  C   UNL     1       5.812   2.897  11.121  0.00  0.00    +0.000 A 
ATOM     14  C   UNL     1       7.077   2.976  11.704  0.00  0.00    +0.000 A 
ATOM     15  C   UNL     1       7.231   3.528  12.980  0.00  0.00    +0.000 A 
ATOM     16  C   UNL     1       6.120   4.004  13.691  0.00  0.00    +0.000 A 
ATOM     17  C   UNL     1       4.858   3.930  13.083  0.00  0.00    +0.000 A 
ENDBRANCH   1  16
BRANCH   7  18
ATOM     18  C   UNL     1       3.740   3.574  19.924  0.00  0.00    +0.000 C 
BRANCH  18  19
ATOM     19  C   UNL     1       2.433   4.336  20.125  0.00  0.00    +0.000 C 
ATOM     20  O   UNL     1       1.351   3.751  20.121  0.00  0.00    +0.000 OA
ATOM     21  N   UNL     1       2.546   5.705  20.270  0.00  0.00    +0.000 N 
ATOM     22  H   UNL     1       3.409   6.153  19.971  0.00  0.00    +0.000 HD
BRANCH  21  23
ATOM     23  C   UNL     1       1.350   6.512  20.492  0.00  0.00    +0.000 C 
BRANCH  23  24
ATOM     24  C   UNL     1       1.640   7.872  21.127  0.00  0.00    +0.000 C 
BRANCH  24  25
ATOM     25  C   UNL     1       0.952   9.015  20.411  0.00  0.00    +0.000 A 
ATOM     26  C   UNL     1      -0.015   9.791  21.071  0.00  0.00    +0.000 A 
ATOM     27  C   UNL     1      -0.628  10.870  20.423  0.00  0.00    +0.000 A 
ATOM     28  C   UNL     1      -0.284  11.175  19.110  0.00  0.00    +0.000 A 
ATOM     29 CL   UNL     1      -1.017  12.518  18.323  0.00  0.00    +0.000 Cl
ATOM     30  C   UNL     1       0.659  10.402  18.432  0.00  0.00    +0.000 A 
ATOM     31  C   UNL     1       1.270   9.324  19.080  0.00  0.00    +0.000 A 
ENDBRANCH  24  25
ENDBRANCH  23  24
ENDBRANCH  21  23
ENDBRANCH  18  19
ENDBRANCH   7  18
TORSDOF 6
ENDMDL
MODEL 9
REMARK VINA RESULT:      -7.9      3.644      4.848
REMARK  Name = 
REMARK  7 active torsions:
REMARK  status: ('A' for Active; 'I' for Inactive)
REMARK    1  A    between atoms: C_1  and  C_2
REMARK    2  A    between atoms: C_6  and  C_7
REMARK    3  A    between atoms: N_13  and  C_14
REMARK    4  A    between atoms: C_14  and  C_15
REMARK    5  A    between atoms: N_17  and  C_18
REMARK    6  A    between atoms: C_18  and  C_19
REMARK    7  A    between atoms: C_19  and  C_20
REMARK                            x       y       z     vdW  Elec       q    Type
REMARK                         _______ _______ _______ _____ _____    ______ ____
ROOT
ATOM      1  C   UNL     1       4.238   4.318  17.019  0.00  0.00    +0.000 A 
ATOM      2  N   UNL     1       3.758   3.120  17.403  0.00  0.00    +0.000 NA
ATOM      3  S   UNL     1       2.706   3.316  18.677  0.00  0.00    +0.000 S 
ATOM      4  C   UNL     1       2.836   4.991  18.747  0.00  0.00    +0.000 A 
ATOM      5  C   UNL     1       2.161   5.862  19.654  0.00  0.00    +0.000 A 
ATOM      6  O   UNL     1       1.432   5.507  20.578  0.00  0.00    +0.000 OA
ATOM      7  N   UNL     1       2.428   7.201  19.386  0.00  0.00    +0.000 N 
ATOM      8  C   UNL     1       3.316   7.574  18.389  0.00  0.00    +0.000 A 
ATOM      9  N   UNL     1       3.963   6.790  17.588  0.00  0.00    +0.000 NA
ATOM     10  C   UNL     1       3.694   5.420  17.775  0.00  0.00    +0.000 A 
ENDROOT
BRANCH   1  16
ATOM     11  C   UNL     1       5.477   3.406  12.253  0.00  0.00    +0.000 C 
ATOM     12  C   UNL     1       5.845   3.958  13.598  0.00  0.00    +0.000 A 
ATOM     13  C   UNL     1       7.103   4.519  13.834  0.00  0.00    +0.000 A 
ATOM     14  C   UNL     1       7.421   5.024  15.095  0.00  0.00    +0.000 A 
ATOM     15  C   UNL     1       6.486   4.963  16.134  0.00  0.00    +0.000 A 
ATOM     16  C   UNL     1       5.222   4.392  15.925  0.00  0.00    +0.000 A 
ATOM     17  C   UNL     1       4.915   3.903  14.646  0.00  0.00    +0.000 A 
ENDBRANCH   1  16
BRANCH   7  18
ATOM     18  C   UNL     1       1.720   8.219  20.143  0.00  0.00    +0.000 C 
BRANCH  18  19
ATOM     19  C   UNL     1       1.052   9.236  19.221  0.00  0.00    +0.000 C 
ATOM     20  O   UNL     1       1.234   9.206  18.006  0.00  0.00    +0.000 OA
ATOM     21  N   UNL     1       0.276  10.196  19.841  0.00  0.00    +0.000 N 
ATOM     22  H   UNL     1       0.403  10.351  20.839  0.00  0.00    +0.000 HD
BRANCH  21  23
ATOM     23  C   UNL     1      -0.421  11.195  19.036  0.00  0.00    +0.000 C 
BRANCH  23  24
ATOM     24  C   UNL     1      -1.939  11.011  19.015  0.00  0.00    +0.000 C 
BRANCH  24  25
ATOM     25  C   UNL     1      -2.487  10.793  17.620  0.00  0.00    +0.000 A 
ATOM     26  C   UNL     1      -1.921   9.823  16.776  0.00  0.00    +0.000 A 
ATOM     27  C   UNL     1      -2.447   9.595  15.498  0.00  0.00    +0.000 A 
ATOM     28  C   UNL     1      -3.535  10.340  15.054  0.00  0.00    +0.000 A 
ATOM     29 CL   UNL     1      -4.199  10.041  13.495  0.00  0.00    +0.000 Cl
ATOM     30  C   UNL     1      -4.096  11.322  15.871  0.00  0.00    +0.000 A 
ATOM     31  C   UNL     1      -3.569  11.549  17.146  0.00  0.00    +0.000 A 
ENDBRANCH  24  25
ENDBRANCH  23  24
ENDBRANCH  21  23
ENDBRANCH  18  19
ENDBRANCH   7  18
TORSDOF 6
ENDMDL
