MODEL 1
REMARK VINA RESULT:      -8.7      0.000      0.000
REMARK  Name = 
REMARK  4 active torsions:
REMARK  status: ('A' for Active; 'I' for Inactive)
REMARK    1  A    between atoms: N_3  and  C_4
REMARK    2  A    between atoms: C_4  and  C_5
REMARK    3  A    between atoms: N_18  and  C_19
REMARK    4  A    between atoms: C_19  and  C_20
REMARK                            x       y       z     vdW  Elec       q    Type
REMARK                         _______ _______ _______ _____ _____    ______ ____
ROOT
ATOM      1  O   UNL     1       5.622   5.744  19.594  0.00  0.00    +0.000 OA
ATOM      2  C   UNL     1       5.457   4.572  19.257  0.00  0.00    +0.000 C 
ATOM      3  N   UNL     1       6.302   3.974  18.321  0.00  0.00    +0.000 N 
ATOM      4  N   UNL     1       4.390   3.696  19.662  0.00  0.00    +0.000 N 
ATOM      5  C   UNL     1       4.229   2.520  18.884  0.00  0.00    +0.000 C 
ATOM      6  C   UNL     1       3.337   2.877  17.685  0.00  0.00    +0.000 C 
ATOM      7  C   UNL     1       2.030   2.147  17.981  0.00  0.00    +0.000 C 
ATOM      8  C   UNL     1       1.074   3.140  18.596  0.00  0.00    +0.000 C 
ATOM      9  C   UNL     1       1.782   4.308  19.381  0.00  0.00    +0.000 C 
ATOM     10  C   UNL     1       3.048   4.019  20.346  0.00  0.00    +0.000 C 
ATOM     11  N   UNL     1       2.180   5.264  18.352  0.00  0.00    +0.000 NA
ATOM     12  C   UNL     1       3.058   4.477  17.386  0.00  0.00    +0.000 C 
ATOM     13  H   UNL     1       6.625   3.072  18.617  0.00  0.00    +0.000 HD
ENDROOT
BRANCH   3  14
ATOM     14  C   UNL     1       7.281   4.616  17.450  0.00  0.00    +0.000 C 
BRANCH  14  15
ATOM     15  C   UNL     1       6.876   4.489  16.007  0.00  0.00    +0.000 A 
ATOM     16  C   UNL     1       5.862   3.617  15.587  0.00  0.00    +0.000 A 
ATOM     17  C   UNL     1       5.582   3.461  14.222  0.00  0.00    +0.000 A 
ATOM     18  C   UNL     1       6.322   4.161  13.273  0.00  0.00    +0.000 A 
ATOM     19  C   UNL     1       7.322   5.034  13.689  0.00  0.00    +0.000 A 
ATOM     20  C   UNL     1       7.596   5.198  15.048  0.00  0.00    +0.000 A 
ENDBRANCH  14  15
ENDBRANCH   3  14
BRANCH  11  21
ATOM     21  C   UNL     1       2.752   6.519  18.976  0.00  0.00    +0.000 C 
BRANCH  21  22
ATOM     22  C   UNL     1       1.982   7.898  19.134  0.00  0.00    +0.000 A 
ATOM     23  C   UNL     1       2.052   8.796  18.048  0.00  0.00    +0.000 A 
ATOM     24  C   UNL     1       1.572  10.106  18.154  0.00  0.00    +0.000 A 
ATOM     25  C   UNL     1       1.012  10.524  19.349  0.00  0.00    +0.000 A 
ATOM     26  C   UNL     1       0.946   9.586  20.367  0.00  0.00    +0.000 A 
ATOM     27  N   UNL     1       1.428   8.311  20.309  0.00  0.00    +0.000 NA
ENDBRANCH  21  22
ENDBRANCH  11  21
TORSDOF 4
ENDMDL
MODEL 2
REMARK VINA RESULT:      -8.7      0.623      1.357
REMARK  Name = 
REMARK  4 active torsions:
REMARK  status: ('A' for Active; 'I' for Inactive)
REMARK    1  A    between atoms: N_3  and  C_4
REMARK    2  A    between atoms: C_4  and  C_5
REMARK    3  A    between atoms: N_18  and  C_19
REMARK    4  A    between atoms: C_19  and  C_20
REMARK                            x       y       z     vdW  Elec       q    Type
REMARK                         _______ _______ _______ _____ _____    ______ ____
ROOT
ATOM      1  O   UNL     1       5.520   5.555  19.752  0.00  0.00    +0.000 OA
ATOM      2  C   UNL     1       5.385   4.437  19.254  0.00  0.00    +0.000 C 
ATOM      3  N   UNL     1       6.169   4.041  18.169  0.00  0.00    +0.000 N 
ATOM      4  N   UNL     1       4.407   3.444  19.609  0.00  0.00    +0.000 N 
ATOM      5  C   UNL     1       4.234   2.388  18.676  0.00  0.00    +0.000 C 
ATOM      6  C   UNL     1       3.217   2.861  17.625  0.00  0.00    +0.000 C 
ATOM      7  C   UNL     1       1.983   2.011  17.915  0.00  0.00    +0.000 C 
ATOM      8  C   UNL     1       1.039   2.837  18.755  0.00  0.00    +0.000 C 
ATOM      9  C   UNL     1       1.756   3.920  19.647  0.00  0.00    +0.000 C 
ATOM     10  C   UNL     1       3.120   3.574  20.446  0.00  0.00    +0.000 C 
ATOM     11  N   UNL     1       2.007   5.042  18.746  0.00  0.00    +0.000 NA
ATOM     12  C   UNL     1       2.829   4.465  17.600  0.00  0.00    +0.000 C 
ATOM     13  H   UNL     1       6.563   3.128  18.295  0.00  0.00    +0.000 HD
ENDROOT
BRANCH   3  14
ATOM     14  C   UNL     1       7.027   4.867  17.328  0.00  0.00    +0.000 C 
BRANCH  14  15
ATOM     15  C   UNL     1       6.818   4.546  15.874  0.00  0.00    +0.000 A 
ATOM     16  C   UNL     1       7.589   5.129  14.859  0.00  0.00    +0.000 A 
ATOM     17  C   UNL     1       7.298   4.873  13.511  0.00  0.00    +0.000 A 
ATOM     18  C   UNL     1       6.228   4.048  13.172  0.00  0.00    +0.000 A 
ATOM     19  C   UNL     1       5.467   3.461  14.179  0.00  0.00    +0.000 A 
ATOM     20  C   UNL     1       5.762   3.707  15.521  0.00  0.00    +0.000 A 
ENDBRANCH  14  15
ENDBRANCH   3  14
BRANCH  11  21
ATOM     21  C   UNL     1       2.569   6.225  19.505  0.00  0.00    +0.000 C 
BRANCH  21  22
ATOM     22  C   UNL     1       2.160   7.741  19.275  0.00  0.00    +0.000 A 
ATOM     23  C   UNL     1       1.436   8.371  20.310  0.00  0.00    +0.000 A 
ATOM     24  C   UNL     1       0.866   9.636  20.134  0.00  0.00    +0.000 A 
ATOM     25  C   UNL     1       1.022  10.284  18.920  0.00  0.00    +0.000 A 
ATOM     26  C   UNL     1       1.768   9.625  17.956  0.00  0.00    +0.000 A 
ATOM     27  N   UNL     1       2.315   8.382  18.082  0.00  0.00    +0.000 NA
ENDBRANCH  21  22
ENDBRANCH  11  21
TORSDOF 4
ENDMDL
MODEL 3
REMARK VINA RESULT:      -8.6      1.194      1.791
REMARK  Name = 
REMARK  4 active torsions:
REMARK  status: ('A' for Active; 'I' for Inactive)
REMARK    1  A    between atoms: N_3  and  C_4
REMARK    2  A    between atoms: C_4  and  C_5
REMARK    3  A    between atoms: N_18  and  C_19
REMARK    4  A    between atoms: C_19  and  C_20
REMARK                            x       y       z     vdW  Elec       q    Type
REMARK                         _______ _______ _______ _____ _____    ______ ____
ROOT
ATOM      1  O   UNL     1       5.288   5.822  18.578  0.00  0.00    +0.000 OA
ATOM      2  C   UNL     1       5.047   4.728  18.067  0.00  0.00    +0.000 C 
ATOM      3  N   UNL     1       5.254   4.519  16.702  0.00  0.00    +0.000 N 
ATOM      4  N   UNL     1       4.465   3.582  18.710  0.00  0.00    +0.000 N 
ATOM      5  C   UNL     1       3.978   2.569  17.843  0.00  0.00    +0.000 C 
ATOM      6  C   UNL     1       2.540   2.947  17.453  0.00  0.00    +0.000 C 
ATOM      7  C   UNL     1       1.689   1.907  18.177  0.00  0.00    +0.000 C 
ATOM      8  C   UNL     1       1.181   2.533  19.454  0.00  0.00    +0.000 C 
ATOM      9  C   UNL     1       2.121   3.655  20.036  0.00  0.00    +0.000 C 
ATOM     10  C   UNL     1       3.728   3.468  20.059  0.00  0.00    +0.000 C 
ATOM     11  N   UNL     1       1.795   4.853  19.267  0.00  0.00    +0.000 NA
ATOM     12  C   UNL     1       2.025   4.474  17.809  0.00  0.00    +0.000 C 
ATOM     13  H   UNL     1       5.752   3.668  16.517  0.00  0.00    +0.000 HD
ENDROOT
BRANCH   3  14
ATOM     14  C   UNL     1       5.517   5.512  15.667  0.00  0.00    +0.000 C 
BRANCH  14  15
ATOM     15  C   UNL     1       6.070   4.860  14.430  0.00  0.00    +0.000 A 
ATOM     16  C   UNL     1       7.296   5.240  13.867  0.00  0.00    +0.000 A 
ATOM     17  C   UNL     1       7.729   4.672  12.661  0.00  0.00    +0.000 A 
ATOM     18  C   UNL     1       6.934   3.734  12.005  0.00  0.00    +0.000 A 
ATOM     19  C   UNL     1       5.721   3.348  12.568  0.00  0.00    +0.000 A 
ATOM     20  C   UNL     1       5.293   3.906  13.774  0.00  0.00    +0.000 A 
ENDBRANCH  14  15
ENDBRANCH   3  14
BRANCH  11  21
ATOM     21  C   UNL     1       2.527   6.060  19.816  0.00  0.00    +0.000 C 
BRANCH  21  22
ATOM     22  C   UNL     1       2.179   7.572  19.485  0.00  0.00    +0.000 A 
ATOM     23  C   UNL     1       1.451   8.288  20.458  0.00  0.00    +0.000 A 
ATOM     24  C   UNL     1       0.933   9.560  20.190  0.00  0.00    +0.000 A 
ATOM     25  C   UNL     1       1.147  10.128  18.946  0.00  0.00    +0.000 A 
ATOM     26  C   UNL     1       1.894   9.386  18.045  0.00  0.00    +0.000 A 
ATOM     27  N   UNL     1       2.391   8.134  18.261  0.00  0.00    +0.000 NA
ENDBRANCH  21  22
ENDBRANCH  11  21
TORSDOF 4
ENDMDL
MODEL 4
REMARK VINA RESULT:      -8.4      1.936      4.906
REMARK  Name = 
REMARK  4 active torsions:
REMARK  status: ('A' for Active; 'I' for Inactive)
REMARK    1  A    between atoms: N_3  and  C_4
REMARK    2  A    between atoms: C_4  and  C_5
REMARK    3  A    between atoms: N_18  and  C_19
REMARK    4  A    between atoms: C_19  and  C_20
REMARK                            x       y       z     vdW  Elec       q    Type
REMARK                         _______ _______ _______ _____ _____    ______ ____
ROOT
ATOM      1  O   UNL     1       2.751   3.931  16.818  0.00  0.00    +0.000 OA
ATOM      2  C   UNL     1       3.942   3.622  16.801  0.00  0.00    +0.000 C 
ATOM      3  N   UNL     1       4.371   2.410  17.345  0.00  0.00    +0.000 N 
ATOM      4  N   UNL     1       5.039   4.428  16.337  0.00  0.00    +0.000 N 
ATOM      5  C   UNL     1       6.332   3.994  16.730  0.00  0.00    +0.000 C 
ATOM      6  C   UNL     1       6.618   4.590  18.117  0.00  0.00    +0.000 C 
ATOM      7  C   UNL     1       7.701   5.631  17.842  0.00  0.00    +0.000 C 
ATOM      8  C   UNL     1       7.031   6.980  17.738  0.00  0.00    +0.000 C 
ATOM      9  C   UNL     1       5.536   6.916  17.242  0.00  0.00    +0.000 C 
ATOM     10  C   UNL     1       5.101   5.937  16.030  0.00  0.00    +0.000 C 
ATOM     11  N   UNL     1       4.761   6.573  18.430  0.00  0.00    +0.000 NA
ATOM     12  C   UNL     1       5.355   5.265  18.938  0.00  0.00    +0.000 C 
ATOM     13  H   UNL     1       4.993   1.915  16.734  0.00  0.00    +0.000 HD
ENDROOT
BRANCH   3  14
ATOM     14  C   UNL     1       3.622   1.485  18.187  0.00  0.00    +0.000 C 
BRANCH  14  15
ATOM     15  C   UNL     1       2.844   2.229  19.237  0.00  0.00    +0.000 A 
ATOM     16  C   UNL     1       3.433   2.683  20.425  0.00  0.00    +0.000 A 
ATOM     17  C   UNL     1       2.649   3.288  21.418  0.00  0.00    +0.000 A 
ATOM     18  C   UNL     1       1.276   3.428  21.236  0.00  0.00    +0.000 A 
ATOM     19  C   UNL     1       0.692   2.986  20.052  0.00  0.00    +0.000 A 
ATOM     20  C   UNL     1       1.471   2.392  19.059  0.00  0.00    +0.000 A 
ENDBRANCH  14  15
ENDBRANCH   3  14
BRANCH  11  21
ATOM     21  C   UNL     1       3.276   6.616  18.134  0.00  0.00    +0.000 C 
BRANCH  21  22
ATOM     22  C   UNL     1       2.258   7.690  18.706  0.00  0.00    +0.000 A 
ATOM     23  C   UNL     1       1.860   8.723  17.830  0.00  0.00    +0.000 A 
ATOM     24  C   UNL     1       1.119   9.819  18.286  0.00  0.00    +0.000 A 
ATOM     25  C   UNL     1       0.766   9.886  19.623  0.00  0.00    +0.000 A 
ATOM     26  C   UNL     1       1.162   8.826  20.424  0.00  0.00    +0.000 A 
ATOM     27  N   UNL     1       1.906   7.757  20.021  0.00  0.00    +0.000 NA
ENDBRANCH  21  22
ENDBRANCH  11  21
TORSDOF 4
ENDMDL
MODEL 5
REMARK VINA RESULT:      -8.3      0.946      1.424
REMARK  Name = 
REMARK  4 active torsions:
REMARK  status: ('A' for Active; 'I' for Inactive)
REMARK    1  A    between atoms: N_3  and  C_4
REMARK    2  A    between atoms: C_4  and  C_5
REMARK    3  A    between atoms: N_18  and  C_19
REMARK    4  A    between atoms: C_19  and  C_20
REMARK                            x       y       z     vdW  Elec       q    Type
REMARK                         _______ _______ _______ _____ _____    ______ ____
ROOT
ATOM      1  O   UNL     1       5.581   5.706  19.751  0.00  0.00    +0.000 OA
ATOM      2  C   UNL     1       5.377   4.524  19.477  0.00  0.00    +0.000 C 
ATOM      3  N   UNL     1       6.219   3.842  18.596  0.00  0.00    +0.000 N 
ATOM      4  N   UNL     1       4.268   3.714  19.904  0.00  0.00    +0.000 N 
ATOM      5  C   UNL     1       4.077   2.503  19.190  0.00  0.00    +0.000 C 
ATOM      6  C   UNL     1       3.228   2.825  17.951  0.00  0.00    +0.000 C 
ATOM      7  C   UNL     1       1.887   2.163  18.255  0.00  0.00    +0.000 C 
ATOM      8  C   UNL     1       0.957   3.225  18.790  0.00  0.00    +0.000 C 
ATOM      9  C   UNL     1       1.693   4.409  19.525  0.00  0.00    +0.000 C 
ATOM     10  C   UNL     1       2.924   4.127  20.536  0.00  0.00    +0.000 C 
ATOM     11  N   UNL     1       2.152   5.288  18.454  0.00  0.00    +0.000 NA
ATOM     12  C   UNL     1       3.019   4.414  17.555  0.00  0.00    +0.000 C 
ATOM     13  H   UNL     1       6.499   2.946  18.951  0.00  0.00    +0.000 HD
ENDROOT
BRANCH   3  14
ATOM     14  C   UNL     1       7.241   4.395  17.716  0.00  0.00    +0.000 C 
BRANCH  14  15
ATOM     15  C   UNL     1       6.658   4.742  16.374  0.00  0.00    +0.000 A 
ATOM     16  C   UNL     1       5.991   5.952  16.137  0.00  0.00    +0.000 A 
ATOM     17  C   UNL     1       5.380   6.193  14.898  0.00  0.00    +0.000 A 
ATOM     18  C   UNL     1       5.421   5.224  13.898  0.00  0.00    +0.000 A 
ATOM     19  C   UNL     1       6.092   4.027  14.129  0.00  0.00    +0.000 A 
ATOM     20  C   UNL     1       6.708   3.789  15.358  0.00  0.00    +0.000 A 
ENDBRANCH  14  15
ENDBRANCH   3  14
BRANCH  11  21
ATOM     21  C   UNL     1       2.759   6.554  19.020  0.00  0.00    +0.000 C 
BRANCH  21  22
ATOM     22  C   UNL     1       1.941   7.802  19.561  0.00  0.00    +0.000 A 
ATOM     23  C   UNL     1       1.393   7.694  20.856  0.00  0.00    +0.000 A 
ATOM     24  C   UNL     1       0.502   8.652  21.352  0.00  0.00    +0.000 A 
ATOM     25  C   UNL     1       0.158   9.730  20.556  0.00  0.00    +0.000 A 
ATOM     26  C   UNL     1       0.753   9.794  19.305  0.00  0.00    +0.000 A 
ATOM     27  N   UNL     1       1.603   8.867  18.779  0.00  0.00    +0.000 NA
ENDBRANCH  21  22
ENDBRANCH  11  21
TORSDOF 4
ENDMDL
MODEL 6
REMARK VINA RESULT:      -8.2      0.919      1.317
REMARK  Name = 
REMARK  4 active torsions:
REMARK  status: ('A' for Active; 'I' for Inactive)
REMARK    1  A    between atoms: N_3  and  C_4
REMARK    2  A    between atoms: C_4  and  C_5
REMARK    3  A    between atoms: N_18  and  C_19
REMARK    4  A    between atoms: C_19  and  C_20
REMARK                            x       y       z     vdW  Elec       q    Type
REMARK                         _______ _______ _______ _____ _____    ______ ____
ROOT
ATOM      1  O   UNL     1       5.756   5.898  18.935  0.00  0.00    +0.000 OA
ATOM      2  C   UNL     1       5.580   4.776  18.464  0.00  0.00    +0.000 C 
ATOM      3  N   UNL     1       6.128   4.428  17.228  0.00  0.00    +0.000 N 
ATOM      4  N   UNL     1       4.764   3.725  19.011  0.00  0.00    +0.000 N 
ATOM      5  C   UNL     1       4.453   2.661  18.124  0.00  0.00    +0.000 C 
ATOM      6  C   UNL     1       3.204   3.072  17.329  0.00  0.00    +0.000 C 
ATOM      7  C   UNL     1       2.116   2.149  17.871  0.00  0.00    +0.000 C 
ATOM      8  C   UNL     1       1.333   2.916  18.909  0.00  0.00    +0.000 C 
ATOM      9  C   UNL     1       2.164   4.040  19.637  0.00  0.00    +0.000 C 
ATOM     10  C   UNL     1       3.687   3.776  20.112  0.00  0.00    +0.000 C 
ATOM     11  N   UNL     1       2.144   5.175  18.719  0.00  0.00    +0.000 NA
ATOM     12  C   UNL     1       2.726   4.650  17.412  0.00  0.00    +0.000 C 
ATOM     13  H   UNL     1       6.593   3.540  17.251  0.00  0.00    +0.000 HD
ENDROOT
BRANCH   3  14
ATOM     14  C   UNL     1       6.730   5.305  16.230  0.00  0.00    +0.000 C 
BRANCH  14  15
ATOM     15  C   UNL     1       6.488   4.780  14.842  0.00  0.00    +0.000 A 
ATOM     16  C   UNL     1       5.366   4.003  14.520  0.00  0.00    +0.000 A 
ATOM     17  C   UNL     1       5.229   3.455  13.236  0.00  0.00    +0.000 A 
ATOM     18  C   UNL     1       6.216   3.667  12.277  0.00  0.00    +0.000 A 
ATOM     19  C   UNL     1       7.325   4.446  12.593  0.00  0.00    +0.000 A 
ATOM     20  C   UNL     1       7.459   5.000  13.867  0.00  0.00    +0.000 A 
ENDBRANCH  14  15
ENDBRANCH   3  14
BRANCH  11  21
ATOM     21  C   UNL     1       2.789   6.390  19.352  0.00  0.00    +0.000 C 
BRANCH  21  22
ATOM     22  C   UNL     1       2.040   7.741  19.718  0.00  0.00    +0.000 A 
ATOM     23  C   UNL     1       1.391   7.792  20.970  0.00  0.00    +0.000 A 
ATOM     24  C   UNL     1       0.549   8.856  21.310  0.00  0.00    +0.000 A 
ATOM     25  C   UNL     1       0.356   9.881  20.400  0.00  0.00    +0.000 A 
ATOM     26  C   UNL     1       1.045   9.786  19.201  0.00  0.00    +0.000 A 
ATOM     27  N   UNL     1       1.851   8.753  18.824  0.00  0.00    +0.000 NA
ENDBRANCH  21  22
ENDBRANCH  11  21
TORSDOF 4
ENDMDL
MODEL 7
REMARK VINA RESULT:      -8.1      1.994      4.903
REMARK  Name = 
REMARK  4 active torsions:
REMARK  status: ('A' for Active; 'I' for Inactive)
REMARK    1  A    between atoms: N_3  and  C_4
REMARK    2  A    between atoms: C_4  and  C_5
REMARK    3  A    between atoms: N_18  and  C_19
REMARK    4  A    between atoms: C_19  and  C_20
REMARK                            x       y       z     vdW  Elec       q    Type
REMARK                         _______ _______ _______ _____ _____    ______ ____
ROOT
ATOM      1  O   UNL     1       2.744   4.014  16.856  0.00  0.00    +0.000 OA
ATOM      2  C   UNL     1       3.925   3.672  16.827  0.00  0.00    +0.000 C 
ATOM      3  N   UNL     1       4.332   2.466  17.402  0.00  0.00    +0.000 N 
ATOM      4  N   UNL     1       5.035   4.433  16.320  0.00  0.00    +0.000 N 
ATOM      5  C   UNL     1       6.323   3.977  16.703  0.00  0.00    +0.000 C 
ATOM      6  C   UNL     1       6.651   4.608  18.065  0.00  0.00    +0.000 C 
ATOM      7  C   UNL     1       7.755   5.609  17.738  0.00  0.00    +0.000 C 
ATOM      8  C   UNL     1       7.119   6.972  17.604  0.00  0.00    +0.000 C 
ATOM      9  C   UNL     1       5.615   6.933  17.136  0.00  0.00    +0.000 C 
ATOM     10  C   UNL     1       5.131   5.929  15.964  0.00  0.00    +0.000 C 
ATOM     11  N   UNL     1       4.852   6.648  18.348  0.00  0.00    +0.000 NA
ATOM     12  C   UNL     1       5.421   5.341  18.887  0.00  0.00    +0.000 C 
ATOM     13  H   UNL     1       4.930   1.936  16.796  0.00  0.00    +0.000 HD
ENDROOT
BRANCH   3  14
ATOM     14  C   UNL     1       3.575   1.588  18.286  0.00  0.00    +0.000 C 
BRANCH  14  15
ATOM     15  C   UNL     1       2.694   2.387  19.206  0.00  0.00    +0.000 A 
ATOM     16  C   UNL     1       1.299   2.420  19.067  0.00  0.00    +0.000 A 
ATOM     17  C   UNL     1       0.525   3.253  19.887  0.00  0.00    +0.000 A 
ATOM     18  C   UNL     1       1.139   4.066  20.836  0.00  0.00    +0.000 A 
ATOM     19  C   UNL     1       2.523   4.027  20.981  0.00  0.00    +0.000 A 
ATOM     20  C   UNL     1       3.294   3.192  20.173  0.00  0.00    +0.000 A 
ENDBRANCH  14  15
ENDBRANCH   3  14
BRANCH  11  21
ATOM     21  C   UNL     1       3.364   6.723  18.077  0.00  0.00    +0.000 C 
BRANCH  21  22
ATOM     22  C   UNL     1       2.415   7.925  18.493  0.00  0.00    +0.000 A 
ATOM     23  C   UNL     1       1.948   7.938  19.824  0.00  0.00    +0.000 A 
ATOM     24  C   UNL     1       0.963   8.841  20.241  0.00  0.00    +0.000 A 
ATOM     25  C   UNL     1       0.443   9.741  19.327  0.00  0.00    +0.000 A 
ATOM     26  C   UNL     1       0.965   9.696  18.044  0.00  0.00    +0.000 A 
ATOM     27  N   UNL     1       1.903   8.815  17.595  0.00  0.00    +0.000 NA
ENDBRANCH  21  22
ENDBRANCH  11  21
TORSDOF 4
ENDMDL
MODEL 8
REMARK VINA RESULT:      -7.7      2.079      6.504
REMARK  Name = 
REMARK  4 active torsions:
REMARK  status: ('A' for Active; 'I' for Inactive)
REMARK    1  A    between atoms: N_3  and  C_4
REMARK    2  A    between atoms: C_4  and  C_5
REMARK    3  A    between atoms: N_18  and  C_19
REMARK    4  A    between atoms: C_19  and  C_20
REMARK                            x       y       z     vdW  Elec       q    Type
REMARK                         _______ _______ _______ _____ _____    ______ ____
ROOT
ATOM      1  O   UNL     1       3.046   6.698  17.859  0.00  0.00    +0.000 OA
ATOM      2  C   UNL     1       2.260   5.990  18.487  0.00  0.00    +0.000 C 
ATOM      3  N   UNL     1       1.758   6.405  19.722  0.00  0.00    +0.000 N 
ATOM      4  N   UNL     1       1.819   4.666  18.139  0.00  0.00    +0.000 N 
ATOM      5  C   UNL     1       1.190   3.932  19.178  0.00  0.00    +0.000 C 
ATOM      6  C   UNL     1       2.295   3.236  19.988  0.00  0.00    +0.000 C 
ATOM      7  C   UNL     1       2.114   1.760  19.644  0.00  0.00    +0.000 C 
ATOM      8  C   UNL     1       3.109   1.411  18.564  0.00  0.00    +0.000 C 
ATOM      9  C   UNL     1       3.505   2.625  17.641  0.00  0.00    +0.000 C 
ATOM     10  C   UNL     1       2.389   3.669  17.111  0.00  0.00    +0.000 C 
ATOM     11  N   UNL     1       4.517   3.357  18.397  0.00  0.00    +0.000 NA
ATOM     12  C   UNL     1       3.854   3.711  19.723  0.00  0.00    +0.000 C 
ATOM     13  H   UNL     1       0.764   6.290  19.789  0.00  0.00    +0.000 HD
ENDROOT
BRANCH   3  14
ATOM     14  C   UNL     1       2.211   7.514  20.552  0.00  0.00    +0.000 C 
BRANCH  14  15
ATOM     15  C   UNL     1       1.188   8.616  20.576  0.00  0.00    +0.000 A 
ATOM     16  C   UNL     1       0.925   9.419  19.457  0.00  0.00    +0.000 A 
ATOM     17  C   UNL     1       0.032  10.496  19.552  0.00  0.00    +0.000 A 
ATOM     18  C   UNL     1      -0.590  10.783  20.764  0.00  0.00    +0.000 A 
ATOM     19  C   UNL     1      -0.338   9.981  21.873  0.00  0.00    +0.000 A 
ATOM     20  C   UNL     1       0.544   8.903  21.778  0.00  0.00    +0.000 A 
ENDBRANCH  14  15
ENDBRANCH   3  14
BRANCH  11  21
ATOM     21  C   UNL     1       5.099   4.481  17.567  0.00  0.00    +0.000 C 
BRANCH  21  22
ATOM     22  C   UNL     1       6.195   5.517  18.065  0.00  0.00    +0.000 A 
ATOM     23  C   UNL     1       6.387   6.671  17.276  0.00  0.00    +0.000 A 
ATOM     24  C   UNL     1       7.449   7.549  17.518  0.00  0.00    +0.000 A 
ATOM     25  C   UNL     1       8.323   7.281  18.557  0.00  0.00    +0.000 A 
ATOM     26  C   UNL     1       8.062   6.148  19.312  0.00  0.00    +0.000 A 
ATOM     27  N   UNL     1       7.055   5.256  19.089  0.00  0.00    +0.000 NA
ENDBRANCH  21  22
ENDBRANCH  11  21
TORSDOF 4
ENDMDL
MODEL 9
REMARK VINA RESULT:      -7.7      1.996      6.452
REMARK  Name = 
REMARK  4 active torsions:
REMARK  status: ('A' for Active; 'I' for Inactive)
REMARK    1  A    between atoms: N_3  and  C_4
REMARK    2  A    between atoms: C_4  and  C_5
REMARK    3  A    between atoms: N_18  and  C_19
REMARK    4  A    between atoms: C_19  and  C_20
REMARK                            x       y       z     vdW  Elec       q    Type
REMARK                         _______ _______ _______ _____ _____    ______ ____
ROOT
ATOM      1  O   UNL     1       2.908   6.761  17.581  0.00  0.00    +0.000 OA
ATOM      2  C   UNL     1       2.229   6.034  18.304  0.00  0.00    +0.000 C 
ATOM      3  N   UNL     1       1.781   6.483  19.547  0.00  0.00    +0.000 N 
ATOM      4  N   UNL     1       1.876   4.660  18.063  0.00  0.00    +0.000 N 
ATOM      5  C   UNL     1       1.383   3.944  19.185  0.00  0.00    +0.000 C 
ATOM      6  C   UNL     1       2.596   3.388  19.948  0.00  0.00    +0.000 C 
ATOM      7  C   UNL     1       2.514   1.884  19.701  0.00  0.00    +0.000 C 
ATOM      8  C   UNL     1       3.457   1.549  18.571  0.00  0.00    +0.000 C 
ATOM      9  C   UNL     1       3.686   2.731  17.555  0.00  0.00    +0.000 C 
ATOM     10  C   UNL     1       2.453   3.650  17.053  0.00  0.00    +0.000 C 
ATOM     11  N   UNL     1       4.684   3.585  18.193  0.00  0.00    +0.000 NA
ATOM     12  C   UNL     1       4.088   3.967  19.543  0.00  0.00    +0.000 C 
ATOM     13  H   UNL     1       0.807   6.295  19.694  0.00  0.00    +0.000 HD
ENDROOT
BRANCH   3  14
ATOM     14  C   UNL     1       2.198   7.673  20.279  0.00  0.00    +0.000 C 
BRANCH  14  15
ATOM     15  C   UNL     1       1.191   8.779  20.118  0.00  0.00    +0.000 A 
ATOM     16  C   UNL     1       1.069   9.514  18.931  0.00  0.00    +0.000 A 
ATOM     17  C   UNL     1       0.182  10.597  18.857  0.00  0.00    +0.000 A 
ATOM     18  C   UNL     1      -0.573  10.960  19.970  0.00  0.00    +0.000 A 
ATOM     19  C   UNL     1      -0.459  10.225  21.146  0.00  0.00    +0.000 A 
ATOM     20  C   UNL     1       0.416   9.140  21.219  0.00  0.00    +0.000 A 
ENDBRANCH  14  15
ENDBRANCH   3  14
BRANCH  11  21
ATOM     21  C   UNL     1       5.113   4.699  17.260  0.00  0.00    +0.000 C 
BRANCH  21  22
ATOM     22  C   UNL     1       6.298   5.719  17.534  0.00  0.00    +0.000 A 
ATOM     23  C   UNL     1       7.171   5.412  18.599  0.00  0.00    +0.000 A 
ATOM     24  C   UNL     1       8.128   6.331  19.043  0.00  0.00    +0.000 A 
ATOM     25  C   UNL     1       8.222   7.563  18.418  0.00  0.00    +0.000 A 
ATOM     26  C   UNL     1       7.356   7.791  17.360  0.00  0.00    +0.000 A 
ATOM     27  N   UNL     1       6.394   6.931  16.918  0.00  0.00    +0.000 NA
ENDBRANCH  21  22
ENDBRANCH  11  21
TORSDOF 4
ENDMDL
