MODEL 1
REMARK VINA RESULT:      -6.7      0.000      0.000
REMARK  Name = 
REMARK  3 active torsions:
REMARK  status: ('A' for Active; 'I' for Inactive)
REMARK    1  A    between atoms: N_2  and  N_4
REMARK    2  A    between atoms: N_10  and  C_11
REMARK    3  A    between atoms: C_11  and  C_12
REMARK                            x       y       z     vdW  Elec       q    Type
REMARK                         _______ _______ _______ _____ _____    ______ ____
ROOT
ATOM      1  N   UNL     1       4.751   2.946  19.968  0.00  0.00    +0.000 NA
ATOM      2  C   UNL     1       3.770   3.198  19.161  0.00  0.00    +0.000 C 
ATOM      3  N   UNL     1       2.547   2.568  19.097  0.00  0.00    +0.000 N 
ATOM      4  C   UNL     1       1.325   3.295  18.834  0.00  0.00    +0.000 C 
ATOM      5  C   UNL     1       1.516   4.194  17.635  0.00  0.00    +0.000 C 
ATOM      6  C   UNL     1       2.769   5.026  17.845  0.00  0.00    +0.000 C 
ATOM      7  N   UNL     1       3.915   4.172  18.177  0.00  0.00    +0.000 N 
ATOM      8  H   UNL     1       2.413   1.882  19.844  0.00  0.00    +0.000 HD
ENDROOT
BRANCH   1  10
ATOM      9  O   UNL     1       3.544   2.106  21.607  0.00  0.00    +0.000 OA
ATOM     10  N   UNL     1       4.594   2.043  20.954  0.00  0.00    +0.000 N 
ATOM     11  O   UNL     1       5.451   1.173  21.183  0.00  0.00    +0.000 OA
ENDBRANCH   1  10
BRANCH   7  12
ATOM     12  C   UNL     1       4.894   3.946  17.101  0.00  0.00    +0.000 C 
BRANCH  12  13
ATOM     13  C   UNL     1       5.155   5.123  16.146  0.00  0.00    +0.000 C 
ATOM     14  C   UNL     1       5.537   4.742  14.731  0.00  0.00    +0.000 C 
ATOM     15  C   UNL     1       7.048   4.791  14.746  0.00  0.00    +0.000 C 
ATOM     16  O   UNL     1       7.425   5.762  15.731  0.00  0.00    +0.000 OA
ATOM     17  C   UNL     1       6.281   6.063  16.541  0.00  0.00    +0.000 C 
ENDBRANCH  12  13
ENDBRANCH   7  12
TORSDOF 3
ENDMDL
MODEL 2
REMARK VINA RESULT:      -6.7      2.698      5.872
REMARK  Name = 
REMARK  3 active torsions:
REMARK  status: ('A' for Active; 'I' for Inactive)
REMARK    1  A    between atoms: N_2  and  N_4
REMARK    2  A    between atoms: N_10  and  C_11
REMARK    3  A    between atoms: C_11  and  C_12
REMARK                            x       y       z     vdW  Elec       q    Type
REMARK                         _______ _______ _______ _____ _____    ______ ____
ROOT
ATOM      1  N   UNL     1       5.671   4.692  15.109  0.00  0.00    +0.000 NA
ATOM      2  C   UNL     1       5.943   4.670  16.376  0.00  0.00    +0.000 C 
ATOM      3  N   UNL     1       7.163   4.442  16.973  0.00  0.00    +0.000 N 
ATOM      4  C   UNL     1       7.583   5.162  18.154  0.00  0.00    +0.000 C 
ATOM      5  C   UNL     1       6.480   5.134  19.186  0.00  0.00    +0.000 C 
ATOM      6  C   UNL     1       5.189   5.595  18.532  0.00  0.00    +0.000 C 
ATOM      7  N   UNL     1       4.921   4.834  17.307  0.00  0.00    +0.000 N 
ATOM      8  H   UNL     1       7.928   4.365  16.298  0.00  0.00    +0.000 HD
ENDROOT
BRANCH   1  10
ATOM      9  O   UNL     1       6.520   3.747  13.310  0.00  0.00    +0.000 OA
ATOM     10  N   UNL     1       6.665   4.588  14.208  0.00  0.00    +0.000 N 
ATOM     11  O   UNL     1       7.669   5.317  14.259  0.00  0.00    +0.000 OA
ENDBRANCH   1  10
BRANCH   7  12
ATOM     12  C   UNL     1       3.876   3.801  17.396  0.00  0.00    +0.000 C 
BRANCH  12  13
ATOM     13  C   UNL     1       2.795   4.002  18.471  0.00  0.00    +0.000 C 
ATOM     14  C   UNL     1       2.774   2.969  19.576  0.00  0.00    +0.000 C 
ATOM     15  C   UNL     1       1.729   1.979  19.117  0.00  0.00    +0.000 C 
ATOM     16  O   UNL     1       0.788   2.705  18.315  0.00  0.00    +0.000 OA
ATOM     17  C   UNL     1       1.358   3.978  17.981  0.00  0.00    +0.000 C 
ENDBRANCH  12  13
ENDBRANCH   7  12
TORSDOF 3
ENDMDL
MODEL 3
REMARK VINA RESULT:      -6.6      2.510      5.771
REMARK  Name = 
REMARK  3 active torsions:
REMARK  status: ('A' for Active; 'I' for Inactive)
REMARK    1  A    between atoms: N_2  and  N_4
REMARK    2  A    between atoms: N_10  and  C_11
REMARK    3  A    between atoms: C_11  and  C_12
REMARK                            x       y       z     vdW  Elec       q    Type
REMARK                         _______ _______ _______ _____ _____    ______ ____
ROOT
ATOM      1  N   UNL     1       5.728   4.491  15.436  0.00  0.00    +0.000 NA
ATOM      2  C   UNL     1       6.107   4.633  16.667  0.00  0.00    +0.000 C 
ATOM      3  N   UNL     1       7.393   4.750  17.145  0.00  0.00    +0.000 N 
ATOM      4  C   UNL     1       7.726   5.639  18.235  0.00  0.00    +0.000 C 
ATOM      5  C   UNL     1       6.759   5.429  19.376  0.00  0.00    +0.000 C 
ATOM      6  C   UNL     1       5.342   5.518  18.836  0.00  0.00    +0.000 C 
ATOM      7  N   UNL     1       5.162   4.622  17.689  0.00  0.00    +0.000 N 
ATOM      8  H   UNL     1       8.092   4.804  16.399  0.00  0.00    +0.000 HD
ENDROOT
BRANCH   1  10
ATOM      9  O   UNL     1       6.520   3.731  13.527  0.00  0.00    +0.000 OA
ATOM     10  N   UNL     1       6.634   4.556  14.443  0.00  0.00    +0.000 N 
ATOM     11  O   UNL     1       7.528   5.418  14.433  0.00  0.00    +0.000 OA
ENDBRANCH   1  10
BRANCH   7  12
ATOM     12  C   UNL     1       4.413   3.380  17.942  0.00  0.00    +0.000 C 
BRANCH  12  13
ATOM     13  C   UNL     1       2.958   3.336  17.446  0.00  0.00    +0.000 C 
ATOM     14  C   UNL     1       2.096   4.513  17.850  0.00  0.00    +0.000 C 
ATOM     15  C   UNL     1       1.386   4.025  19.091  0.00  0.00    +0.000 C 
ATOM     16  O   UNL     1       1.263   2.601  18.970  0.00  0.00    +0.000 OA
ATOM     17  C   UNL     1       2.129   2.154  17.919  0.00  0.00    +0.000 C 
ENDBRANCH  12  13
ENDBRANCH   7  12
TORSDOF 3
ENDMDL
MODEL 4
REMARK VINA RESULT:      -6.5      2.417      5.671
REMARK  Name = 
REMARK  3 active torsions:
REMARK  status: ('A' for Active; 'I' for Inactive)
REMARK    1  A    between atoms: N_2  and  N_4
REMARK    2  A    between atoms: N_10  and  C_11
REMARK    3  A    between atoms: C_11  and  C_12
REMARK                            x       y       z     vdW  Elec       q    Type
REMARK                         _______ _______ _______ _____ _____    ______ ____
ROOT
ATOM      1  N   UNL     1       5.593   4.967  15.177  0.00  0.00    +0.000 NA
ATOM      2  C   UNL     1       5.858   4.899  16.444  0.00  0.00    +0.000 C 
ATOM      3  N   UNL     1       6.997   4.409  17.042  0.00  0.00    +0.000 N 
ATOM      4  C   UNL     1       7.572   5.029  18.215  0.00  0.00    +0.000 C 
ATOM      5  C   UNL     1       6.494   5.259  19.248  0.00  0.00    +0.000 C 
ATOM      6  C   UNL     1       5.337   5.991  18.590  0.00  0.00    +0.000 C 
ATOM      7  N   UNL     1       4.902   5.297  17.374  0.00  0.00    +0.000 N 
ATOM      8  H   UNL     1       7.723   4.156  16.367  0.00  0.00    +0.000 HD
ENDROOT
BRANCH   1  10
ATOM      9  O   UNL     1       6.275   3.689  13.519  0.00  0.00    +0.000 OA
ATOM     10  N   UNL     1       6.535   4.634  14.276  0.00  0.00    +0.000 N 
ATOM     11  O   UNL     1       7.605   5.259  14.191  0.00  0.00    +0.000 OA
ENDBRANCH   1  10
BRANCH   7  12
ATOM     12  C   UNL     1       3.652   4.526  17.475  0.00  0.00    +0.000 C 
BRANCH  12  13
ATOM     13  C   UNL     1       3.778   3.061  17.929  0.00  0.00    +0.000 C 
ATOM     14  C   UNL     1       2.608   2.167  17.578  0.00  0.00    +0.000 C 
ATOM     15  C   UNL     1       1.761   2.183  18.829  0.00  0.00    +0.000 C 
ATOM     16  O   UNL     1       2.649   2.396  19.933  0.00  0.00    +0.000 OA
ATOM     17  C   UNL     1       3.915   2.838  19.425  0.00  0.00    +0.000 C 
ENDBRANCH  12  13
ENDBRANCH   7  12
TORSDOF 3
ENDMDL
MODEL 5
REMARK VINA RESULT:      -6.4      3.102      4.076
REMARK  Name = 
REMARK  3 active torsions:
REMARK  status: ('A' for Active; 'I' for Inactive)
REMARK    1  A    between atoms: N_2  and  N_4
REMARK    2  A    between atoms: N_10  and  C_11
REMARK    3  A    between atoms: C_11  and  C_12
REMARK                            x       y       z     vdW  Elec       q    Type
REMARK                         _______ _______ _______ _____ _____    ______ ____
ROOT
ATOM      1  N   UNL     1       3.762   6.999  17.953  0.00  0.00    +0.000 NA
ATOM      2  C   UNL     1       3.489   5.733  18.005  0.00  0.00    +0.000 C 
ATOM      3  N   UNL     1       2.287   5.142  18.324  0.00  0.00    +0.000 N 
ATOM      4  C   UNL     1       1.814   3.956  17.645  0.00  0.00    +0.000 C 
ATOM      5  C   UNL     1       2.914   2.921  17.604  0.00  0.00    +0.000 C 
ATOM      6  C   UNL     1       4.170   3.567  17.047  0.00  0.00    +0.000 C 
ATOM      7  N   UNL     1       4.494   4.798  17.777  0.00  0.00    +0.000 N 
ATOM      8  H   UNL     1       1.531   5.820  18.449  0.00  0.00    +0.000 HD
ENDROOT
BRANCH   1  10
ATOM      9  O   UNL     1       2.195   7.901  19.211  0.00  0.00    +0.000 OA
ATOM     10  N   UNL     1       2.780   7.904  18.120  0.00  0.00    +0.000 N 
ATOM     11  O   UNL     1       2.490   8.721  17.229  0.00  0.00    +0.000 OA
ENDBRANCH   1  10
BRANCH   7  12
ATOM     12  C   UNL     1       5.609   4.714  18.734  0.00  0.00    +0.000 C 
BRANCH  12  13
ATOM     13  C   UNL     1       7.023   4.934  18.170  0.00  0.00    +0.000 C 
ATOM     14  C   UNL     1       7.723   6.192  18.637  0.00  0.00    +0.000 C 
ATOM     15  C   UNL     1       7.438   7.187  17.535  0.00  0.00    +0.000 C 
ATOM     16  O   UNL     1       7.284   6.436  16.324  0.00  0.00    +0.000 OA
ATOM     17  C   UNL     1       7.125   5.051  16.659  0.00  0.00    +0.000 C 
ENDBRANCH  12  13
ENDBRANCH   7  12
TORSDOF 3
ENDMDL
MODEL 6
REMARK VINA RESULT:      -6.4      1.111      1.290
REMARK  Name = 
REMARK  3 active torsions:
REMARK  status: ('A' for Active; 'I' for Inactive)
REMARK    1  A    between atoms: N_2  and  N_4
REMARK    2  A    between atoms: N_10  and  C_11
REMARK    3  A    between atoms: C_11  and  C_12
REMARK                            x       y       z     vdW  Elec       q    Type
REMARK                         _______ _______ _______ _____ _____    ______ ____
ROOT
ATOM      1  N   UNL     1       4.725   2.948  19.737  0.00  0.00    +0.000 NA
ATOM      2  C   UNL     1       3.677   3.183  19.012  0.00  0.00    +0.000 C 
ATOM      3  N   UNL     1       2.471   2.518  19.032  0.00  0.00    +0.000 N 
ATOM      4  C   UNL     1       1.213   3.212  18.876  0.00  0.00    +0.000 C 
ATOM      5  C   UNL     1       1.285   4.132  17.680  0.00  0.00    +0.000 C 
ATOM      6  C   UNL     1       2.527   4.998  17.806  0.00  0.00    +0.000 C 
ATOM      7  N   UNL     1       3.718   4.173  18.035  0.00  0.00    +0.000 N 
ATOM      8  H   UNL     1       2.415   1.818  19.777  0.00  0.00    +0.000 HD
ENDROOT
BRANCH   1  10
ATOM      9  O   UNL     1       3.727   2.116  21.515  0.00  0.00    +0.000 OA
ATOM     10  N   UNL     1       4.670   2.028  20.718  0.00  0.00    +0.000 N 
ATOM     11  O   UNL     1       5.512   1.119  20.805  0.00  0.00    +0.000 OA
ENDBRANCH   1  10
BRANCH   7  12
ATOM     12  C   UNL     1       4.617   3.991  16.884  0.00  0.00    +0.000 C 
BRANCH  12  13
ATOM     13  C   UNL     1       5.691   5.070  16.668  0.00  0.00    +0.000 C 
ATOM     14  C   UNL     1       7.101   4.556  16.471  0.00  0.00    +0.000 C 
ATOM     15  C   UNL     1       7.705   4.637  17.854  0.00  0.00    +0.000 C 
ATOM     16  O   UNL     1       7.045   5.710  18.537  0.00  0.00    +0.000 OA
ATOM     17  C   UNL     1       5.869   6.068  17.799  0.00  0.00    +0.000 C 
ENDBRANCH  12  13
ENDBRANCH   7  12
TORSDOF 3
ENDMDL
MODEL 7
REMARK VINA RESULT:      -6.4      2.412      5.169
REMARK  Name = 
REMARK  3 active torsions:
REMARK  status: ('A' for Active; 'I' for Inactive)
REMARK    1  A    between atoms: N_2  and  N_4
REMARK    2  A    between atoms: N_10  and  C_11
REMARK    3  A    between atoms: C_11  and  C_12
REMARK                            x       y       z     vdW  Elec       q    Type
REMARK                         _______ _______ _______ _____ _____    ______ ____
ROOT
ATOM      1  N   UNL     1       6.731   4.988  18.720  0.00  0.00    +0.000 NA
ATOM      2  C   UNL     1       6.478   4.951  17.449  0.00  0.00    +0.000 C 
ATOM      3  N   UNL     1       7.163   5.580  16.434  0.00  0.00    +0.000 N 
ATOM      4  C   UNL     1       7.383   4.947  15.153  0.00  0.00    +0.000 C 
ATOM      5  C   UNL     1       6.083   4.380  14.636  0.00  0.00    +0.000 C 
ATOM      6  C   UNL     1       5.460   3.519  15.722  0.00  0.00    +0.000 C 
ATOM      7  N   UNL     1       5.364   4.258  16.985  0.00  0.00    +0.000 N 
ATOM      8  H   UNL     1       8.009   6.055  16.760  0.00  0.00    +0.000 HD
ENDROOT
BRANCH   1  10
ATOM      9  O   UNL     1       8.021   6.772  18.774  0.00  0.00    +0.000 OA
ATOM     10  N   UNL     1       7.837   5.613  19.166  0.00  0.00    +0.000 N 
ATOM     11  O   UNL     1       8.623   5.060  19.953  0.00  0.00    +0.000 OA
ENDBRANCH   1  10
BRANCH   7  12
ATOM     12  C   UNL     1       4.025   4.746  17.355  0.00  0.00    +0.000 C 
BRANCH  12  13
ATOM     13  C   UNL     1       2.892   3.706  17.377  0.00  0.00    +0.000 C 
ATOM     14  C   UNL     1       1.532   4.232  17.783  0.00  0.00    +0.000 C 
ATOM     15  C   UNL     1       1.458   3.924  19.260  0.00  0.00    +0.000 C 
ATOM     16  O   UNL     1       2.264   2.760  19.486  0.00  0.00    +0.000 OA
ATOM     17  C   UNL     1       3.081   2.537  18.329  0.00  0.00    +0.000 C 
ENDBRANCH  12  13
ENDBRANCH   7  12
TORSDOF 3
ENDMDL
MODEL 8
REMARK VINA RESULT:      -6.4      2.703      5.079
REMARK  Name = 
REMARK  3 active torsions:
REMARK  status: ('A' for Active; 'I' for Inactive)
REMARK    1  A    between atoms: N_2  and  N_4
REMARK    2  A    between atoms: N_10  and  C_11
REMARK    3  A    between atoms: C_11  and  C_12
REMARK                            x       y       z     vdW  Elec       q    Type
REMARK                         _______ _______ _______ _____ _____    ______ ____
ROOT
ATOM      1  N   UNL     1       6.693   5.210  18.678  0.00  0.00    +0.000 NA
ATOM      2  C   UNL     1       6.446   5.165  17.406  0.00  0.00    +0.000 C 
ATOM      3  N   UNL     1       7.199   5.693  16.381  0.00  0.00    +0.000 N 
ATOM      4  C   UNL     1       7.361   5.006  15.120  0.00  0.00    +0.000 C 
ATOM      5  C   UNL     1       6.012   4.562  14.605  0.00  0.00    +0.000 C 
ATOM      6  C   UNL     1       5.298   3.798  15.707  0.00  0.00    +0.000 C 
ATOM      7  N   UNL     1       5.270   4.577  16.950  0.00  0.00    +0.000 N 
ATOM      8  H   UNL     1       8.087   6.087  16.702  0.00  0.00    +0.000 HD
ENDROOT
BRANCH   1  10
ATOM      9  O   UNL     1       8.132   6.876  18.741  0.00  0.00    +0.000 OA
ATOM     10  N   UNL     1       7.854   5.730  19.117  0.00  0.00    +0.000 N 
ATOM     11  O   UNL     1       8.601   5.098  19.884  0.00  0.00    +0.000 OA
ENDBRANCH   1  10
BRANCH   7  12
ATOM     12  C   UNL     1       3.986   5.209  17.295  0.00  0.00    +0.000 C 
BRANCH  12  13
ATOM     13  C   UNL     1       3.148   4.523  18.387  0.00  0.00    +0.000 C 
ATOM     14  C   UNL     1       3.582   3.121  18.757  0.00  0.00    +0.000 C 
ATOM     15  C   UNL     1       2.687   2.239  17.918  0.00  0.00    +0.000 C 
ATOM     16  O   UNL     1       1.465   2.960  17.710  0.00  0.00    +0.000 OA
ATOM     17  C   UNL     1       1.675   4.330  18.073  0.00  0.00    +0.000 C 
ENDBRANCH  12  13
ENDBRANCH   7  12
TORSDOF 3
ENDMDL
MODEL 9
REMARK VINA RESULT:      -6.3      2.454      5.605
REMARK  Name = 
REMARK  3 active torsions:
REMARK  status: ('A' for Active; 'I' for Inactive)
REMARK    1  A    between atoms: N_2  and  N_4
REMARK    2  A    between atoms: N_10  and  C_11
REMARK    3  A    between atoms: C_11  and  C_12
REMARK                            x       y       z     vdW  Elec       q    Type
REMARK                         _______ _______ _______ _____ _____    ______ ____
ROOT
ATOM      1  N   UNL     1       6.594   6.206  17.908  0.00  0.00    +0.000 NA
ATOM      2  C   UNL     1       6.310   5.631  16.782  0.00  0.00    +0.000 C 
ATOM      3  N   UNL     1       6.784   5.948  15.529  0.00  0.00    +0.000 N 
ATOM      4  C   UNL     1       7.101   4.932  14.551  0.00  0.00    +0.000 C 
ATOM      5  C   UNL     1       5.957   3.951  14.447  0.00  0.00    +0.000 C 
ATOM      6  C   UNL     1       5.603   3.466  15.842  0.00  0.00    +0.000 C 
ATOM      7  N   UNL     1       5.379   4.596  16.749  0.00  0.00    +0.000 N 
ATOM      8  H   UNL     1       7.501   6.677  15.548  0.00  0.00    +0.000 HD
ENDROOT
BRANCH   1  10
ATOM      9  O   UNL     1       8.411   7.057  18.815  0.00  0.00    +0.000 OA
ATOM     10  N   UNL     1       7.533   7.170  17.950  0.00  0.00    +0.000 N 
ATOM     11  O   UNL     1       7.532   8.115  17.144  0.00  0.00    +0.000 OA
ENDBRANCH   1  10
BRANCH   7  12
ATOM     12  C   UNL     1       3.977   4.898  17.082  0.00  0.00    +0.000 C 
BRANCH  12  13
ATOM     13  C   UNL     1       3.112   3.721  17.563  0.00  0.00    +0.000 C 
ATOM     14  C   UNL     1       1.666   4.053  17.860  0.00  0.00    +0.000 C 
ATOM     15  C   UNL     1       1.657   4.297  19.352  0.00  0.00    +0.000 C 
ATOM     16  O   UNL     1       2.707   3.498  19.912  0.00  0.00    +0.000 OA
ATOM     17  C   UNL     1       3.558   3.050  18.850  0.00  0.00    +0.000 C 
ENDBRANCH  12  13
ENDBRANCH   7  12
TORSDOF 3
ENDMDL
