MODEL 1
REMARK VINA RESULT:      -7.7      0.000      0.000
REMARK  Name = 
REMARK  13 active torsions:
REMARK  status: ('A' for Active; 'I' for Inactive)
REMARK    1  A    between atoms: C_1  and  C_2
REMARK    2  A    between atoms: C_2  and  C_3
REMARK    3  A    between atoms: C_2  and  N_4
REMARK    4  A    between atoms: N_4  and  C_32
REMARK    5  A    between atoms: C_5  and  C_7
REMARK    6  A    between atoms: C_7  and  N_8
REMARK    7  A    between atoms: C_10  and  S_11
REMARK    8  A    between atoms: S_11  and  C_14
REMARK    9  A    between atoms: C_14  and  C_15
REMARK   10  A    between atoms: N_17  and  C_18
REMARK   11  A    between atoms: C_18  and  C_19
REMARK   12  A    between atoms: C_32  and  C_33
REMARK   13  A    between atoms: C_32  and  C_34
REMARK                            x       y       z     vdW  Elec       q    Type
REMARK                         _______ _______ _______ _____ _____    ______ ____
ROOT
ATOM      1  N   UNL     1      -3.709  12.252  19.418  0.00  0.00    +0.000 N 
ATOM      2  C   UNL     1      -2.569  12.139  20.169  0.00  0.00    +0.000 A 
ATOM      3  C   UNL     1      -1.669  11.361  19.462  0.00  0.00    +0.000 A 
ATOM      4  C   UNL     1      -2.269  11.013  18.217  0.00  0.00    +0.000 A 
ATOM      5  C   UNL     1      -1.846  10.272  17.087  0.00  0.00    +0.000 A 
ATOM      6  C   UNL     1      -2.689  10.147  15.981  0.00  0.00    +0.000 A 
ATOM      7  C   UNL     1      -3.945  10.731  15.985  0.00  0.00    +0.000 A 
ATOM      8  C   UNL     1      -4.393  11.461  17.093  0.00  0.00    +0.000 A 
ATOM      9  C   UNL     1      -3.542  11.594  18.204  0.00  0.00    +0.000 A 
ENDROOT
BRANCH   3  10
ATOM     10  S   UNL     1      -0.084  10.932  19.982  0.00  0.00    +0.000 S 
ATOM     11  O   UNL     1       0.503  10.165  18.901  0.00  0.00    +0.000 OA
ATOM     12  O   UNL     1       0.499  12.187  20.430  0.00  0.00    +0.000 OA
BRANCH  10  13
ATOM     13  C   UNL     1      -0.270   9.896  21.393  0.00  0.00    +0.000 C 
BRANCH  13  14
ATOM     14  C   UNL     1       0.949   9.053  21.586  0.00  0.00    +0.000 C 
ATOM     15  O   UNL     1       1.892   9.413  22.295  0.00  0.00    +0.000 OA
ATOM     16  N   UNL     1       0.982   7.883  20.863  0.00  0.00    +0.000 N 
ATOM     17  H   UNL     1       0.250   7.656  20.203  0.00  0.00    +0.000 HD
BRANCH  16  18
ATOM     18  C   UNL     1       2.080   6.951  21.013  0.00  0.00    +0.000 C 
BRANCH  18  19
ATOM     19  C   UNL     1       1.892   5.703  20.186  0.00  0.00    +0.000 A 
ATOM     20  C   UNL     1       2.295   5.651  18.842  0.00  0.00    +0.000 A 
ATOM     21  C   UNL     1       2.094   4.491  18.086  0.00  0.00    +0.000 A 
ATOM     22  C   UNL     1       1.480   3.387  18.668  0.00  0.00    +0.000 A 
ATOM     23  F   UNL     1       1.276   2.283  17.936  0.00  0.00    +0.000 F 
ATOM     24  C   UNL     1       1.076   3.413  19.995  0.00  0.00    +0.000 A 
ATOM     25  C   UNL     1       1.281   4.567  20.751  0.00  0.00    +0.000 A 
ENDBRANCH  18  19
ENDBRANCH  16  18
ENDBRANCH  13  14
ENDBRANCH  10  13
ENDBRANCH   3  10
BRANCH   1  26
ATOM     26  C   UNL     1      -4.871  13.065  19.795  0.00  0.00    +0.000 C 
BRANCH  26  28
ATOM     27  N   UNL     1      -5.039  13.838  22.209  0.00  0.00    +0.000 N 
ATOM     28  C   UNL     1      -5.363  12.864  21.237  0.00  0.00    +0.000 C 
ATOM     29  O   UNL     1      -5.982  11.838  21.536  0.00  0.00    +0.000 OA
BRANCH  27  31
ATOM     30  C   UNL     1      -6.983  13.460  23.915  0.00  0.00    +0.000 C 
ATOM     31  C   UNL     1      -5.483  13.675  23.637  0.00  0.00    +0.000 C 
ATOM     32  C   UNL     1      -4.711  12.577  24.383  0.00  0.00    +0.000 C 
ENDBRANCH  27  31
BRANCH  27  33
ATOM     33  C   UNL     1      -4.261  15.060  21.845  0.00  0.00    +0.000 C 
ATOM     34  C   UNL     1      -5.108  16.327  22.007  0.00  0.00    +0.000 C 
ATOM     35  C   UNL     1      -2.927  15.264  22.564  0.00  0.00    +0.000 C 
ENDBRANCH  27  33
ENDBRANCH  26  28
ENDBRANCH   1  26
TORSDOF 9
ENDMDL
MODEL 2
REMARK VINA RESULT:      -7.6      6.350      9.532
REMARK  Name = 
REMARK  13 active torsions:
REMARK  status: ('A' for Active; 'I' for Inactive)
REMARK    1  A    between atoms: C_1  and  C_2
REMARK    2  A    between atoms: C_2  and  C_3
REMARK    3  A    between atoms: C_2  and  N_4
REMARK    4  A    between atoms: N_4  and  C_32
REMARK    5  A    between atoms: C_5  and  C_7
REMARK    6  A    between atoms: C_7  and  N_8
REMARK    7  A    between atoms: C_10  and  S_11
REMARK    8  A    between atoms: S_11  and  C_14
REMARK    9  A    between atoms: C_14  and  C_15
REMARK   10  A    between atoms: N_17  and  C_18
REMARK   11  A    between atoms: C_18  and  C_19
REMARK   12  A    between atoms: C_32  and  C_33
REMARK   13  A    between atoms: C_32  and  C_34
REMARK                            x       y       z     vdW  Elec       q    Type
REMARK                         _______ _______ _______ _____ _____    ______ ____
ROOT
ATOM      1  N   UNL     1       3.469   6.887  18.025  0.00  0.00    +0.000 N 
ATOM      2  C   UNL     1       4.821   7.096  17.947  0.00  0.00    +0.000 A 
ATOM      3  C   UNL     1       5.436   5.861  17.841  0.00  0.00    +0.000 A 
ATOM      4  C   UNL     1       4.421   4.861  17.820  0.00  0.00    +0.000 A 
ATOM      5  C   UNL     1       4.424   3.450  17.706  0.00  0.00    +0.000 A 
ATOM      6  C   UNL     1       3.215   2.751  17.679  0.00  0.00    +0.000 A 
ATOM      7  C   UNL     1       2.011   3.427  17.780  0.00  0.00    +0.000 A 
ATOM      8  C   UNL     1       1.978   4.822  17.903  0.00  0.00    +0.000 A 
ATOM      9  C   UNL     1       3.194   5.527  17.921  0.00  0.00    +0.000 A 
ENDROOT
BRANCH   3  10
ATOM     10  S   UNL     1       7.133   5.591  17.710  0.00  0.00    +0.000 S 
ATOM     11  O   UNL     1       7.371   4.256  18.223  0.00  0.00    +0.000 OA
ATOM     12  O   UNL     1       7.447   5.946  16.336  0.00  0.00    +0.000 OA
BRANCH  10  13
ATOM     13  C   UNL     1       7.921   6.765  18.759  0.00  0.00    +0.000 C 
BRANCH  13  14
ATOM     14  C   UNL     1       8.093   8.067  18.047  0.00  0.00    +0.000 C 
ATOM     15  O   UNL     1       7.676   8.250  16.900  0.00  0.00    +0.000 OA
ATOM     16  N   UNL     1       8.810   9.026  18.726  0.00  0.00    +0.000 N 
ATOM     17  H   UNL     1       9.238   8.822  19.619  0.00  0.00    +0.000 HD
BRANCH  16  18
ATOM     18  C   UNL     1       8.989  10.350  18.168  0.00  0.00    +0.000 C 
BRANCH  18  19
ATOM     19  C   UNL     1       9.355  11.371  19.218  0.00  0.00    +0.000 A 
ATOM     20  C   UNL     1       9.389  11.036  20.581  0.00  0.00    +0.000 A 
ATOM     21  C   UNL     1       9.711  12.002  21.540  0.00  0.00    +0.000 A 
ATOM     22  C   UNL     1       9.990  13.304  21.140  0.00  0.00    +0.000 A 
ATOM     23  F   UNL     1      10.284  14.230  22.064  0.00  0.00    +0.000 F 
ATOM     24  C   UNL     1       9.966  13.658  19.799  0.00  0.00    +0.000 A 
ATOM     25  C   UNL     1       9.649  12.695  18.841  0.00  0.00    +0.000 A 
ENDBRANCH  18  19
ENDBRANCH  16  18
ENDBRANCH  13  14
ENDBRANCH  10  13
ENDBRANCH   3  10
BRANCH   1  26
ATOM     26  C   UNL     1       2.467   7.958  18.072  0.00  0.00    +0.000 C 
BRANCH  26  28
ATOM     27  N   UNL     1       0.918   9.250  19.616  0.00  0.00    +0.000 N 
ATOM     28  C   UNL     1       1.779   8.144  19.434  0.00  0.00    +0.000 C 
ATOM     29  O   UNL     1       2.027   7.363  20.357  0.00  0.00    +0.000 OA
BRANCH  27  31
ATOM     30  C   UNL     1      -0.455   8.288  21.622  0.00  0.00    +0.000 C 
ATOM     31  C   UNL     1       0.235   9.483  20.936  0.00  0.00    +0.000 C 
ATOM     32  C   UNL     1       1.152  10.147  21.974  0.00  0.00    +0.000 C 
ENDBRANCH  27  31
BRANCH  27  33
ATOM     33  C   UNL     1       0.649  10.208  18.502  0.00  0.00    +0.000 C 
ATOM     34  C   UNL     1      -0.852  10.486  18.357  0.00  0.00    +0.000 C 
ATOM     35  C   UNL     1       1.394  11.543  18.550  0.00  0.00    +0.000 C 
ENDBRANCH  27  33
ENDBRANCH  26  28
ENDBRANCH   1  26
TORSDOF 9
ENDMDL
MODEL 3
REMARK VINA RESULT:      -7.6      1.818      2.481
REMARK  Name = 
REMARK  13 active torsions:
REMARK  status: ('A' for Active; 'I' for Inactive)
REMARK    1  A    between atoms: C_1  and  C_2
REMARK    2  A    between atoms: C_2  and  C_3
REMARK    3  A    between atoms: C_2  and  N_4
REMARK    4  A    between atoms: N_4  and  C_32
REMARK    5  A    between atoms: C_5  and  C_7
REMARK    6  A    between atoms: C_7  and  N_8
REMARK    7  A    between atoms: C_10  and  S_11
REMARK    8  A    between atoms: S_11  and  C_14
REMARK    9  A    between atoms: C_14  and  C_15
REMARK   10  A    between atoms: N_17  and  C_18
REMARK   11  A    between atoms: C_18  and  C_19
REMARK   12  A    between atoms: C_32  and  C_33
REMARK   13  A    between atoms: C_32  and  C_34
REMARK                            x       y       z     vdW  Elec       q    Type
REMARK                         _______ _______ _______ _____ _____    ______ ____
ROOT
ATOM      1  N   UNL     1      -2.869  12.603  20.097  0.00  0.00    +0.000 N 
ATOM      2  C   UNL     1      -1.602  12.483  20.603  0.00  0.00    +0.000 A 
ATOM      3  C   UNL     1      -0.926  11.547  19.841  0.00  0.00    +0.000 A 
ATOM      4  C   UNL     1      -1.801  11.103  18.808  0.00  0.00    +0.000 A 
ATOM      5  C   UNL     1      -1.678  10.194  17.730  0.00  0.00    +0.000 A 
ATOM      6  C   UNL     1      -2.747  10.009  16.850  0.00  0.00    +0.000 A 
ATOM      7  C   UNL     1      -3.935  10.697  17.033  0.00  0.00    +0.000 A 
ATOM      8  C   UNL     1      -4.088  11.595  18.097  0.00  0.00    +0.000 A 
ATOM      9  C   UNL     1      -3.009  11.789  18.977  0.00  0.00    +0.000 A 
ENDROOT
BRANCH   3  10
ATOM     10  S   UNL     1       0.706  11.047  20.076  0.00  0.00    +0.000 S 
ATOM     11  O   UNL     1       1.440  11.499  18.910  0.00  0.00    +0.000 OA
ATOM     12  O   UNL     1       1.036  11.516  21.412  0.00  0.00    +0.000 OA
BRANCH  10  13
ATOM     13  C   UNL     1       0.703   9.287  20.114  0.00  0.00    +0.000 C 
BRANCH  13  14
ATOM     14  C   UNL     1       1.442   8.739  18.936  0.00  0.00    +0.000 C 
ATOM     15  O   UNL     1       1.230   9.131  17.786  0.00  0.00    +0.000 OA
ATOM     16  N   UNL     1       2.323   7.718  19.211  0.00  0.00    +0.000 N 
ATOM     17  H   UNL     1       2.404   7.335  20.143  0.00  0.00    +0.000 HD
BRANCH  16  18
ATOM     18  C   UNL     1       3.145   7.148  18.164  0.00  0.00    +0.000 C 
BRANCH  18  19
ATOM     19  C   UNL     1       3.149   5.639  18.194  0.00  0.00    +0.000 A 
ATOM     20  C   UNL     1       4.297   4.920  18.565  0.00  0.00    +0.000 A 
ATOM     21  C   UNL     1       4.286   3.521  18.566  0.00  0.00    +0.000 A 
ATOM     22  C   UNL     1       3.135   2.839  18.189  0.00  0.00    +0.000 A 
ATOM     23  F   UNL     1       3.134   1.499  18.178  0.00  0.00    +0.000 F 
ATOM     24  C   UNL     1       1.988   3.528  17.823  0.00  0.00    +0.000 A 
ATOM     25  C   UNL     1       1.994   4.923  17.825  0.00  0.00    +0.000 A 
ENDBRANCH  18  19
ENDBRANCH  16  18
ENDBRANCH  13  14
ENDBRANCH  10  13
ENDBRANCH   3  10
BRANCH   1  26
ATOM     26  C   UNL     1      -3.870  13.556  20.588  0.00  0.00    +0.000 C 
BRANCH  26  28
ATOM     27  N   UNL     1      -6.377  13.149  20.634  0.00  0.00    +0.000 N 
ATOM     28  C   UNL     1      -5.115  12.918  21.226  0.00  0.00    +0.000 C 
ATOM     29  O   UNL     1      -5.002  12.264  22.267  0.00  0.00    +0.000 OA
BRANCH  27  31
ATOM     30  C   UNL     1      -7.766  11.026  21.266  0.00  0.00    +0.000 C 
ATOM     31  C   UNL     1      -7.626  12.560  21.233  0.00  0.00    +0.000 C 
ATOM     32  C   UNL     1      -7.914  13.082  22.648  0.00  0.00    +0.000 C 
ENDBRANCH  27  31
BRANCH  27  33
ATOM     33  C   UNL     1      -6.507  13.969  19.392  0.00  0.00    +0.000 C 
ATOM     34  C   UNL     1      -7.396  13.272  18.356  0.00  0.00    +0.000 C 
ATOM     35  C   UNL     1      -6.992  15.408  19.569  0.00  0.00    +0.000 C 
ENDBRANCH  27  33
ENDBRANCH  26  28
ENDBRANCH   1  26
TORSDOF 9
ENDMDL
MODEL 4
REMARK VINA RESULT:      -7.5      5.602      9.115
REMARK  Name = 
REMARK  13 active torsions:
REMARK  status: ('A' for Active; 'I' for Inactive)
REMARK    1  A    between atoms: C_1  and  C_2
REMARK    2  A    between atoms: C_2  and  C_3
REMARK    3  A    between atoms: C_2  and  N_4
REMARK    4  A    between atoms: N_4  and  C_32
REMARK    5  A    between atoms: C_5  and  C_7
REMARK    6  A    between atoms: C_7  and  N_8
REMARK    7  A    between atoms: C_10  and  S_11
REMARK    8  A    between atoms: S_11  and  C_14
REMARK    9  A    between atoms: C_14  and  C_15
REMARK   10  A    between atoms: N_17  and  C_18
REMARK   11  A    between atoms: C_18  and  C_19
REMARK   12  A    between atoms: C_32  and  C_33
REMARK   13  A    between atoms: C_32  and  C_34
REMARK                            x       y       z     vdW  Elec       q    Type
REMARK                         _______ _______ _______ _____ _____    ______ ____
ROOT
ATOM      1  N   UNL     1       2.917   6.146  18.146  0.00  0.00    +0.000 N 
ATOM      2  C   UNL     1       4.238   6.204  17.789  0.00  0.00    +0.000 A 
ATOM      3  C   UNL     1       4.715   4.907  17.712  0.00  0.00    +0.000 A 
ATOM      4  C   UNL     1       3.636   4.022  17.999  0.00  0.00    +0.000 A 
ATOM      5  C   UNL     1       3.498   2.614  18.049  0.00  0.00    +0.000 A 
ATOM      6  C   UNL     1       2.254   2.046  18.333  0.00  0.00    +0.000 A 
ATOM      7  C   UNL     1       1.155   2.851  18.582  0.00  0.00    +0.000 A 
ATOM      8  C   UNL     1       1.264   4.247  18.548  0.00  0.00    +0.000 A 
ATOM      9  C   UNL     1       2.514   4.819  18.253  0.00  0.00    +0.000 A 
ENDROOT
BRANCH   3  10
ATOM     10  S   UNL     1       6.322   4.450  17.293  0.00  0.00    +0.000 S 
ATOM     11  O   UNL     1       7.015   4.213  18.544  0.00  0.00    +0.000 OA
ATOM     12  O   UNL     1       6.149   3.396  16.306  0.00  0.00    +0.000 OA
BRANCH  10  13
ATOM     13  C   UNL     1       7.052   5.829  16.478  0.00  0.00    +0.000 C 
BRANCH  13  14
ATOM     14  C   UNL     1       6.638   5.865  15.042  0.00  0.00    +0.000 C 
ATOM     15  O   UNL     1       5.578   6.378  14.675  0.00  0.00    +0.000 OA
ATOM     16  N   UNL     1       7.483   5.224  14.164  0.00  0.00    +0.000 N 
ATOM     17  H   UNL     1       8.291   4.715  14.496  0.00  0.00    +0.000 HD
BRANCH  16  18
ATOM     18  C   UNL     1       7.224   5.245  12.740  0.00  0.00    +0.000 C 
BRANCH  18  19
ATOM     19  C   UNL     1       6.878   3.880  12.199  0.00  0.00    +0.000 A 
ATOM     20  C   UNL     1       7.860   3.044  11.643  0.00  0.00    +0.000 A 
ATOM     21  C   UNL     1       7.514   1.790  11.129  0.00  0.00    +0.000 A 
ATOM     22  C   UNL     1       6.188   1.373  11.159  0.00  0.00    +0.000 A 
ATOM     23  F   UNL     1       5.860   0.177  10.652  0.00  0.00    +0.000 F 
ATOM     24  C   UNL     1       5.201   2.179  11.707  0.00  0.00    +0.000 A 
ATOM     25  C   UNL     1       5.544   3.429  12.225  0.00  0.00    +0.000 A 
ENDBRANCH  18  19
ENDBRANCH  16  18
ENDBRANCH  13  14
ENDBRANCH  10  13
ENDBRANCH   3  10
BRANCH   1  26
ATOM     26  C   UNL     1       2.038   7.316  18.258  0.00  0.00    +0.000 C 
BRANCH  26  28
ATOM     27  N   UNL     1       1.085   8.978  19.926  0.00  0.00    +0.000 N 
ATOM     28  C   UNL     1       1.658   7.707  19.695  0.00  0.00    +0.000 C 
ATOM     29  O   UNL     1       1.906   6.934  20.626  0.00  0.00    +0.000 OA
BRANCH  27  31
ATOM     30  C   UNL     1      -0.519   8.765  21.980  0.00  0.00    +0.000 C 
ATOM     31  C   UNL     1       0.713   9.412  21.318  0.00  0.00    +0.000 C 
ATOM     32  C   UNL     1       1.881   9.304  22.310  0.00  0.00    +0.000 C 
ENDBRANCH  27  31
BRANCH  27  33
ATOM     33  C   UNL     1       0.819   9.919  18.797  0.00  0.00    +0.000 C 
ATOM     34  C   UNL     1      -0.599  10.495  18.876  0.00  0.00    +0.000 C 
ATOM     35  C   UNL     1       1.809  11.071  18.617  0.00  0.00    +0.000 C 
ENDBRANCH  27  33
ENDBRANCH  26  28
ENDBRANCH   1  26
TORSDOF 9
ENDMDL
MODEL 5
REMARK VINA RESULT:      -7.5      6.408      9.431
REMARK  Name = 
REMARK  13 active torsions:
REMARK  status: ('A' for Active; 'I' for Inactive)
REMARK    1  A    between atoms: C_1  and  C_2
REMARK    2  A    between atoms: C_2  and  C_3
REMARK    3  A    between atoms: C_2  and  N_4
REMARK    4  A    between atoms: N_4  and  C_32
REMARK    5  A    between atoms: C_5  and  C_7
REMARK    6  A    between atoms: C_7  and  N_8
REMARK    7  A    between atoms: C_10  and  S_11
REMARK    8  A    between atoms: S_11  and  C_14
REMARK    9  A    between atoms: C_14  and  C_15
REMARK   10  A    between atoms: N_17  and  C_18
REMARK   11  A    between atoms: C_18  and  C_19
REMARK   12  A    between atoms: C_32  and  C_33
REMARK   13  A    between atoms: C_32  and  C_34
REMARK                            x       y       z     vdW  Elec       q    Type
REMARK                         _______ _______ _______ _____ _____    ______ ____
ROOT
ATOM      1  N   UNL     1       3.064   6.893  17.822  0.00  0.00    +0.000 N 
ATOM      2  C   UNL     1       4.343   7.164  17.413  0.00  0.00    +0.000 A 
ATOM      3  C   UNL     1       4.985   5.958  17.195  0.00  0.00    +0.000 A 
ATOM      4  C   UNL     1       4.053   4.910  17.446  0.00  0.00    +0.000 A 
ATOM      5  C   UNL     1       4.108   3.497  17.373  0.00  0.00    +0.000 A 
ATOM      6  C   UNL     1       2.970   2.739  17.658  0.00  0.00    +0.000 A 
ATOM      7  C   UNL     1       1.789   3.360  18.029  0.00  0.00    +0.000 A 
ATOM      8  C   UNL     1       1.707   4.755  18.119  0.00  0.00    +0.000 A 
ATOM      9  C   UNL     1       2.850   5.518  17.823  0.00  0.00    +0.000 A 
ENDROOT
BRANCH   3  10
ATOM     10  S   UNL     1       6.612   5.766  16.664  0.00  0.00    +0.000 S 
ATOM     11  O   UNL     1       7.276   4.966  17.675  0.00  0.00    +0.000 OA
ATOM     12  O   UNL     1       6.490   5.308  15.289  0.00  0.00    +0.000 OA
BRANCH  10  13
ATOM     13  C   UNL     1       7.333   7.372  16.630  0.00  0.00    +0.000 C 
BRANCH  13  14
ATOM     14  C   UNL     1       7.987   7.677  17.939  0.00  0.00    +0.000 C 
ATOM     15  O   UNL     1       8.106   6.831  18.828  0.00  0.00    +0.000 OA
ATOM     16  N   UNL     1       8.383   8.984  18.114  0.00  0.00    +0.000 N 
ATOM     17  H   UNL     1       8.180   9.689  17.418  0.00  0.00    +0.000 HD
BRANCH  16  18
ATOM     18  C   UNL     1       9.086   9.389  19.313  0.00  0.00    +0.000 C 
BRANCH  18  19
ATOM     19  C   UNL     1       9.612  10.801  19.221  0.00  0.00    +0.000 A 
ATOM     20  C   UNL     1      10.071  11.331  18.004  0.00  0.00    +0.000 A 
ATOM     21  C   UNL     1      10.573  12.635  17.945  0.00  0.00    +0.000 A 
ATOM     22  C   UNL     1      10.628  13.407  19.100  0.00  0.00    +0.000 A 
ATOM     23  F   UNL     1      11.124  14.650  19.041  0.00  0.00    +0.000 F 
ATOM     24  C   UNL     1      10.177  12.906  20.313  0.00  0.00    +0.000 A 
ATOM     25  C   UNL     1       9.671  11.608  20.374  0.00  0.00    +0.000 A 
ENDBRANCH  18  19
ENDBRANCH  16  18
ENDBRANCH  13  14
ENDBRANCH  10  13
ENDBRANCH   3  10
BRANCH   1  26
ATOM     26  C   UNL     1       2.043   7.915  18.081  0.00  0.00    +0.000 C 
BRANCH  26  28
ATOM     27  N   UNL     1       0.952   9.227  19.963  0.00  0.00    +0.000 N 
ATOM     28  C   UNL     1       1.620   8.050  19.553  0.00  0.00    +0.000 C 
ATOM     29  O   UNL     1       1.913   7.163  20.359  0.00  0.00    +0.000 OA
BRANCH  27  31
ATOM     30  C   UNL     1      -0.573   8.499  21.958  0.00  0.00    +0.000 C 
ATOM     31  C   UNL     1       0.534   9.412  21.396  0.00  0.00    +0.000 C 
ATOM     32  C   UNL     1       1.715   9.362  22.375  0.00  0.00    +0.000 C 
ENDBRANCH  27  31
BRANCH  27  33
ATOM     33  C   UNL     1       0.630  10.310  18.987  0.00  0.00    +0.000 C 
ATOM     34  C   UNL     1      -0.871  10.352  18.678  0.00  0.00    +0.000 C 
ATOM     35  C   UNL     1       1.098  11.720  19.348  0.00  0.00    +0.000 C 
ENDBRANCH  27  33
ENDBRANCH  26  28
ENDBRANCH   1  26
TORSDOF 9
ENDMDL
MODEL 6
REMARK VINA RESULT:      -7.4      3.360      9.309
REMARK  Name = 
REMARK  13 active torsions:
REMARK  status: ('A' for Active; 'I' for Inactive)
REMARK    1  A    between atoms: C_1  and  C_2
REMARK    2  A    between atoms: C_2  and  C_3
REMARK    3  A    between atoms: C_2  and  N_4
REMARK    4  A    between atoms: N_4  and  C_32
REMARK    5  A    between atoms: C_5  and  C_7
REMARK    6  A    between atoms: C_7  and  N_8
REMARK    7  A    between atoms: C_10  and  S_11
REMARK    8  A    between atoms: S_11  and  C_14
REMARK    9  A    between atoms: C_14  and  C_15
REMARK   10  A    between atoms: N_17  and  C_18
REMARK   11  A    between atoms: C_18  and  C_19
REMARK   12  A    between atoms: C_32  and  C_33
REMARK   13  A    between atoms: C_32  and  C_34
REMARK                            x       y       z     vdW  Elec       q    Type
REMARK                         _______ _______ _______ _____ _____    ______ ____
ROOT
ATOM      1  N   UNL     1       1.159   8.874  19.882  0.00  0.00    +0.000 N 
ATOM      2  C   UNL     1       0.582   9.512  18.815  0.00  0.00    +0.000 A 
ATOM      3  C   UNL     1      -0.402  10.353  19.304  0.00  0.00    +0.000 A 
ATOM      4  C   UNL     1      -0.405  10.251  20.724  0.00  0.00    +0.000 A 
ATOM      5  C   UNL     1      -1.148  10.868  21.760  0.00  0.00    +0.000 A 
ATOM      6  C   UNL     1      -0.868  10.565  23.094  0.00  0.00    +0.000 A 
ATOM      7  C   UNL     1       0.123   9.651  23.414  0.00  0.00    +0.000 A 
ATOM      8  C   UNL     1       0.867   9.019  22.410  0.00  0.00    +0.000 A 
ATOM      9  C   UNL     1       0.592   9.331  21.067  0.00  0.00    +0.000 A 
ENDROOT
BRANCH   3  10
ATOM     10  S   UNL     1      -1.412  11.377  18.355  0.00  0.00    +0.000 S 
ATOM     11  O   UNL     1      -1.520  10.746  17.054  0.00  0.00    +0.000 OA
ATOM     12  O   UNL     1      -2.580  11.603  19.192  0.00  0.00    +0.000 OA
BRANCH  10  13
ATOM     13  C   UNL     1      -0.570  12.914  18.187  0.00  0.00    +0.000 C 
BRANCH  13  14
ATOM     14  C   UNL     1      -0.664  13.701  19.454  0.00  0.00    +0.000 C 
ATOM     15  O   UNL     1       0.279  13.791  20.244  0.00  0.00    +0.000 OA
ATOM     16  N   UNL     1      -1.894  14.260  19.716  0.00  0.00    +0.000 N 
ATOM     17  H   UNL     1      -2.686  14.085  19.112  0.00  0.00    +0.000 HD
BRANCH  16  18
ATOM     18  C   UNL     1      -2.093  15.098  20.880  0.00  0.00    +0.000 C 
BRANCH  18  19
ATOM     19  C   UNL     1      -2.701  14.342  22.035  0.00  0.00    +0.000 A 
ATOM     20  C   UNL     1      -2.117  14.369  23.313  0.00  0.00    +0.000 A 
ATOM     21  C   UNL     1      -2.685  13.644  24.366  0.00  0.00    +0.000 A 
ATOM     22  C   UNL     1      -3.829  12.886  24.144  0.00  0.00    +0.000 A 
ATOM     23  F   UNL     1      -4.362  12.182  25.152  0.00  0.00    +0.000 F 
ATOM     24  C   UNL     1      -4.426  12.847  22.892  0.00  0.00    +0.000 A 
ATOM     25  C   UNL     1      -3.864  13.572  21.841  0.00  0.00    +0.000 A 
ENDBRANCH  18  19
ENDBRANCH  16  18
ENDBRANCH  13  14
ENDBRANCH  10  13
ENDBRANCH   3  10
BRANCH   1  26
ATOM     26  C   UNL     1       2.298   7.955  19.779  0.00  0.00    +0.000 C 
BRANCH  26  28
ATOM     27  N   UNL     1       2.837   5.481  19.581  0.00  0.00    +0.000 N 
ATOM     28  C   UNL     1       1.972   6.483  20.077  0.00  0.00    +0.000 C 
ATOM     29  O   UNL     1       0.941   6.196  20.692  0.00  0.00    +0.000 OA
BRANCH  27  31
ATOM     30  C   UNL     1       2.283   3.573  21.280  0.00  0.00    +0.000 C 
ATOM     31  C   UNL     1       2.549   4.025  19.832  0.00  0.00    +0.000 C 
ATOM     32  C   UNL     1       1.408   3.482  18.960  0.00  0.00    +0.000 C 
ENDBRANCH  27  31
BRANCH  27  33
ATOM     33  C   UNL     1       4.066   5.836  18.810  0.00  0.00    +0.000 C 
ATOM     34  C   UNL     1       5.290   5.076  19.332  0.00  0.00    +0.000 C 
ATOM     35  C   UNL     1       3.994   5.670  17.291  0.00  0.00    +0.000 C 
ENDBRANCH  27  33
ENDBRANCH  26  28
ENDBRANCH   1  26
TORSDOF 9
ENDMDL
MODEL 7
REMARK VINA RESULT:      -7.3      0.872      1.063
REMARK  Name = 
REMARK  13 active torsions:
REMARK  status: ('A' for Active; 'I' for Inactive)
REMARK    1  A    between atoms: C_1  and  C_2
REMARK    2  A    between atoms: C_2  and  C_3
REMARK    3  A    between atoms: C_2  and  N_4
REMARK    4  A    between atoms: N_4  and  C_32
REMARK    5  A    between atoms: C_5  and  C_7
REMARK    6  A    between atoms: C_7  and  N_8
REMARK    7  A    between atoms: C_10  and  S_11
REMARK    8  A    between atoms: S_11  and  C_14
REMARK    9  A    between atoms: C_14  and  C_15
REMARK   10  A    between atoms: N_17  and  C_18
REMARK   11  A    between atoms: C_18  and  C_19
REMARK   12  A    between atoms: C_32  and  C_33
REMARK   13  A    between atoms: C_32  and  C_34
REMARK                            x       y       z     vdW  Elec       q    Type
REMARK                         _______ _______ _______ _____ _____    ______ ____
ROOT
ATOM      1  N   UNL     1      -3.389  12.327  19.679  0.00  0.00    +0.000 N 
ATOM      2  C   UNL     1      -2.249  12.133  20.413  0.00  0.00    +0.000 A 
ATOM      3  C   UNL     1      -1.421  11.286  19.698  0.00  0.00    +0.000 A 
ATOM      4  C   UNL     1      -2.064  10.978  18.464  0.00  0.00    +0.000 A 
ATOM      5  C   UNL     1      -1.715  10.202  17.332  0.00  0.00    +0.000 A 
ATOM      6  C   UNL     1      -2.582  10.136  16.239  0.00  0.00    +0.000 A 
ATOM      7  C   UNL     1      -3.791  10.811  16.259  0.00  0.00    +0.000 A 
ATOM      8  C   UNL     1      -4.166  11.579  17.369  0.00  0.00    +0.000 A 
ATOM      9  C   UNL     1      -3.290  11.653  18.466  0.00  0.00    +0.000 A 
ENDROOT
BRANCH   3  10
ATOM     10  S   UNL     1       0.136  10.742  20.196  0.00  0.00    +0.000 S 
ATOM     11  O   UNL     1       0.955  10.710  19.001  0.00  0.00    +0.000 OA
ATOM     12  O   UNL     1       0.469  11.595  21.326  0.00  0.00    +0.000 OA
BRANCH  10  13
ATOM     13  C   UNL     1      -0.065   9.103  20.806  0.00  0.00    +0.000 C 
BRANCH  13  14
ATOM     14  C   UNL     1       1.247   8.387  20.817  0.00  0.00    +0.000 C 
ATOM     15  O   UNL     1       1.922   8.267  21.842  0.00  0.00    +0.000 OA
ATOM     16  N   UNL     1       1.685   7.932  19.594  0.00  0.00    +0.000 N 
ATOM     17  H   UNL     1       1.172   8.134  18.747  0.00  0.00    +0.000 HD
BRANCH  16  18
ATOM     18  C   UNL     1       2.910   7.167  19.485  0.00  0.00    +0.000 C 
BRANCH  18  19
ATOM     19  C   UNL     1       2.654   5.714  19.171  0.00  0.00    +0.000 A 
ATOM     20  C   UNL     1       3.240   4.688  19.931  0.00  0.00    +0.000 A 
ATOM     21  C   UNL     1       3.006   3.347  19.611  0.00  0.00    +0.000 A 
ATOM     22  C   UNL     1       2.196   3.028  18.526  0.00  0.00    +0.000 A 
ATOM     23  F   UNL     1       1.986   1.741  18.214  0.00  0.00    +0.000 F 
ATOM     24  C   UNL     1       1.604   4.023  17.763  0.00  0.00    +0.000 A 
ATOM     25  C   UNL     1       1.832   5.361  18.083  0.00  0.00    +0.000 A 
ENDBRANCH  18  19
ENDBRANCH  16  18
ENDBRANCH  13  14
ENDBRANCH  10  13
ENDBRANCH   3  10
BRANCH   1  26
ATOM     26  C   UNL     1      -4.481  13.227  20.069  0.00  0.00    +0.000 C 
BRANCH  26  28
ATOM     27  N   UNL     1      -4.787  13.800  22.524  0.00  0.00    +0.000 N 
ATOM     28  C   UNL     1      -5.098  12.939  21.447  0.00  0.00    +0.000 C 
ATOM     29  O   UNL     1      -5.805  11.940  21.605  0.00  0.00    +0.000 OA
BRANCH  27  31
ATOM     30  C   UNL     1      -6.878  13.383  24.037  0.00  0.00    +0.000 C 
ATOM     31  C   UNL     1      -5.353  13.549  23.896  0.00  0.00    +0.000 C 
ATOM     32  C   UNL     1      -4.690  12.361  24.608  0.00  0.00    +0.000 C 
ENDBRANCH  27  31
BRANCH  27  33
ATOM     33  C   UNL     1      -3.905  14.989  22.330  0.00  0.00    +0.000 C 
ATOM     34  C   UNL     1      -4.632  16.288  22.694  0.00  0.00    +0.000 C 
ATOM     35  C   UNL     1      -2.554  14.964  23.046  0.00  0.00    +0.000 C 
ENDBRANCH  27  33
ENDBRANCH  26  28
ENDBRANCH   1  26
TORSDOF 9
ENDMDL
MODEL 8
REMARK VINA RESULT:      -7.3      4.758      8.286
REMARK  Name = 
REMARK  13 active torsions:
REMARK  status: ('A' for Active; 'I' for Inactive)
REMARK    1  A    between atoms: C_1  and  C_2
REMARK    2  A    between atoms: C_2  and  C_3
REMARK    3  A    between atoms: C_2  and  N_4
REMARK    4  A    between atoms: N_4  and  C_32
REMARK    5  A    between atoms: C_5  and  C_7
REMARK    6  A    between atoms: C_7  and  N_8
REMARK    7  A    between atoms: C_10  and  S_11
REMARK    8  A    between atoms: S_11  and  C_14
REMARK    9  A    between atoms: C_14  and  C_15
REMARK   10  A    between atoms: N_17  and  C_18
REMARK   11  A    between atoms: C_18  and  C_19
REMARK   12  A    between atoms: C_32  and  C_33
REMARK   13  A    between atoms: C_32  and  C_34
REMARK                            x       y       z     vdW  Elec       q    Type
REMARK                         _______ _______ _______ _____ _____    ______ ____
ROOT
ATOM      1  N   UNL     1       1.876   6.542  20.237  0.00  0.00    +0.000 N 
ATOM      2  C   UNL     1       2.597   6.995  19.164  0.00  0.00    +0.000 A 
ATOM      3  C   UNL     1       3.448   5.979  18.764  0.00  0.00    +0.000 A 
ATOM      4  C   UNL     1       3.214   4.852  19.602  0.00  0.00    +0.000 A 
ATOM      5  C   UNL     1       3.744   3.540  19.668  0.00  0.00    +0.000 A 
ATOM      6  C   UNL     1       3.255   2.638  20.616  0.00  0.00    +0.000 A 
ATOM      7  C   UNL     1       2.265   3.021  21.505  0.00  0.00    +0.000 A 
ATOM      8  C   UNL     1       1.728   4.315  21.469  0.00  0.00    +0.000 A 
ATOM      9  C   UNL     1       2.214   5.220  20.509  0.00  0.00    +0.000 A 
ENDROOT
BRANCH   3  10
ATOM     10  S   UNL     1       4.558   6.057  17.450  0.00  0.00    +0.000 S 
ATOM     11  O   UNL     1       4.254   4.925  16.596  0.00  0.00    +0.000 OA
ATOM     12  O   UNL     1       4.451   7.425  16.969  0.00  0.00    +0.000 OA
BRANCH  10  13
ATOM     13  C   UNL     1       6.170   5.855  18.128  0.00  0.00    +0.000 C 
BRANCH  13  14
ATOM     14  C   UNL     1       7.104   5.305  17.099  0.00  0.00    +0.000 C 
ATOM     15  O   UNL     1       7.953   4.452  17.370  0.00  0.00    +0.000 OA
ATOM     16  N   UNL     1       7.003   5.864  15.846  0.00  0.00    +0.000 N 
ATOM     17  H   UNL     1       6.377   6.639  15.669  0.00  0.00    +0.000 HD
BRANCH  16  18
ATOM     18  C   UNL     1       7.809   5.371  14.748  0.00  0.00    +0.000 C 
BRANCH  18  19
ATOM     19  C   UNL     1       6.999   4.577  13.753  0.00  0.00    +0.000 A 
ATOM     20  C   UNL     1       7.528   4.221  12.501  0.00  0.00    +0.000 A 
ATOM     21  C   UNL     1       6.754   3.502  11.584  0.00  0.00    +0.000 A 
ATOM     22  C   UNL     1       5.450   3.147  11.911  0.00  0.00    +0.000 A 
ATOM     23  F   UNL     1       4.708   2.470  11.023  0.00  0.00    +0.000 F 
ATOM     24  C   UNL     1       4.907   3.484  13.142  0.00  0.00    +0.000 A 
ATOM     25  C   UNL     1       5.679   4.197  14.060  0.00  0.00    +0.000 A 
ENDBRANCH  18  19
ENDBRANCH  16  18
ENDBRANCH  13  14
ENDBRANCH  10  13
ENDBRANCH   3  10
BRANCH   1  26
ATOM     26  C   UNL     1       0.811   7.304  20.900  0.00  0.00    +0.000 C 
BRANCH  26  28
ATOM     27  N   UNL     1       0.785   9.803  20.444  0.00  0.00    +0.000 N 
ATOM     28  C   UNL     1       1.188   8.743  21.288  0.00  0.00    +0.000 C 
ATOM     29  O   UNL     1       1.878   8.946  22.291  0.00  0.00    +0.000 OA
BRANCH  27  31
ATOM     30  C   UNL     1       1.587  12.152  19.624  0.00  0.00    +0.000 C 
ATOM     31  C   UNL     1       1.145  11.226  20.773  0.00  0.00    +0.000 C 
ATOM     32  C   UNL     1       0.046  11.955  21.559  0.00  0.00    +0.000 C 
ENDBRANCH  27  31
BRANCH  27  33
ATOM     33  C   UNL     1      -0.023   9.544  19.214  0.00  0.00    +0.000 C 
ATOM     34  C   UNL     1      -1.254  10.454  19.156  0.00  0.00    +0.000 C 
ATOM     35  C   UNL     1       0.717   9.630  17.878  0.00  0.00    +0.000 C 
ENDBRANCH  27  33
ENDBRANCH  26  28
ENDBRANCH   1  26
TORSDOF 9
ENDMDL
MODEL 9
REMARK VINA RESULT:      -7.1      6.105      9.382
REMARK  Name = 
REMARK  13 active torsions:
REMARK  status: ('A' for Active; 'I' for Inactive)
REMARK    1  A    between atoms: C_1  and  C_2
REMARK    2  A    between atoms: C_2  and  C_3
REMARK    3  A    between atoms: C_2  and  N_4
REMARK    4  A    between atoms: N_4  and  C_32
REMARK    5  A    between atoms: C_5  and  C_7
REMARK    6  A    between atoms: C_7  and  N_8
REMARK    7  A    between atoms: C_10  and  S_11
REMARK    8  A    between atoms: S_11  and  C_14
REMARK    9  A    between atoms: C_14  and  C_15
REMARK   10  A    between atoms: N_17  and  C_18
REMARK   11  A    between atoms: C_18  and  C_19
REMARK   12  A    between atoms: C_32  and  C_33
REMARK   13  A    between atoms: C_32  and  C_34
REMARK                            x       y       z     vdW  Elec       q    Type
REMARK                         _______ _______ _______ _____ _____    ______ ____
ROOT
ATOM      1  N   UNL     1       2.975   6.294  18.967  0.00  0.00    +0.000 N 
ATOM      2  C   UNL     1       4.158   6.604  18.351  0.00  0.00    +0.000 A 
ATOM      3  C   UNL     1       4.588   5.482  17.665  0.00  0.00    +0.000 A 
ATOM      4  C   UNL     1       3.614   4.458  17.840  0.00  0.00    +0.000 A 
ATOM      5  C   UNL     1       3.481   3.127  17.375  0.00  0.00    +0.000 A 
ATOM      6  C   UNL     1       2.349   2.381  17.710  0.00  0.00    +0.000 A 
ATOM      7  C   UNL     1       1.360   2.928  18.509  0.00  0.00    +0.000 A 
ATOM      8  C   UNL     1       1.468   4.238  18.992  0.00  0.00    +0.000 A 
ATOM      9  C   UNL     1       2.603   4.992  18.647  0.00  0.00    +0.000 A 
ENDROOT
BRANCH   3  10
ATOM     10  S   UNL     1       6.027   5.367  16.725  0.00  0.00    +0.000 S 
ATOM     11  O   UNL     1       6.947   4.549  17.492  0.00  0.00    +0.000 OA
ATOM     12  O   UNL     1       5.564   4.962  15.408  0.00  0.00    +0.000 OA
BRANCH  10  13
ATOM     13  C   UNL     1       6.679   6.996  16.584  0.00  0.00    +0.000 C 
BRANCH  13  14
ATOM     14  C   UNL     1       7.548   7.313  17.758  0.00  0.00    +0.000 C 
ATOM     15  O   UNL     1       7.830   6.471  18.614  0.00  0.00    +0.000 OA
ATOM     16  N   UNL     1       7.954   8.625  17.859  0.00  0.00    +0.000 N 
ATOM     17  H   UNL     1       7.624   9.325  17.209  0.00  0.00    +0.000 HD
BRANCH  16  18
ATOM     18  C   UNL     1       8.851   9.042  18.916  0.00  0.00    +0.000 C 
BRANCH  18  19
ATOM     19  C   UNL     1       9.224  10.500  18.811  0.00  0.00    +0.000 A 
ATOM     20  C   UNL     1      10.089  11.101  19.740  0.00  0.00    +0.000 A 
ATOM     21  C   UNL     1      10.407  12.459  19.637  0.00  0.00    +0.000 A 
ATOM     22  C   UNL     1       9.855  13.221  18.613  0.00  0.00    +0.000 A 
ATOM     23  F   UNL     1      10.151  14.525  18.526  0.00  0.00    +0.000 F 
ATOM     24  C   UNL     1       9.001  12.649  17.681  0.00  0.00    +0.000 A 
ATOM     25  C   UNL     1       8.687  11.293  17.779  0.00  0.00    +0.000 A 
ENDBRANCH  18  19
ENDBRANCH  16  18
ENDBRANCH  13  14
ENDBRANCH  10  13
ENDBRANCH   3  10
BRANCH   1  26
ATOM     26  C   UNL     1       2.165   7.249  19.732  0.00  0.00    +0.000 C 
BRANCH  26  28
ATOM     27  N   UNL     1       0.913   9.455  19.601  0.00  0.00    +0.000 N 
ATOM     28  C   UNL     1       1.729   8.500  18.953  0.00  0.00    +0.000 C 
ATOM     29  O   UNL     1       2.048   8.625  17.767  0.00  0.00    +0.000 OA
BRANCH  27  31
ATOM     30  C   UNL     1      -0.961  11.231  19.187  0.00  0.00    +0.000 C 
ATOM     31  C   UNL     1       0.446  10.687  18.873  0.00  0.00    +0.000 C 
ATOM     32  C   UNL     1       1.432  11.859  18.988  0.00  0.00    +0.000 C 
ENDBRANCH  27  31
BRANCH  27  33
ATOM     33  C   UNL     1       0.505   9.279  21.027  0.00  0.00    +0.000 C 
ATOM     34  C   UNL     1      -0.400   8.054  21.199  0.00  0.00    +0.000 C 
ATOM     35  C   UNL     1       1.631   9.210  22.059  0.00  0.00    +0.000 C 
ENDBRANCH  27  33
ENDBRANCH  26  28
ENDBRANCH   1  26
TORSDOF 9
ENDMDL
