MODEL 1
REMARK VINA RESULT:      -7.2      0.000      0.000
REMARK  Name = 
REMARK  2 active torsions:
REMARK  status: ('A' for Active; 'I' for Inactive)
REMARK    1  A    between atoms: C_1  and  C_2
REMARK    2  A    between atoms: C_9  and  C_10
REMARK                            x       y       z     vdW  Elec       q    Type
REMARK                         _______ _______ _______ _____ _____    ______ ____
ROOT
ATOM      1  C   UNL     1       0.686   2.358  18.710  0.00  0.00    +0.000 C 
ATOM      2  C   UNL     1       1.770   3.288  19.267  0.00  0.00    +0.000 C 
ATOM      3  C   UNL     1       1.087   4.237  20.287  0.00  0.00    +0.000 C 
ATOM      4  C   UNL     1       1.967   5.355  20.817  0.00  0.00    +0.000 C 
ATOM      5  C   UNL     1       2.613   6.108  19.673  0.00  0.00    +0.000 C 
ATOM      6  C   UNL     1       3.424   5.184  18.767  0.00  0.00    +0.000 C 
ATOM      7  C   UNL     1       4.610   4.534  19.539  0.00  0.00    +0.000 C 
ATOM      8  O   UNL     1       5.837   4.407  18.849  0.00  0.00    +0.000 OA
ATOM      9  C   UNL     1       5.686   4.762  17.494  0.00  0.00    +0.000 C 
ATOM     10  C   UNL     1       7.109   4.930  16.950  0.00  0.00    +0.000 C 
ATOM     11  C   UNL     1       4.873   3.667  16.726  0.00  0.00    +0.000 C 
ATOM     12  C   UNL     1       3.469   3.161  17.244  0.00  0.00    +0.000 C 
ATOM     13  C   UNL     1       2.565   4.059  18.157  0.00  0.00    +0.000 C 
ATOM     14  O   UNL     1       5.140   6.072  17.415  0.00  0.00    +0.000 OA
ATOM     15  O   UNL     1       3.720   5.991  17.606  0.00  0.00    +0.000 OA
ENDROOT
TORSDOF 0
ENDMDL
MODEL 2
REMARK VINA RESULT:      -7.0      1.482      4.359
REMARK  Name = 
REMARK  2 active torsions:
REMARK  status: ('A' for Active; 'I' for Inactive)
REMARK    1  A    between atoms: C_1  and  C_2
REMARK    2  A    between atoms: C_9  and  C_10
REMARK                            x       y       z     vdW  Elec       q    Type
REMARK                         _______ _______ _______ _____ _____    ______ ____
ROOT
ATOM      1  C   UNL     1       5.588   4.387  14.804  0.00  0.00    +0.000 C 
ATOM      2  C   UNL     1       5.355   5.054  16.164  0.00  0.00    +0.000 C 
ATOM      3  C   UNL     1       6.712   5.643  16.631  0.00  0.00    +0.000 C 
ATOM      4  C   UNL     1       6.724   6.192  18.047  0.00  0.00    +0.000 C 
ATOM      5  C   UNL     1       6.176   5.166  19.017  0.00  0.00    +0.000 C 
ATOM      6  C   UNL     1       4.768   4.716  18.638  0.00  0.00    +0.000 C 
ATOM      7  C   UNL     1       3.760   5.903  18.700  0.00  0.00    +0.000 C 
ATOM      8  O   UNL     1       2.474   5.632  19.220  0.00  0.00    +0.000 OA
ATOM      9  C   UNL     1       2.306   4.250  19.437  0.00  0.00    +0.000 C 
ATOM     10  C   UNL     1       1.054   4.119  20.312  0.00  0.00    +0.000 C 
ATOM     11  C   UNL     1       2.170   3.493  18.074  0.00  0.00    +0.000 C 
ATOM     12  C   UNL     1       3.233   3.666  16.918  0.00  0.00    +0.000 C 
ATOM     13  C   UNL     1       4.708   4.100  17.227  0.00  0.00    +0.000 C 
ATOM     14  O   UNL     1       3.352   3.780  20.275  0.00  0.00    +0.000 OA
ATOM     15  O   UNL     1       4.523   3.564  19.474  0.00  0.00    +0.000 OA
ENDROOT
TORSDOF 0
ENDMDL
MODEL 3
REMARK VINA RESULT:      -6.9      2.119      4.595
REMARK  Name = 
REMARK  2 active torsions:
REMARK  status: ('A' for Active; 'I' for Inactive)
REMARK    1  A    between atoms: C_1  and  C_2
REMARK    2  A    between atoms: C_9  and  C_10
REMARK                            x       y       z     vdW  Elec       q    Type
REMARK                         _______ _______ _______ _____ _____    ______ ____
ROOT
ATOM      1  C   UNL     1       3.845   7.546  17.450  0.00  0.00    +0.000 C 
ATOM      2  C   UNL     1       4.073   6.063  17.761  0.00  0.00    +0.000 C 
ATOM      3  C   UNL     1       4.702   5.415  16.499  0.00  0.00    +0.000 C 
ATOM      4  C   UNL     1       4.837   3.904  16.550  0.00  0.00    +0.000 C 
ATOM      5  C   UNL     1       3.516   3.266  16.927  0.00  0.00    +0.000 C 
ATOM      6  C   UNL     1       2.988   3.792  18.259  0.00  0.00    +0.000 C 
ATOM      7  C   UNL     1       3.953   3.436  19.429  0.00  0.00    +0.000 C 
ATOM      8  O   UNL     1       3.366   3.045  20.654  0.00  0.00    +0.000 OA
ATOM      9  C   UNL     1       1.967   3.219  20.614  0.00  0.00    +0.000 C 
ATOM     10  C   UNL     1       1.422   2.448  21.821  0.00  0.00    +0.000 C 
ATOM     11  C   UNL     1       1.602   4.740  20.655  0.00  0.00    +0.000 C 
ATOM     12  C   UNL     1       2.238   5.775  19.645  0.00  0.00    +0.000 C 
ATOM     13  C   UNL     1       2.780   5.319  18.246  0.00  0.00    +0.000 C 
ATOM     14  O   UNL     1       1.443   2.512  19.498  0.00  0.00    +0.000 OA
ATOM     15  O   UNL     1       1.628   3.310  18.320  0.00  0.00    +0.000 OA
ENDROOT
TORSDOF 0
ENDMDL
MODEL 4
REMARK VINA RESULT:      -6.8      1.505      2.659
REMARK  Name = 
REMARK  2 active torsions:
REMARK  status: ('A' for Active; 'I' for Inactive)
REMARK    1  A    between atoms: C_1  and  C_2
REMARK    2  A    between atoms: C_9  and  C_10
REMARK                            x       y       z     vdW  Elec       q    Type
REMARK                         _______ _______ _______ _____ _____    ______ ____
ROOT
ATOM      1  C   UNL     1       1.747   6.152  20.477  0.00  0.00    +0.000 C 
ATOM      2  C   UNL     1       2.387   4.991  19.709  0.00  0.00    +0.000 C 
ATOM      3  C   UNL     1       2.263   3.723  20.596  0.00  0.00    +0.000 C 
ATOM      4  C   UNL     1       3.002   2.501  20.081  0.00  0.00    +0.000 C 
ATOM      5  C   UNL     1       4.443   2.846  19.769  0.00  0.00    +0.000 C 
ATOM      6  C   UNL     1       4.551   3.990  18.763  0.00  0.00    +0.000 C 
ATOM      7  C   UNL     1       3.927   3.596  17.391  0.00  0.00    +0.000 C 
ATOM      8  O   UNL     1       4.604   4.026  16.227  0.00  0.00    +0.000 OA
ATOM      9  C   UNL     1       5.661   4.897  16.559  0.00  0.00    +0.000 C 
ATOM     10  C   UNL     1       6.518   5.006  15.292  0.00  0.00    +0.000 C 
ATOM     11  C   UNL     1       5.105   6.282  17.030  0.00  0.00    +0.000 C 
ATOM     12  C   UNL     1       4.021   6.395  18.173  0.00  0.00    +0.000 C 
ATOM     13  C   UNL     1       3.863   5.275  19.260  0.00  0.00    +0.000 C 
ATOM     14  O   UNL     1       6.519   4.253  17.490  0.00  0.00    +0.000 OA
ATOM     15  O   UNL     1       5.945   4.368  18.800  0.00  0.00    +0.000 OA
ENDROOT
TORSDOF 0
ENDMDL
MODEL 5
REMARK VINA RESULT:      -6.7      1.819      4.244
REMARK  Name = 
REMARK  2 active torsions:
REMARK  status: ('A' for Active; 'I' for Inactive)
REMARK    1  A    between atoms: C_1  and  C_2
REMARK    2  A    between atoms: C_9  and  C_10
REMARK                            x       y       z     vdW  Elec       q    Type
REMARK                         _______ _______ _______ _____ _____    ______ ____
ROOT
ATOM      1  C   UNL     1       5.944   3.615  15.312  0.00  0.00    +0.000 C 
ATOM      2  C   UNL     1       4.890   4.442  16.057  0.00  0.00    +0.000 C 
ATOM      3  C   UNL     1       5.287   5.935  15.919  0.00  0.00    +0.000 C 
ATOM      4  C   UNL     1       4.459   6.902  16.745  0.00  0.00    +0.000 C 
ATOM      5  C   UNL     1       4.404   6.452  18.190  0.00  0.00    +0.000 C 
ATOM      6  C   UNL     1       3.852   5.036  18.327  0.00  0.00    +0.000 C 
ATOM      7  C   UNL     1       2.379   4.953  17.826  0.00  0.00    +0.000 C 
ATOM      8  O   UNL     1       1.488   4.146  18.570  0.00  0.00    +0.000 OA
ATOM      9  C   UNL     1       2.182   3.424  19.562  0.00  0.00    +0.000 C 
ATOM     10  C   UNL     1       1.102   2.883  20.507  0.00  0.00    +0.000 C 
ATOM     11  C   UNL     1       3.040   2.286  18.914  0.00  0.00    +0.000 C 
ATOM     12  C   UNL     1       4.058   2.580  17.742  0.00  0.00    +0.000 C 
ATOM     13  C   UNL     1       4.689   4.002  17.550  0.00  0.00    +0.000 C 
ATOM     14  O   UNL     1       2.914   4.332  20.372  0.00  0.00    +0.000 OA
ATOM     15  O   UNL     1       4.132   4.673  19.696  0.00  0.00    +0.000 OA
ENDROOT
TORSDOF 0
ENDMDL
MODEL 6
REMARK VINA RESULT:      -6.6      1.509      4.724
REMARK  Name = 
REMARK  2 active torsions:
REMARK  status: ('A' for Active; 'I' for Inactive)
REMARK    1  A    between atoms: C_1  and  C_2
REMARK    2  A    between atoms: C_9  and  C_10
REMARK                            x       y       z     vdW  Elec       q    Type
REMARK                         _______ _______ _______ _____ _____    ______ ____
ROOT
ATOM      1  C   UNL     1       7.660   5.807  18.800  0.00  0.00    +0.000 C 
ATOM      2  C   UNL     1       6.684   4.839  18.120  0.00  0.00    +0.000 C 
ATOM      3  C   UNL     1       7.140   4.680  16.646  0.00  0.00    +0.000 C 
ATOM      4  C   UNL     1       6.190   3.895  15.759  0.00  0.00    +0.000 C 
ATOM      5  C   UNL     1       4.784   4.445  15.872  0.00  0.00    +0.000 C 
ATOM      6  C   UNL     1       4.282   4.441  17.313  0.00  0.00    +0.000 C 
ATOM      7  C   UNL     1       4.191   2.991  17.876  0.00  0.00    +0.000 C 
ATOM      8  O   UNL     1       3.079   2.684  18.692  0.00  0.00    +0.000 OA
ATOM      9  C   UNL     1       2.333   3.846  18.975  0.00  0.00    +0.000 C 
ATOM     10  C   UNL     1       0.998   3.350  19.543  0.00  0.00    +0.000 C 
ATOM     11  C   UNL     1       3.108   4.767  19.974  0.00  0.00    +0.000 C 
ATOM     12  C   UNL     1       4.599   5.214  19.704  0.00  0.00    +0.000 C 
ATOM     13  C   UNL     1       5.182   5.270  18.250  0.00  0.00    +0.000 C 
ATOM     14  O   UNL     1       1.966   4.471  17.753  0.00  0.00    +0.000 OA
ATOM     15  O   UNL     1       3.079   5.240  17.276  0.00  0.00    +0.000 OA
ENDROOT
TORSDOF 0
ENDMDL
MODEL 7
REMARK VINA RESULT:      -6.6      1.728      4.435
REMARK  Name = 
REMARK  2 active torsions:
REMARK  status: ('A' for Active; 'I' for Inactive)
REMARK    1  A    between atoms: C_1  and  C_2
REMARK    2  A    between atoms: C_9  and  C_10
REMARK                            x       y       z     vdW  Elec       q    Type
REMARK                         _______ _______ _______ _____ _____    ______ ____
ROOT
ATOM      1  C   UNL     1       7.557   4.582  17.810  0.00  0.00    +0.000 C 
ATOM      2  C   UNL     1       6.101   4.902  17.451  0.00  0.00    +0.000 C 
ATOM      3  C   UNL     1       6.101   6.231  16.652  0.00  0.00    +0.000 C 
ATOM      4  C   UNL     1       4.728   6.808  16.361  0.00  0.00    +0.000 C 
ATOM      5  C   UNL     1       3.912   6.901  17.633  0.00  0.00    +0.000 C 
ATOM      6  C   UNL     1       3.778   5.548  18.326  0.00  0.00    +0.000 C 
ATOM      7  C   UNL     1       3.011   4.528  17.431  0.00  0.00    +0.000 C 
ATOM      8  O   UNL     1       2.094   3.666  18.075  0.00  0.00    +0.000 OA
ATOM      9  C   UNL     1       2.185   3.800  19.476  0.00  0.00    +0.000 C 
ATOM     10  C   UNL     1       0.936   3.109  20.036  0.00  0.00    +0.000 C 
ATOM     11  C   UNL     1       3.513   3.165  20.004  0.00  0.00    +0.000 C 
ATOM     12  C   UNL     1       4.919   3.557  19.399  0.00  0.00    +0.000 C 
ATOM     13  C   UNL     1       5.145   4.939  18.694  0.00  0.00    +0.000 C 
ATOM     14  O   UNL     1       1.998   5.165  19.824  0.00  0.00    +0.000 OA
ATOM     15  O   UNL     1       3.235   5.864  19.627  0.00  0.00    +0.000 OA
ENDROOT
TORSDOF 0
ENDMDL
MODEL 8
REMARK VINA RESULT:      -6.5      1.203      2.776
REMARK  Name = 
REMARK  2 active torsions:
REMARK  status: ('A' for Active; 'I' for Inactive)
REMARK    1  A    between atoms: C_1  and  C_2
REMARK    2  A    between atoms: C_9  and  C_10
REMARK                            x       y       z     vdW  Elec       q    Type
REMARK                         _______ _______ _______ _____ _____    ______ ____
ROOT
ATOM      1  C   UNL     1       0.823   4.368  20.383  0.00  0.00    +0.000 C 
ATOM      2  C   UNL     1       1.736   3.923  19.235  0.00  0.00    +0.000 C 
ATOM      3  C   UNL     1       1.401   2.441  18.923  0.00  0.00    +0.000 C 
ATOM      4  C   UNL     1       2.329   1.765  17.930  0.00  0.00    +0.000 C 
ATOM      5  C   UNL     1       3.773   1.954  18.342  0.00  0.00    +0.000 C 
ATOM      6  C   UNL     1       4.139   3.429  18.484  0.00  0.00    +0.000 C 
ATOM      7  C   UNL     1       4.010   4.177  17.123  0.00  0.00    +0.000 C 
ATOM      8  O   UNL     1       5.000   5.138  16.818  0.00  0.00    +0.000 OA
ATOM      9  C   UNL     1       5.848   5.348  17.925  0.00  0.00    +0.000 C 
ATOM     10  C   UNL     1       7.059   6.111  17.376  0.00  0.00    +0.000 C 
ATOM     11  C   UNL     1       5.098   6.135  19.050  0.00  0.00    +0.000 C 
ATOM     12  C   UNL     1       3.700   5.656  19.607  0.00  0.00    +0.000 C 
ATOM     13  C   UNL     1       3.261   4.153  19.523  0.00  0.00    +0.000 C 
ATOM     14  O   UNL     1       6.394   4.102  18.334  0.00  0.00    +0.000 OA
ATOM     15  O   UNL     1       5.425   3.417  19.141  0.00  0.00    +0.000 OA
ENDROOT
TORSDOF 0
ENDMDL
MODEL 9
REMARK VINA RESULT:      -6.4      2.034      4.130
REMARK  Name = 
REMARK  2 active torsions:
REMARK  status: ('A' for Active; 'I' for Inactive)
REMARK    1  A    between atoms: C_1  and  C_2
REMARK    2  A    between atoms: C_9  and  C_10
REMARK                            x       y       z     vdW  Elec       q    Type
REMARK                         _______ _______ _______ _____ _____    ______ ____
ROOT
ATOM      1  C   UNL     1       2.963   8.036  17.617  0.00  0.00    +0.000 C 
ATOM      2  C   UNL     1       3.999   6.908  17.545  0.00  0.00    +0.000 C 
ATOM      3  C   UNL     1       4.666   6.980  16.145  0.00  0.00    +0.000 C 
ATOM      4  C   UNL     1       5.598   5.828  15.816  0.00  0.00    +0.000 C 
ATOM      5  C   UNL     1       4.908   4.502  16.058  0.00  0.00    +0.000 C 
ATOM      6  C   UNL     1       4.401   4.375  17.492  0.00  0.00    +0.000 C 
ATOM      7  C   UNL     1       5.578   4.406  18.512  0.00  0.00    +0.000 C 
ATOM      8  O   UNL     1       5.498   3.528  19.617  0.00  0.00    +0.000 OA
ATOM      9  C   UNL     1       4.241   2.892  19.658  0.00  0.00    +0.000 C 
ATOM     10  C   UNL     1       4.397   1.734  20.650  0.00  0.00    +0.000 C 
ATOM     11  C   UNL     1       3.127   3.905  20.084  0.00  0.00    +0.000 C 
ATOM     12  C   UNL     1       2.936   5.288  19.345  0.00  0.00    +0.000 C 
ATOM     13  C   UNL     1       3.406   5.492  17.864  0.00  0.00    +0.000 C 
ATOM     14  O   UNL     1       4.009   2.242  18.416  0.00  0.00    +0.000 OA
ATOM     15  O   UNL     1       3.544   3.213  17.468  0.00  0.00    +0.000 OA
ENDROOT
TORSDOF 0
ENDMDL
