MODEL 1
REMARK VINA RESULT:      -8.6      0.000      0.000
REMARK  Name = 
REMARK  5 active torsions:
REMARK  status: ('A' for Active; 'I' for Inactive)
REMARK    1  A    between atoms: C_2  and  C_3
REMARK    2  A    between atoms: C_3  and  N_4
REMARK    3  A    between atoms: C_9  and  N_10
REMARK    4  A    between atoms: N_16  and  N_17
REMARK    5  A    between atoms: C_18  and  C_19
REMARK                            x       y       z     vdW  Elec       q    Type
REMARK                         _______ _______ _______ _____ _____    ______ ____
ROOT
ATOM      1  O   UNL     1       7.475   8.023  16.996  0.00  0.00    +0.000 OA
ATOM      2  C   UNL     1       8.008   7.685  18.052  0.00  0.00    +0.000 C 
ATOM      3  N   UNL     1       8.659   8.549  18.928  0.00  0.00    +0.000 N 
ATOM      4  H   UNL     1       9.113   8.184  19.766  0.00  0.00    +0.000 HD
ENDROOT
BRANCH   3   5
ATOM      5  N   UNL     1       8.787   9.874  18.610  0.00  0.00    +0.000 NA
ATOM      6  C   UNL     1       9.858  10.459  19.047  0.00  0.00    +0.000 C 
BRANCH   6   7
ATOM      7  C   UNL     1      10.160  11.880  18.752  0.00  0.00    +0.000 A 
ATOM      8  C   UNL     1      10.656  12.210  17.481  0.00  0.00    +0.000 A 
ATOM      9  C   UNL     1      11.044  13.520  17.188  0.00  0.00    +0.000 A 
ATOM     10  C   UNL     1      10.916  14.517  18.152  0.00  0.00    +0.000 A 
ATOM     11  C   UNL     1      10.386  14.208  19.405  0.00  0.00    +0.000 A 
ATOM     12  C   UNL     1      10.011  12.892  19.711  0.00  0.00    +0.000 A 
ATOM     13 BR   UNL     1       9.331  12.589  21.460  0.00  0.00    +0.000 Br
ENDBRANCH   6   7
ENDBRANCH   3   5
BRANCH   2  14
ATOM     14  C   UNL     1       7.910   6.263  18.548  0.00  0.00    +0.000 C 
BRANCH  14  15
ATOM     15  N   UNL     1       7.023   5.443  17.741  0.00  0.00    +0.000 N 
ATOM     16  N   UNL     1       7.527   4.852  16.632  0.00  0.00    +0.000 NA
ATOM     17  C   UNL     1       6.513   4.106  16.185  0.00  0.00    +0.000 A 
ATOM     18  C   UNL     1       5.351   4.229  16.976  0.00  0.00    +0.000 A 
ATOM     19  C   UNL     1       4.048   3.694  16.935  0.00  0.00    +0.000 A 
ATOM     20  C   UNL     1       3.141   4.069  17.941  0.00  0.00    +0.000 A 
ATOM     21  C   UNL     1       3.521   4.936  18.974  0.00  0.00    +0.000 A 
ATOM     22  C   UNL     1       4.819   5.465  19.023  0.00  0.00    +0.000 A 
ATOM     23  C   UNL     1       5.713   5.102  18.002  0.00  0.00    +0.000 A 
BRANCH  20  24
ATOM     24  N   UNL     1       1.769   3.536  17.906  0.00  0.00    +0.000 N 
ATOM     25  O   UNL     1       0.933   4.143  17.220  0.00  0.00    +0.000 OA
ATOM     26  O   UNL     1       1.530   2.512  18.561  0.00  0.00    +0.000 OA
ENDBRANCH  20  24
ENDBRANCH  14  15
ENDBRANCH   2  14
TORSDOF 5
ENDMDL
MODEL 2
REMARK VINA RESULT:      -8.3      5.405      7.591
REMARK  Name = 
REMARK  5 active torsions:
REMARK  status: ('A' for Active; 'I' for Inactive)
REMARK    1  A    between atoms: C_2  and  C_3
REMARK    2  A    between atoms: C_3  and  N_4
REMARK    3  A    between atoms: C_9  and  N_10
REMARK    4  A    between atoms: N_16  and  N_17
REMARK    5  A    between atoms: C_18  and  C_19
REMARK                            x       y       z     vdW  Elec       q    Type
REMARK                         _______ _______ _______ _____ _____    ______ ____
ROOT
ATOM      1  O   UNL     1       2.128   5.421  18.235  0.00  0.00    +0.000 OA
ATOM      2  C   UNL     1       2.772   5.015  19.203  0.00  0.00    +0.000 C 
ATOM      3  N   UNL     1       2.576   5.425  20.518  0.00  0.00    +0.000 N 
ATOM      4  H   UNL     1       3.179   5.072  21.261  0.00  0.00    +0.000 HD
ENDROOT
BRANCH   3   5
ATOM      5  N   UNL     1       1.645   6.389  20.802  0.00  0.00    +0.000 NA
ATOM      6  C   UNL     1       2.020   7.613  20.599  0.00  0.00    +0.000 C 
BRANCH   6   7
ATOM      7  C   UNL     1       1.113   8.765  20.820  0.00  0.00    +0.000 A 
ATOM      8  C   UNL     1       0.569   8.955  22.099  0.00  0.00    +0.000 A 
ATOM      9  C   UNL     1      -0.363   9.970  22.331  0.00  0.00    +0.000 A 
ATOM     10  C   UNL     1      -0.741  10.820  21.296  0.00  0.00    +0.000 A 
ATOM     11  C   UNL     1      -0.175  10.667  20.029  0.00  0.00    +0.000 A 
ATOM     12  C   UNL     1       0.748   9.640  19.786  0.00  0.00    +0.000 A 
ATOM     13 BR   UNL     1       1.425   9.511  18.014  0.00  0.00    +0.000 Br
ENDBRANCH   6   7
ENDBRANCH   3   5
BRANCH   2  14
ATOM     14  C   UNL     1       3.801   3.923  19.044  0.00  0.00    +0.000 C 
BRANCH  14  15
ATOM     15  N   UNL     1       5.050   4.401  18.480  0.00  0.00    +0.000 N 
ATOM     16  N   UNL     1       6.031   4.791  19.329  0.00  0.00    +0.000 NA
ATOM     17  C   UNL     1       7.056   5.068  18.519  0.00  0.00    +0.000 A 
ATOM     18  C   UNL     1       6.742   4.889  17.155  0.00  0.00    +0.000 A 
ATOM     19  C   UNL     1       7.431   5.054  15.937  0.00  0.00    +0.000 A 
ATOM     20  C   UNL     1       6.752   4.759  14.742  0.00  0.00    +0.000 A 
ATOM     21  C   UNL     1       5.431   4.292  14.754  0.00  0.00    +0.000 A 
ATOM     22  C   UNL     1       4.744   4.119  15.964  0.00  0.00    +0.000 A 
ATOM     23  C   UNL     1       5.423   4.436  17.153  0.00  0.00    +0.000 A 
BRANCH  20  24
ATOM     24  N   UNL     1       7.446   4.943  13.457  0.00  0.00    +0.000 N 
ATOM     25  O   UNL     1       8.361   5.778  13.411  0.00  0.00    +0.000 OA
ATOM     26  O   UNL     1       7.079   4.251  12.497  0.00  0.00    +0.000 OA
ENDBRANCH  20  24
ENDBRANCH  14  15
ENDBRANCH   2  14
TORSDOF 5
ENDMDL
MODEL 3
REMARK VINA RESULT:      -8.3      1.826      2.437
REMARK  Name = 
REMARK  5 active torsions:
REMARK  status: ('A' for Active; 'I' for Inactive)
REMARK    1  A    between atoms: C_2  and  C_3
REMARK    2  A    between atoms: C_3  and  N_4
REMARK    3  A    between atoms: C_9  and  N_10
REMARK    4  A    between atoms: N_16  and  N_17
REMARK    5  A    between atoms: C_18  and  C_19
REMARK                            x       y       z     vdW  Elec       q    Type
REMARK                         _______ _______ _______ _____ _____    ______ ____
ROOT
ATOM      1  O   UNL     1       8.149   6.417  18.850  0.00  0.00    +0.000 OA
ATOM      2  C   UNL     1       7.536   6.956  17.928  0.00  0.00    +0.000 C 
ATOM      3  N   UNL     1       7.675   8.288  17.551  0.00  0.00    +0.000 N 
ATOM      4  H   UNL     1       7.100   8.672  16.801  0.00  0.00    +0.000 HD
ENDROOT
BRANCH   3   5
ATOM      5  N   UNL     1       8.506   9.115  18.259  0.00  0.00    +0.000 NA
ATOM      6  C   UNL     1       8.485  10.365  17.916  0.00  0.00    +0.000 C 
BRANCH   6   7
ATOM      7  C   UNL     1       9.297  11.391  18.615  0.00  0.00    +0.000 A 
ATOM      8  C   UNL     1      10.362  10.966  19.424  0.00  0.00    +0.000 A 
ATOM      9  C   UNL     1      11.096  11.889  20.175  0.00  0.00    +0.000 A 
ATOM     10  C   UNL     1      10.789  13.245  20.106  0.00  0.00    +0.000 A 
ATOM     11  C   UNL     1       9.758  13.683  19.272  0.00  0.00    +0.000 A 
ATOM     12  C   UNL     1       9.008  12.760  18.529  0.00  0.00    +0.000 A 
ATOM     13 BR   UNL     1       7.609  13.473  17.457  0.00  0.00    +0.000 Br
ENDBRANCH   6   7
ENDBRANCH   3   5
BRANCH   2  14
ATOM     14  C   UNL     1       6.618   6.156  17.037  0.00  0.00    +0.000 C 
BRANCH  14  15
ATOM     15  N   UNL     1       5.226   6.234  17.442  0.00  0.00    +0.000 N 
ATOM     16  N   UNL     1       4.590   7.425  17.328  0.00  0.00    +0.000 NA
ATOM     17  C   UNL     1       3.331   7.143  17.674  0.00  0.00    +0.000 A 
ATOM     18  C   UNL     1       3.151   5.791  18.038  0.00  0.00    +0.000 A 
ATOM     19  C   UNL     1       2.068   5.008  18.484  0.00  0.00    +0.000 A 
ATOM     20  C   UNL     1       2.295   3.646  18.750  0.00  0.00    +0.000 A 
ATOM     21  C   UNL     1       3.558   3.070  18.558  0.00  0.00    +0.000 A 
ATOM     22  C   UNL     1       4.636   3.844  18.107  0.00  0.00    +0.000 A 
ATOM     23  C   UNL     1       4.407   5.208  17.864  0.00  0.00    +0.000 A 
BRANCH  20  24
ATOM     24  N   UNL     1       1.182   2.814  19.235  0.00  0.00    +0.000 N 
ATOM     25  O   UNL     1       0.934   2.835  20.449  0.00  0.00    +0.000 OA
ATOM     26  O   UNL     1       0.555   2.144  18.402  0.00  0.00    +0.000 OA
ENDBRANCH  20  24
ENDBRANCH  14  15
ENDBRANCH   2  14
TORSDOF 5
ENDMDL
MODEL 4
REMARK VINA RESULT:      -8.3      1.224      1.320
REMARK  Name = 
REMARK  5 active torsions:
REMARK  status: ('A' for Active; 'I' for Inactive)
REMARK    1  A    between atoms: C_2  and  C_3
REMARK    2  A    between atoms: C_3  and  N_4
REMARK    3  A    between atoms: C_9  and  N_10
REMARK    4  A    between atoms: N_16  and  N_17
REMARK    5  A    between atoms: C_18  and  C_19
REMARK                            x       y       z     vdW  Elec       q    Type
REMARK                         _______ _______ _______ _____ _____    ______ ____
ROOT
ATOM      1  O   UNL     1       6.850   7.905  16.811  0.00  0.00    +0.000 OA
ATOM      2  C   UNL     1       7.627   7.533  17.691  0.00  0.00    +0.000 C 
ATOM      3  N   UNL     1       8.440   8.376  18.443  0.00  0.00    +0.000 N 
ATOM      4  H   UNL     1       9.089   7.986  19.128  0.00  0.00    +0.000 HD
ENDROOT
BRANCH   3   5
ATOM      5  N   UNL     1       8.452   9.721  18.187  0.00  0.00    +0.000 NA
ATOM      6  C   UNL     1       9.421  10.390  18.728  0.00  0.00    +0.000 C 
BRANCH   6   7
ATOM      7  C   UNL     1       9.594  11.847  18.511  0.00  0.00    +0.000 A 
ATOM      8  C   UNL     1       8.533  12.571  17.946  0.00  0.00    +0.000 A 
ATOM      9  C   UNL     1       8.683  13.926  17.637  0.00  0.00    +0.000 A 
ATOM     10  C   UNL     1       9.884  14.575  17.912  0.00  0.00    +0.000 A 
ATOM     11  C   UNL     1      10.931  13.874  18.512  0.00  0.00    +0.000 A 
ATOM     12  C   UNL     1      10.792  12.511  18.809  0.00  0.00    +0.000 A 
ATOM     13 BR   UNL     1      12.298  11.657  19.595  0.00  0.00    +0.000 Br
ENDBRANCH   6   7
ENDBRANCH   3   5
BRANCH   2  14
ATOM     14  C   UNL     1       7.688   6.084  18.108  0.00  0.00    +0.000 C 
BRANCH  14  15
ATOM     15  N   UNL     1       6.610   5.289  17.549  0.00  0.00    +0.000 N 
ATOM     16  N   UNL     1       6.820   4.661  16.367  0.00  0.00    +0.000 NA
ATOM     17  C   UNL     1       5.704   3.950  16.186  0.00  0.00    +0.000 A 
ATOM     18  C   UNL     1       4.762   4.132  17.222  0.00  0.00    +0.000 A 
ATOM     19  C   UNL     1       3.467   3.650  17.496  0.00  0.00    +0.000 A 
ATOM     20  C   UNL     1       2.833   4.078  18.676  0.00  0.00    +0.000 A 
ATOM     21  C   UNL     1       3.474   4.944  19.571  0.00  0.00    +0.000 A 
ATOM     22  C   UNL     1       4.766   5.420  19.306  0.00  0.00    +0.000 A 
ATOM     23  C   UNL     1       5.384   5.005  18.115  0.00  0.00    +0.000 A 
BRANCH  20  24
ATOM     24  N   UNL     1       1.472   3.601  18.973  0.00  0.00    +0.000 N 
ATOM     25  O   UNL     1       0.929   4.017  20.007  0.00  0.00    +0.000 OA
ATOM     26  O   UNL     1       0.947   2.815  18.172  0.00  0.00    +0.000 OA
ENDBRANCH  20  24
ENDBRANCH  14  15
ENDBRANCH   2  14
TORSDOF 5
ENDMDL
MODEL 5
REMARK VINA RESULT:      -8.3      5.513      7.701
REMARK  Name = 
REMARK  5 active torsions:
REMARK  status: ('A' for Active; 'I' for Inactive)
REMARK    1  A    between atoms: C_2  and  C_3
REMARK    2  A    between atoms: C_3  and  N_4
REMARK    3  A    between atoms: C_9  and  N_10
REMARK    4  A    between atoms: N_16  and  N_17
REMARK    5  A    between atoms: C_18  and  C_19
REMARK                            x       y       z     vdW  Elec       q    Type
REMARK                         _______ _______ _______ _____ _____    ______ ____
ROOT
ATOM      1  O   UNL     1       1.697   3.464  22.089  0.00  0.00    +0.000 OA
ATOM      2  C   UNL     1       2.291   3.698  21.036  0.00  0.00    +0.000 C 
ATOM      3  N   UNL     1       2.354   4.942  20.417  0.00  0.00    +0.000 N 
ATOM      4  H   UNL     1       2.833   5.047  19.522  0.00  0.00    +0.000 HD
ENDROOT
BRANCH   3   5
ATOM      5  N   UNL     1       1.678   6.006  20.952  0.00  0.00    +0.000 NA
ATOM      6  C   UNL     1       1.807   7.132  20.323  0.00  0.00    +0.000 C 
BRANCH   6   7
ATOM      7  C   UNL     1       1.105   8.365  20.755  0.00  0.00    +0.000 A 
ATOM      8  C   UNL     1       0.630   8.440  22.073  0.00  0.00    +0.000 A 
ATOM      9  C   UNL     1      -0.118   9.541  22.497  0.00  0.00    +0.000 A 
ATOM     10  C   UNL     1      -0.378  10.588  21.617  0.00  0.00    +0.000 A 
ATOM     11  C   UNL     1       0.125  10.543  20.316  0.00  0.00    +0.000 A 
ATOM     12  C   UNL     1       0.862   9.433  19.879  0.00  0.00    +0.000 A 
ATOM     13 BR   UNL     1       1.466   9.472  18.077  0.00  0.00    +0.000 Br
ENDBRANCH   6   7
ENDBRANCH   3   5
BRANCH   2  14
ATOM     14  C   UNL     1       3.113   2.630  20.358  0.00  0.00    +0.000 C 
BRANCH  14  15
ATOM     15  N   UNL     1       3.399   2.934  18.967  0.00  0.00    +0.000 N 
ATOM     16  N   UNL     1       2.509   2.538  18.026  0.00  0.00    +0.000 NA
ATOM     17  C   UNL     1       3.000   3.048  16.894  0.00  0.00    +0.000 A 
ATOM     18  C   UNL     1       4.212   3.746  17.086  0.00  0.00    +0.000 A 
ATOM     19  C   UNL     1       5.118   4.430  16.253  0.00  0.00    +0.000 A 
ATOM     20  C   UNL     1       6.251   5.019  16.842  0.00  0.00    +0.000 A 
ATOM     21  C   UNL     1       6.471   4.947  18.224  0.00  0.00    +0.000 A 
ATOM     22  C   UNL     1       5.567   4.274  19.058  0.00  0.00    +0.000 A 
ATOM     23  C   UNL     1       4.448   3.671  18.459  0.00  0.00    +0.000 A 
BRANCH  20  24
ATOM     24  N   UNL     1       7.222   5.722  15.987  0.00  0.00    +0.000 N 
ATOM     25  O   UNL     1       7.715   6.773  16.420  0.00  0.00    +0.000 OA
ATOM     26  O   UNL     1       7.491   5.222  14.885  0.00  0.00    +0.000 OA
ENDBRANCH  20  24
ENDBRANCH  14  15
ENDBRANCH   2  14
TORSDOF 5
ENDMDL
MODEL 6
REMARK VINA RESULT:      -8.3      2.057      2.657
REMARK  Name = 
REMARK  5 active torsions:
REMARK  status: ('A' for Active; 'I' for Inactive)
REMARK    1  A    between atoms: C_2  and  C_3
REMARK    2  A    between atoms: C_3  and  N_4
REMARK    3  A    between atoms: C_9  and  N_10
REMARK    4  A    between atoms: N_16  and  N_17
REMARK    5  A    between atoms: C_18  and  C_19
REMARK                            x       y       z     vdW  Elec       q    Type
REMARK                         _______ _______ _______ _____ _____    ______ ____
ROOT
ATOM      1  O   UNL     1       8.152   6.442  18.751  0.00  0.00    +0.000 OA
ATOM      2  C   UNL     1       7.469   7.006  17.897  0.00  0.00    +0.000 C 
ATOM      3  N   UNL     1       7.612   8.337  17.515  0.00  0.00    +0.000 N 
ATOM      4  H   UNL     1       6.978   8.744  16.827  0.00  0.00    +0.000 HD
ENDROOT
BRANCH   3   5
ATOM      5  N   UNL     1       8.531   9.133  18.144  0.00  0.00    +0.000 NA
ATOM      6  C   UNL     1       8.370  10.410  17.993  0.00  0.00    +0.000 C 
BRANCH   6   7
ATOM      7  C   UNL     1       9.259  11.402  18.644  0.00  0.00    +0.000 A 
ATOM      8  C   UNL     1      10.329  10.935  19.422  0.00  0.00    +0.000 A 
ATOM      9  C   UNL     1      11.136  11.829  20.131  0.00  0.00    +0.000 A 
ATOM     10  C   UNL     1      10.898  13.199  20.048  0.00  0.00    +0.000 A 
ATOM     11  C   UNL     1       9.862  13.677  19.244  0.00  0.00    +0.000 A 
ATOM     12  C   UNL     1       9.039  12.784  18.544  0.00  0.00    +0.000 A 
ATOM     13 BR   UNL     1       7.642  13.552  17.508  0.00  0.00    +0.000 Br
ENDBRANCH   6   7
ENDBRANCH   3   5
BRANCH   2  14
ATOM     14  C   UNL     1       6.446   6.241  17.095  0.00  0.00    +0.000 C 
BRANCH  14  15
ATOM     15  N   UNL     1       5.119   6.285  17.682  0.00  0.00    +0.000 N 
ATOM     16  N   UNL     1       4.308   7.322  17.360  0.00  0.00    +0.000 NA
ATOM     17  C   UNL     1       3.156   7.020  17.966  0.00  0.00    +0.000 A 
ATOM     18  C   UNL     1       3.220   5.815  18.697  0.00  0.00    +0.000 A 
ATOM     19  C   UNL     1       2.326   5.082  19.502  0.00  0.00    +0.000 A 
ATOM     20  C   UNL     1       2.778   3.881  20.078  0.00  0.00    +0.000 A 
ATOM     21  C   UNL     1       4.076   3.409  19.846  0.00  0.00    +0.000 A 
ATOM     22  C   UNL     1       4.967   4.132  19.040  0.00  0.00    +0.000 A 
ATOM     23  C   UNL     1       4.515   5.341  18.486  0.00  0.00    +0.000 A 
BRANCH  20  24
ATOM     24  N   UNL     1       1.865   3.109  20.938  0.00  0.00    +0.000 N 
ATOM     25  O   UNL     1       0.791   2.733  20.447  0.00  0.00    +0.000 OA
ATOM     26  O   UNL     1       2.226   2.876  22.100  0.00  0.00    +0.000 OA
ENDBRANCH  20  24
ENDBRANCH  14  15
ENDBRANCH   2  14
TORSDOF 5
ENDMDL
MODEL 7
REMARK VINA RESULT:      -8.2      5.419      7.579
REMARK  Name = 
REMARK  5 active torsions:
REMARK  status: ('A' for Active; 'I' for Inactive)
REMARK    1  A    between atoms: C_2  and  C_3
REMARK    2  A    between atoms: C_3  and  N_4
REMARK    3  A    between atoms: C_9  and  N_10
REMARK    4  A    between atoms: N_16  and  N_17
REMARK    5  A    between atoms: C_18  and  C_19
REMARK                            x       y       z     vdW  Elec       q    Type
REMARK                         _______ _______ _______ _____ _____    ______ ____
ROOT
ATOM      1  O   UNL     1       2.803   3.706  21.109  0.00  0.00    +0.000 OA
ATOM      2  C   UNL     1       3.171   4.131  20.014  0.00  0.00    +0.000 C 
ATOM      3  N   UNL     1       2.898   5.404  19.521  0.00  0.00    +0.000 N 
ATOM      4  H   UNL     1       3.204   5.668  18.584  0.00  0.00    +0.000 HD
ENDROOT
BRANCH   3   5
ATOM      5  N   UNL     1       2.122   6.265  20.249  0.00  0.00    +0.000 NA
ATOM      6  C   UNL     1       2.135   7.502  19.861  0.00  0.00    +0.000 C 
BRANCH   6   7
ATOM      7  C   UNL     1       1.316   8.547  20.521  0.00  0.00    +0.000 A 
ATOM      8  C   UNL     1       1.012   8.400  21.883  0.00  0.00    +0.000 A 
ATOM      9  C   UNL     1       0.167   9.309  22.524  0.00  0.00    +0.000 A 
ATOM     10  C   UNL     1      -0.363  10.387  21.819  0.00  0.00    +0.000 A 
ATOM     11  C   UNL     1      -0.034  10.566  20.474  0.00  0.00    +0.000 A 
ATOM     12  C   UNL     1       0.800   9.648  19.821  0.00  0.00    +0.000 A 
ATOM     13 BR   UNL     1       1.150   9.979  17.982  0.00  0.00    +0.000 Br
ENDBRANCH   6   7
ENDBRANCH   3   5
BRANCH   2  14
ATOM     14  C   UNL     1       4.067   3.305  19.125  0.00  0.00    +0.000 C 
BRANCH  14  15
ATOM     15  N   UNL     1       5.161   4.071  18.555  0.00  0.00    +0.000 N 
ATOM     16  N   UNL     1       5.978   4.749  19.397  0.00  0.00    +0.000 NA
ATOM     17  C   UNL     1       6.916   5.250  18.589  0.00  0.00    +0.000 A 
ATOM     18  C   UNL     1       6.701   4.929  17.231  0.00  0.00    +0.000 A 
ATOM     19  C   UNL     1       7.356   5.214  16.017  0.00  0.00    +0.000 A 
ATOM     20  C   UNL     1       6.815   4.691  14.829  0.00  0.00    +0.000 A 
ATOM     21  C   UNL     1       5.666   3.890  14.846  0.00  0.00    +0.000 A 
ATOM     22  C   UNL     1       5.015   3.597  16.053  0.00  0.00    +0.000 A 
ATOM     23  C   UNL     1       5.549   4.141  17.233  0.00  0.00    +0.000 A 
BRANCH  20  24
ATOM     24  N   UNL     1       7.473   4.992  13.547  0.00  0.00    +0.000 N 
ATOM     25  O   UNL     1       7.075   4.390  12.540  0.00  0.00    +0.000 OA
ATOM     26  O   UNL     1       8.384   5.832  13.548  0.00  0.00    +0.000 OA
ENDBRANCH  20  24
ENDBRANCH  14  15
ENDBRANCH   2  14
TORSDOF 5
ENDMDL
MODEL 8
REMARK VINA RESULT:      -8.2      5.202      7.366
REMARK  Name = 
REMARK  5 active torsions:
REMARK  status: ('A' for Active; 'I' for Inactive)
REMARK    1  A    between atoms: C_2  and  C_3
REMARK    2  A    between atoms: C_3  and  N_4
REMARK    3  A    between atoms: C_9  and  N_10
REMARK    4  A    between atoms: N_16  and  N_17
REMARK    5  A    between atoms: C_18  and  C_19
REMARK                            x       y       z     vdW  Elec       q    Type
REMARK                         _______ _______ _______ _____ _____    ______ ____
ROOT
ATOM      1  O   UNL     1       1.648   4.554  19.024  0.00  0.00    +0.000 OA
ATOM      2  C   UNL     1       2.711   4.923  19.525  0.00  0.00    +0.000 C 
ATOM      3  N   UNL     1       2.902   6.132  20.186  0.00  0.00    +0.000 N 
ATOM      4  H   UNL     1       3.826   6.384  20.539  0.00  0.00    +0.000 HD
ENDROOT
BRANCH   3   5
ATOM      5  N   UNL     1       1.876   7.035  20.267  0.00  0.00    +0.000 NA
ATOM      6  C   UNL     1       2.019   8.117  19.568  0.00  0.00    +0.000 C 
BRANCH   6   7
ATOM      7  C   UNL     1       0.978   9.172  19.519  0.00  0.00    +0.000 A 
ATOM      8  C   UNL     1       0.522   9.606  18.265  0.00  0.00    +0.000 A 
ATOM      9  C   UNL     1      -0.388  10.662  18.167  0.00  0.00    +0.000 A 
ATOM     10  C   UNL     1      -0.870  11.277  19.319  0.00  0.00    +0.000 A 
ATOM     11  C   UNL     1      -0.454  10.826  20.573  0.00  0.00    +0.000 A 
ATOM     12  C   UNL     1       0.471   9.778  20.678  0.00  0.00    +0.000 A 
ATOM     13 BR   UNL     1       0.985   9.274  22.437  0.00  0.00    +0.000 Br
ENDBRANCH   6   7
ENDBRANCH   3   5
BRANCH   2  14
ATOM     14  C   UNL     1       3.913   4.012  19.546  0.00  0.00    +0.000 C 
BRANCH  14  15
ATOM     15  N   UNL     1       5.072   4.590  18.890  0.00  0.00    +0.000 N 
ATOM     16  N   UNL     1       6.008   5.198  19.658  0.00  0.00    +0.000 NA
ATOM     17  C   UNL     1       6.968   5.522  18.787  0.00  0.00    +0.000 A 
ATOM     18  C   UNL     1       6.652   5.156  17.461  0.00  0.00    +0.000 A 
ATOM     19  C   UNL     1       7.285   5.280  16.208  0.00  0.00    +0.000 A 
ATOM     20  C   UNL     1       6.627   4.768  15.076  0.00  0.00    +0.000 A 
ATOM     21  C   UNL     1       5.384   4.132  15.184  0.00  0.00    +0.000 A 
ATOM     22  C   UNL     1       4.754   3.999  16.430  0.00  0.00    +0.000 A 
ATOM     23  C   UNL     1       5.408   4.531  17.553  0.00  0.00    +0.000 A 
BRANCH  20  24
ATOM     24  N   UNL     1       7.262   4.905  13.754  0.00  0.00    +0.000 N 
ATOM     25  O   UNL     1       6.828   4.200  12.831  0.00  0.00    +0.000 OA
ATOM     26  O   UNL     1       8.189   5.718  13.640  0.00  0.00    +0.000 OA
ENDBRANCH  20  24
ENDBRANCH  14  15
ENDBRANCH   2  14
TORSDOF 5
ENDMDL
MODEL 9
REMARK VINA RESULT:      -8.1      5.539      7.728
REMARK  Name = 
REMARK  5 active torsions:
REMARK  status: ('A' for Active; 'I' for Inactive)
REMARK    1  A    between atoms: C_2  and  C_3
REMARK    2  A    between atoms: C_3  and  N_4
REMARK    3  A    between atoms: C_9  and  N_10
REMARK    4  A    between atoms: N_16  and  N_17
REMARK    5  A    between atoms: C_18  and  C_19
REMARK                            x       y       z     vdW  Elec       q    Type
REMARK                         _______ _______ _______ _____ _____    ______ ____
ROOT
ATOM      1  O   UNL     1       0.796   4.021  20.315  0.00  0.00    +0.000 OA
ATOM      2  C   UNL     1       1.931   4.440  20.088  0.00  0.00    +0.000 C 
ATOM      3  N   UNL     1       2.366   5.737  20.344  0.00  0.00    +0.000 N 
ATOM      4  H   UNL     1       3.313   6.020  20.090  0.00  0.00    +0.000 HD
ENDROOT
BRANCH   3   5
ATOM      5  N   UNL     1       1.490   6.667  20.836  0.00  0.00    +0.000 NA
ATOM      6  C   UNL     1       1.800   7.906  20.618  0.00  0.00    +0.000 C 
BRANCH   6   7
ATOM      7  C   UNL     1       0.932   9.027  21.052  0.00  0.00    +0.000 A 
ATOM      8  C   UNL     1       0.571   9.111  22.405  0.00  0.00    +0.000 A 
ATOM      9  C   UNL     1      -0.320  10.095  22.844  0.00  0.00    +0.000 A 
ATOM     10  C   UNL     1      -0.839  11.018  21.940  0.00  0.00    +0.000 A 
ATOM     11  C   UNL     1      -0.456  10.969  20.599  0.00  0.00    +0.000 A 
ATOM     12  C   UNL     1       0.425   9.975  20.150  0.00  0.00    +0.000 A 
ATOM     13 BR   UNL     1       0.848   9.990  18.297  0.00  0.00    +0.000 Br
ENDBRANCH   6   7
ENDBRANCH   3   5
BRANCH   2  14
ATOM     14  C   UNL     1       3.012   3.515  19.585  0.00  0.00    +0.000 C 
BRANCH  14  15
ATOM     15  N   UNL     1       4.185   4.224  19.108  0.00  0.00    +0.000 N 
ATOM     16  N   UNL     1       4.923   4.922  20.004  0.00  0.00    +0.000 NA
ATOM     17  C   UNL     1       5.961   5.358  19.285  0.00  0.00    +0.000 A 
ATOM     18  C   UNL     1       5.890   4.974  17.929  0.00  0.00    +0.000 A 
ATOM     19  C   UNL     1       6.686   5.180  16.785  0.00  0.00    +0.000 A 
ATOM     20  C   UNL     1       6.266   4.613  15.569  0.00  0.00    +0.000 A 
ATOM     21  C   UNL     1       5.098   3.843  15.493  0.00  0.00    +0.000 A 
ATOM     22  C   UNL     1       4.307   3.629  16.631  0.00  0.00    +0.000 A 
ATOM     23  C   UNL     1       4.722   4.217  17.837  0.00  0.00    +0.000 A 
BRANCH  20  24
ATOM     24  N   UNL     1       7.073   4.832  14.358  0.00  0.00    +0.000 N 
ATOM     25  O   UNL     1       8.001   5.651  14.424  0.00  0.00    +0.000 OA
ATOM     26  O   UNL     1       6.781   4.183  13.344  0.00  0.00    +0.000 OA
ENDBRANCH  20  24
ENDBRANCH  14  15
ENDBRANCH   2  14
TORSDOF 5
ENDMDL
