MODEL 1
REMARK VINA RESULT:      -8.5      0.000      0.000
REMARK  Name = 
REMARK  12 active torsions:
REMARK  status: ('A' for Active; 'I' for Inactive)
REMARK    1  A    between atoms: C_1  and  C_2
REMARK    2  A    between atoms: C_2  and  C_3
REMARK    3  A    between atoms: C_2  and  N_6
REMARK    4  A    between atoms: C_3  and  O_5
REMARK    5  A    between atoms: N_6  and  C_7
REMARK    6  A    between atoms: N_6  and  S_17
REMARK    7  A    between atoms: C_7  and  C_8
REMARK    8  A    between atoms: C_13  and  N_14
REMARK    9  A    between atoms: S_17  and  C_20
REMARK   10  A    between atoms: C_25  and  N_26
REMARK   11  A    between atoms: N_26  and  C_27
REMARK   12  A    between atoms: N_26  and  C_28
REMARK                            x       y       z     vdW  Elec       q    Type
REMARK                         _______ _______ _______ _____ _____    ______ ____
ROOT
ATOM      1  N   UNL     1       3.307   4.292  19.287  0.00  0.00    +0.000 NA
ENDROOT
BRANCH   1   2
ATOM      2  S   UNL     1       2.126   5.216  20.140  0.00  0.00    +0.000 S 
ATOM      3  O   UNL     1       0.825   4.641  19.891  0.00  0.00    +0.000 OA
ATOM      4  O   UNL     1       2.667   5.355  21.480  0.00  0.00    +0.000 OA
BRANCH   2   5
ATOM      5  C   UNL     1       2.034   6.829  19.392  0.00  0.00    +0.000 A 
ATOM      6  C   UNL     1       2.571   6.978  18.116  0.00  0.00    +0.000 A 
ATOM      7  C   UNL     1       2.473   8.203  17.495  0.00  0.00    +0.000 A 
ATOM      8  C   UNL     1       1.879   9.275  18.165  0.00  0.00    +0.000 A 
ATOM      9  C   UNL     1       1.393   9.222  19.502  0.00  0.00    +0.000 A 
ATOM     10  C   UNL     1       0.904  10.356  20.266  0.00  0.00    +0.000 A 
ATOM     11  C   UNL     1       0.443  10.082  21.575  0.00  0.00    +0.000 A 
ATOM     12  C   UNL     1       0.280   8.800  22.065  0.00  0.00    +0.000 A 
ATOM     13  C   UNL     1       0.733   7.730  21.318  0.00  0.00    +0.000 A 
ATOM     14  C   UNL     1       1.394   7.910  20.083  0.00  0.00    +0.000 A 
BRANCH  10  15
ATOM     15  N   UNL     1       0.899  11.700  19.866  0.00  0.00    +0.000 N 
ATOM     16  C   UNL     1       1.770  12.674  20.540  0.00  0.00    +0.000 C 
ATOM     17  C   UNL     1      -0.130  12.337  19.057  0.00  0.00    +0.000 C 
ENDBRANCH  10  15
ENDBRANCH   2   5
ENDBRANCH   1   2
BRANCH   1  19
ATOM     18  C   UNL     1       2.540   2.485  17.695  0.00  0.00    +0.000 C 
ATOM     19  C   UNL     1       3.004   2.812  19.123  0.00  0.00    +0.000 C 
BRANCH  19  20
ATOM     20  C   UNL     1       4.163   1.850  19.407  0.00  0.00    +0.000 C 
ATOM     21  O   UNL     1       4.957   1.986  20.329  0.00  0.00    +0.000 OA
BRANCH  20  22
ATOM     22  O   UNL     1       4.255   0.809  18.550  0.00  0.00    +0.000 OA
ATOM     23  H   UNL     1       4.585   1.045  17.650  0.00  0.00    +0.000 HD
ENDBRANCH  20  22
ENDBRANCH  19  20
ENDBRANCH   1  19
BRANCH   1  24
ATOM     24  C   UNL     1       3.841   4.982  18.053  0.00  0.00    +0.000 C 
BRANCH  24  25
ATOM     25  C   UNL     1       5.317   5.341  18.082  0.00  0.00    +0.000 A 
ATOM     26  C   UNL     1       6.035   5.168  19.276  0.00  0.00    +0.000 A 
ATOM     27  C   UNL     1       7.293   5.744  19.466  0.00  0.00    +0.000 A 
ATOM     28  C   UNL     1       7.895   6.464  18.442  0.00  0.00    +0.000 A 
ATOM     29  C   UNL     1       7.277   6.535  17.201  0.00  0.00    +0.000 A 
ATOM     30  C   UNL     1       6.008   5.947  17.021  0.00  0.00    +0.000 A 
BRANCH  30  31
ATOM     31  N   UNL     1       5.495   5.936  15.672  0.00  0.00    +0.000 N 
ATOM     32  O   UNL     1       5.516   4.853  15.067  0.00  0.00    +0.000 OA
ATOM     33  O   UNL     1       5.064   7.004  15.223  0.00  0.00    +0.000 OA
ENDBRANCH  30  31
ENDBRANCH  24  25
ENDBRANCH   1  24
TORSDOF 9
ENDMDL
MODEL 2
REMARK VINA RESULT:      -8.1      0.706      1.129
REMARK  Name = 
REMARK  12 active torsions:
REMARK  status: ('A' for Active; 'I' for Inactive)
REMARK    1  A    between atoms: C_1  and  C_2
REMARK    2  A    between atoms: C_2  and  C_3
REMARK    3  A    between atoms: C_2  and  N_6
REMARK    4  A    between atoms: C_3  and  O_5
REMARK    5  A    between atoms: N_6  and  C_7
REMARK    6  A    between atoms: N_6  and  S_17
REMARK    7  A    between atoms: C_7  and  C_8
REMARK    8  A    between atoms: C_13  and  N_14
REMARK    9  A    between atoms: S_17  and  C_20
REMARK   10  A    between atoms: C_25  and  N_26
REMARK   11  A    between atoms: N_26  and  C_27
REMARK   12  A    between atoms: N_26  and  C_28
REMARK                            x       y       z     vdW  Elec       q    Type
REMARK                         _______ _______ _______ _____ _____    ______ ____
ROOT
ATOM      1  N   UNL     1       3.618   4.370  19.605  0.00  0.00    +0.000 NA
ENDROOT
BRANCH   1   2
ATOM      2  S   UNL     1       2.154   5.147  20.086  0.00  0.00    +0.000 S 
ATOM      3  O   UNL     1       1.044   4.450  19.481  0.00  0.00    +0.000 OA
ATOM      4  O   UNL     1       2.279   5.304  21.525  0.00  0.00    +0.000 OA
BRANCH   2   5
ATOM      5  C   UNL     1       2.110   6.762  19.338  0.00  0.00    +0.000 A 
ATOM      6  C   UNL     1       2.713   6.911  18.093  0.00  0.00    +0.000 A 
ATOM      7  C   UNL     1       2.654   8.138  17.470  0.00  0.00    +0.000 A 
ATOM      8  C   UNL     1       2.032   9.212  18.111  0.00  0.00    +0.000 A 
ATOM      9  C   UNL     1       1.477   9.158  19.421  0.00  0.00    +0.000 A 
ATOM     10  C   UNL     1       0.956  10.293  20.162  0.00  0.00    +0.000 A 
ATOM     11  C   UNL     1       0.426  10.019  21.444  0.00  0.00    +0.000 A 
ATOM     12  C   UNL     1       0.231   8.736  21.923  0.00  0.00    +0.000 A 
ATOM     13  C   UNL     1       0.716   7.666  21.197  0.00  0.00    +0.000 A 
ATOM     14  C   UNL     1       1.441   7.845  19.998  0.00  0.00    +0.000 A 
BRANCH  10  15
ATOM     15  N   UNL     1       0.978  11.638  19.765  0.00  0.00    +0.000 N 
ATOM     16  C   UNL     1       1.764  12.619  20.527  0.00  0.00    +0.000 C 
ATOM     17  C   UNL     1       0.033  12.267  18.853  0.00  0.00    +0.000 C 
ENDBRANCH  10  15
ENDBRANCH   2   5
ENDBRANCH   1   2
BRANCH   1  19
ATOM     18  C   UNL     1       3.000   2.525  21.218  0.00  0.00    +0.000 C 
ATOM     19  C   UNL     1       3.712   2.883  19.905  0.00  0.00    +0.000 C 
BRANCH  19  20
ATOM     20  C   UNL     1       3.121   1.944  18.848  0.00  0.00    +0.000 C 
ATOM     21  O   UNL     1       3.760   1.463  17.922  0.00  0.00    +0.000 OA
BRANCH  20  22
ATOM     22  O   UNL     1       1.806   1.670  19.009  0.00  0.00    +0.000 OA
ATOM     23  H   UNL     1       1.217   2.462  19.003  0.00  0.00    +0.000 HD
ENDBRANCH  20  22
ENDBRANCH  19  20
ENDBRANCH   1  19
BRANCH   1  24
ATOM     24  C   UNL     1       4.102   4.784  18.235  0.00  0.00    +0.000 C 
BRANCH  24  25
ATOM     25  C   UNL     1       5.530   5.298  18.164  0.00  0.00    +0.000 A 
ATOM     26  C   UNL     1       6.340   5.212  19.308  0.00  0.00    +0.000 A 
ATOM     27  C   UNL     1       7.539   5.920  19.412  0.00  0.00    +0.000 A 
ATOM     28  C   UNL     1       7.991   6.692  18.349  0.00  0.00    +0.000 A 
ATOM     29  C   UNL     1       7.288   6.688  17.153  0.00  0.00    +0.000 A 
ATOM     30  C   UNL     1       6.080   5.966  17.059  0.00  0.00    +0.000 A 
BRANCH  30  31
ATOM     31  N   UNL     1       5.482   5.890  15.747  0.00  0.00    +0.000 N 
ATOM     32  O   UNL     1       5.101   6.953  15.236  0.00  0.00    +0.000 OA
ATOM     33  O   UNL     1       5.404   4.770  15.227  0.00  0.00    +0.000 OA
ENDBRANCH  30  31
ENDBRANCH  24  25
ENDBRANCH   1  24
TORSDOF 9
ENDMDL
MODEL 3
REMARK VINA RESULT:      -7.9      3.756      8.108
REMARK  Name = 
REMARK  12 active torsions:
REMARK  status: ('A' for Active; 'I' for Inactive)
REMARK    1  A    between atoms: C_1  and  C_2
REMARK    2  A    between atoms: C_2  and  C_3
REMARK    3  A    between atoms: C_2  and  N_6
REMARK    4  A    between atoms: C_3  and  O_5
REMARK    5  A    between atoms: N_6  and  C_7
REMARK    6  A    between atoms: N_6  and  S_17
REMARK    7  A    between atoms: C_7  and  C_8
REMARK    8  A    between atoms: C_13  and  N_14
REMARK    9  A    between atoms: S_17  and  C_20
REMARK   10  A    between atoms: C_25  and  N_26
REMARK   11  A    between atoms: N_26  and  C_27
REMARK   12  A    between atoms: N_26  and  C_28
REMARK                            x       y       z     vdW  Elec       q    Type
REMARK                         _______ _______ _______ _____ _____    ______ ____
ROOT
ATOM      1  N   UNL     1       0.404  10.548  20.076  0.00  0.00    +0.000 NA
ENDROOT
BRANCH   1   2
ATOM      2  S   UNL     1       0.846   9.032  20.771  0.00  0.00    +0.000 S 
ATOM      3  O   UNL     1       1.802   9.272  21.827  0.00  0.00    +0.000 OA
ATOM      4  O   UNL     1      -0.417   8.356  21.010  0.00  0.00    +0.000 OA
BRANCH   2   5
ATOM      5  C   UNL     1       1.766   8.110  19.558  0.00  0.00    +0.000 A 
ATOM      6  C   UNL     1       2.224   8.798  18.438  0.00  0.00    +0.000 A 
ATOM      7  C   UNL     1       2.978   8.121  17.505  0.00  0.00    +0.000 A 
ATOM      8  C   UNL     1       3.232   6.758  17.676  0.00  0.00    +0.000 A 
ATOM      9  C   UNL     1       2.719   5.969  18.745  0.00  0.00    +0.000 A 
ATOM     10  C   UNL     1       2.850   4.528  18.866  0.00  0.00    +0.000 A 
ATOM     11  C   UNL     1       2.286   3.939  20.021  0.00  0.00    +0.000 A 
ATOM     12  C   UNL     1       1.794   4.677  21.083  0.00  0.00    +0.000 A 
ATOM     13  C   UNL     1       1.694   6.050  20.959  0.00  0.00    +0.000 A 
ATOM     14  C   UNL     1       2.043   6.718  19.765  0.00  0.00    +0.000 A 
BRANCH  10  15
ATOM     15  N   UNL     1       3.421   3.654  17.930  0.00  0.00    +0.000 N 
ATOM     16  C   UNL     1       2.873   2.302  17.752  0.00  0.00    +0.000 C 
ATOM     17  C   UNL     1       4.734   3.808  17.321  0.00  0.00    +0.000 C 
ENDBRANCH  10  15
ENDBRANCH   2   5
ENDBRANCH   1   2
BRANCH   1  19
ATOM     18  C   UNL     1      -1.712  11.919  20.252  0.00  0.00    +0.000 C 
ATOM     19  C   UNL     1      -1.044  10.681  19.635  0.00  0.00    +0.000 C 
BRANCH  19  20
ATOM     20  C   UNL     1      -1.280  10.798  18.125  0.00  0.00    +0.000 C 
ATOM     21  O   UNL     1      -1.470   9.842  17.383  0.00  0.00    +0.000 OA
BRANCH  20  22
ATOM     22  O   UNL     1      -1.267  12.063  17.648  0.00  0.00    +0.000 OA
ATOM     23  H   UNL     1      -2.089  12.332  17.171  0.00  0.00    +0.000 HD
ENDBRANCH  20  22
ENDBRANCH  19  20
ENDBRANCH   1  19
BRANCH   1  24
ATOM     24  C   UNL     1       0.965  11.740  20.815  0.00  0.00    +0.000 C 
BRANCH  24  25
ATOM     25  C   UNL     1       1.594  12.819  19.950  0.00  0.00    +0.000 A 
ATOM     26  C   UNL     1       2.123  12.465  18.699  0.00  0.00    +0.000 A 
ATOM     27  C   UNL     1       2.968  13.321  17.991  0.00  0.00    +0.000 A 
ATOM     28  C   UNL     1       3.262  14.584  18.489  0.00  0.00    +0.000 A 
ATOM     29  C   UNL     1       2.645  15.022  19.652  0.00  0.00    +0.000 A 
ATOM     30  C   UNL     1       1.791  14.149  20.357  0.00  0.00    +0.000 A 
BRANCH  30  31
ATOM     31  N   UNL     1       1.074  14.719  21.473  0.00  0.00    +0.000 N 
ATOM     32  O   UNL     1       1.681  14.806  22.550  0.00  0.00    +0.000 OA
ATOM     33  O   UNL     1      -0.089  15.088  21.268  0.00  0.00    +0.000 OA
ENDBRANCH  30  31
ENDBRANCH  24  25
ENDBRANCH   1  24
TORSDOF 9
ENDMDL
MODEL 4
REMARK VINA RESULT:      -7.9      1.303      2.410
REMARK  Name = 
REMARK  12 active torsions:
REMARK  status: ('A' for Active; 'I' for Inactive)
REMARK    1  A    between atoms: C_1  and  C_2
REMARK    2  A    between atoms: C_2  and  C_3
REMARK    3  A    between atoms: C_2  and  N_6
REMARK    4  A    between atoms: C_3  and  O_5
REMARK    5  A    between atoms: N_6  and  C_7
REMARK    6  A    between atoms: N_6  and  S_17
REMARK    7  A    between atoms: C_7  and  C_8
REMARK    8  A    between atoms: C_13  and  N_14
REMARK    9  A    between atoms: S_17  and  C_20
REMARK   10  A    between atoms: C_25  and  N_26
REMARK   11  A    between atoms: N_26  and  C_27
REMARK   12  A    between atoms: N_26  and  C_28
REMARK                            x       y       z     vdW  Elec       q    Type
REMARK                         _______ _______ _______ _____ _____    ______ ____
ROOT
ATOM      1  N   UNL     1       3.737   4.220  18.635  0.00  0.00    +0.000 NA
ENDROOT
BRANCH   1   2
ATOM      2  S   UNL     1       2.658   5.380  17.950  0.00  0.00    +0.000 S 
ATOM      3  O   UNL     1       3.412   6.254  17.083  0.00  0.00    +0.000 OA
ATOM      4  O   UNL     1       1.533   4.596  17.471  0.00  0.00    +0.000 OA
BRANCH   2   5
ATOM      5  C   UNL     1       2.092   6.452  19.254  0.00  0.00    +0.000 A 
ATOM      6  C   UNL     1       1.818   5.873  20.490  0.00  0.00    +0.000 A 
ATOM      7  C   UNL     1       1.422   6.685  21.530  0.00  0.00    +0.000 A 
ATOM      8  C   UNL     1       1.264   8.057  21.317  0.00  0.00    +0.000 A 
ATOM      9  C   UNL     1       1.435   8.703  20.060  0.00  0.00    +0.000 A 
ATOM     10  C   UNL     1       1.139  10.098  19.784  0.00  0.00    +0.000 A 
ATOM     11  C   UNL     1       1.402  10.550  18.470  0.00  0.00    +0.000 A 
ATOM     12  C   UNL     1       2.073   9.789  17.530  0.00  0.00    +0.000 A 
ATOM     13  C   UNL     1       2.366   8.469  17.816  0.00  0.00    +0.000 A 
ATOM     14  C   UNL     1       1.964   7.862  19.026  0.00  0.00    +0.000 A 
BRANCH  10  15
ATOM     15  N   UNL     1       0.562  11.025  20.663  0.00  0.00    +0.000 N 
ATOM     16  C   UNL     1      -0.822  10.843  21.126  0.00  0.00    +0.000 C 
ATOM     17  C   UNL     1       1.068  12.364  20.932  0.00  0.00    +0.000 C 
ENDBRANCH  10  15
ENDBRANCH   2   5
ENDBRANCH   1   2
BRANCH   1  19
ATOM     18  C   UNL     1       3.014   1.818  18.327  0.00  0.00    +0.000 C 
ATOM     19  C   UNL     1       3.088   3.013  19.290  0.00  0.00    +0.000 C 
BRANCH  19  20
ATOM     20  C   UNL     1       3.775   2.481  20.553  0.00  0.00    +0.000 C 
ATOM     21  O   UNL     1       4.904   2.007  20.573  0.00  0.00    +0.000 OA
BRANCH  20  22
ATOM     22  O   UNL     1       3.033   2.570  21.680  0.00  0.00    +0.000 OA
ATOM     23  H   UNL     1       2.263   3.185  21.618  0.00  0.00    +0.000 HD
ENDBRANCH  20  22
ENDBRANCH  19  20
ENDBRANCH   1  19
BRANCH   1  24
ATOM     24  C   UNL     1       4.933   3.916  17.763  0.00  0.00    +0.000 C 
BRANCH  24  25
ATOM     25  C   UNL     1       6.144   4.811  17.965  0.00  0.00    +0.000 A 
ATOM     26  C   UNL     1       6.681   4.945  19.256  0.00  0.00    +0.000 A 
ATOM     27  C   UNL     1       7.586   5.960  19.571  0.00  0.00    +0.000 A 
ATOM     28  C   UNL     1       8.026   6.837  18.588  0.00  0.00    +0.000 A 
ATOM     29  C   UNL     1       7.625   6.647  17.273  0.00  0.00    +0.000 A 
ATOM     30  C   UNL     1       6.713   5.616  16.966  0.00  0.00    +0.000 A 
BRANCH  30  31
ATOM     31  N   UNL     1       6.456   5.387  15.564  0.00  0.00    +0.000 N 
ATOM     32  O   UNL     1       5.717   6.197  14.984  0.00  0.00    +0.000 OA
ATOM     33  O   UNL     1       7.000   4.406  15.043  0.00  0.00    +0.000 OA
ENDBRANCH  30  31
ENDBRANCH  24  25
ENDBRANCH   1  24
TORSDOF 9
ENDMDL
MODEL 5
REMARK VINA RESULT:      -7.9      3.967      8.419
REMARK  Name = 
REMARK  12 active torsions:
REMARK  status: ('A' for Active; 'I' for Inactive)
REMARK    1  A    between atoms: C_1  and  C_2
REMARK    2  A    between atoms: C_2  and  C_3
REMARK    3  A    between atoms: C_2  and  N_6
REMARK    4  A    between atoms: C_3  and  O_5
REMARK    5  A    between atoms: N_6  and  C_7
REMARK    6  A    between atoms: N_6  and  S_17
REMARK    7  A    between atoms: C_7  and  C_8
REMARK    8  A    between atoms: C_13  and  N_14
REMARK    9  A    between atoms: S_17  and  C_20
REMARK   10  A    between atoms: C_25  and  N_26
REMARK   11  A    between atoms: N_26  and  C_27
REMARK   12  A    between atoms: N_26  and  C_28
REMARK                            x       y       z     vdW  Elec       q    Type
REMARK                         _______ _______ _______ _____ _____    ______ ____
ROOT
ATOM      1  N   UNL     1      -0.131  11.271  19.916  0.00  0.00    +0.000 NA
ENDROOT
BRANCH   1   2
ATOM      2  S   UNL     1       0.468   9.833  20.659  0.00  0.00    +0.000 S 
ATOM      3  O   UNL     1       1.414  10.205  21.684  0.00  0.00    +0.000 OA
ATOM      4  O   UNL     1      -0.720   9.049  20.949  0.00  0.00    +0.000 OA
BRANCH   2   5
ATOM      5  C   UNL     1       1.452   8.956  19.462  0.00  0.00    +0.000 A 
ATOM      6  C   UNL     1       1.855   9.653  18.326  0.00  0.00    +0.000 A 
ATOM      7  C   UNL     1       2.655   9.014  17.405  0.00  0.00    +0.000 A 
ATOM      8  C   UNL     1       3.011   7.677  17.605  0.00  0.00    +0.000 A 
ATOM      9  C   UNL     1       2.560   6.876  18.692  0.00  0.00    +0.000 A 
ATOM     10  C   UNL     1       2.799   5.451  18.843  0.00  0.00    +0.000 A 
ATOM     11  C   UNL     1       2.282   4.847  20.013  0.00  0.00    +0.000 A 
ATOM     12  C   UNL     1       1.739   5.569  21.060  0.00  0.00    +0.000 A 
ATOM     13  C   UNL     1       1.536   6.927  20.907  0.00  0.00    +0.000 A 
ATOM     14  C   UNL     1       1.832   7.594  19.698  0.00  0.00    +0.000 A 
BRANCH  10  15
ATOM     15  N   UNL     1       3.432   4.602  17.924  0.00  0.00    +0.000 N 
ATOM     16  C   UNL     1       2.677   3.519  17.279  0.00  0.00    +0.000 C 
ATOM     17  C   UNL     1       4.871   4.451  17.765  0.00  0.00    +0.000 C 
ENDBRANCH  10  15
ENDBRANCH   2   5
ENDBRANCH   1   2
BRANCH   1  19
ATOM     18  C   UNL     1      -2.387  12.405  19.793  0.00  0.00    +0.000 C 
ATOM     19  C   UNL     1      -1.544  11.195  19.361  0.00  0.00    +0.000 C 
BRANCH  19  20
ATOM     20  C   UNL     1      -1.666  11.133  17.835  0.00  0.00    +0.000 C 
ATOM     21  O   UNL     1      -1.847  10.101  17.201  0.00  0.00    +0.000 OA
BRANCH  20  22
ATOM     22  O   UNL     1      -1.560  12.328  17.211  0.00  0.00    +0.000 OA
ATOM     23  H   UNL     1      -1.980  13.082  17.691  0.00  0.00    +0.000 HD
ENDBRANCH  20  22
ENDBRANCH  19  20
ENDBRANCH   1  19
BRANCH   1  24
ATOM     24  C   UNL     1       0.193  12.531  20.685  0.00  0.00    +0.000 C 
BRANCH  24  25
ATOM     25  C   UNL     1       1.060  13.545  19.958  0.00  0.00    +0.000 A 
ATOM     26  C   UNL     1       1.619  13.196  18.718  0.00  0.00    +0.000 A 
ATOM     27  C   UNL     1       2.648  13.943  18.142  0.00  0.00    +0.000 A 
ATOM     28  C   UNL     1       3.110  15.097  18.764  0.00  0.00    +0.000 A 
ATOM     29  C   UNL     1       2.484  15.548  19.918  0.00  0.00    +0.000 A 
ATOM     30  C   UNL     1       1.444  14.787  20.488  0.00  0.00    +0.000 A 
BRANCH  30  31
ATOM     31  N   UNL     1       0.747  15.389  21.600  0.00  0.00    +0.000 N 
ATOM     32  O   UNL     1      -0.324  15.963  21.352  0.00  0.00    +0.000 OA
ATOM     33  O   UNL     1       1.265  15.280  22.718  0.00  0.00    +0.000 OA
ENDBRANCH  30  31
ENDBRANCH  24  25
ENDBRANCH   1  24
TORSDOF 9
ENDMDL
MODEL 6
REMARK VINA RESULT:      -7.7      1.848      3.061
REMARK  Name = 
REMARK  12 active torsions:
REMARK  status: ('A' for Active; 'I' for Inactive)
REMARK    1  A    between atoms: C_1  and  C_2
REMARK    2  A    between atoms: C_2  and  C_3
REMARK    3  A    between atoms: C_2  and  N_6
REMARK    4  A    between atoms: C_3  and  O_5
REMARK    5  A    between atoms: N_6  and  C_7
REMARK    6  A    between atoms: N_6  and  S_17
REMARK    7  A    between atoms: C_7  and  C_8
REMARK    8  A    between atoms: C_13  and  N_14
REMARK    9  A    between atoms: S_17  and  C_20
REMARK   10  A    between atoms: C_25  and  N_26
REMARK   11  A    between atoms: N_26  and  C_27
REMARK   12  A    between atoms: N_26  and  C_28
REMARK                            x       y       z     vdW  Elec       q    Type
REMARK                         _______ _______ _______ _____ _____    ______ ____
ROOT
ATOM      1  N   UNL     1       3.757   5.007  19.361  0.00  0.00    +0.000 NA
ENDROOT
BRANCH   1   2
ATOM      2  S   UNL     1       2.803   6.100  18.427  0.00  0.00    +0.000 S 
ATOM      3  O   UNL     1       3.689   6.971  17.691  0.00  0.00    +0.000 OA
ATOM      4  O   UNL     1       1.822   5.256  17.766  0.00  0.00    +0.000 OA
BRANCH   2   5
ATOM      5  C   UNL     1       1.953   7.194  19.545  0.00  0.00    +0.000 A 
ATOM      6  C   UNL     1       1.486   6.656  20.741  0.00  0.00    +0.000 A 
ATOM      7  C   UNL     1       0.866   7.489  21.645  0.00  0.00    +0.000 A 
ATOM      8  C   UNL     1       0.681   8.838  21.331  0.00  0.00    +0.000 A 
ATOM      9  C   UNL     1       1.047   9.436  20.092  0.00  0.00    +0.000 A 
ATOM     10  C   UNL     1       0.736  10.796  19.690  0.00  0.00    +0.000 A 
ATOM     11  C   UNL     1       1.214  11.203  18.423  0.00  0.00    +0.000 A 
ATOM     12  C   UNL     1       2.084  10.442  17.663  0.00  0.00    +0.000 A 
ATOM     13  C   UNL     1       2.385   9.156  18.070  0.00  0.00    +0.000 A 
ATOM     14  C   UNL     1       1.799   8.582  19.219  0.00  0.00    +0.000 A 
BRANCH  10  15
ATOM     15  N   UNL     1      -0.038  11.727  20.398  0.00  0.00    +0.000 N 
ATOM     16  C   UNL     1      -1.491  11.790  20.186  0.00  0.00    +0.000 C 
ATOM     17  C   UNL     1       0.475  12.894  21.101  0.00  0.00    +0.000 C 
ENDBRANCH  10  15
ENDBRANCH   2   5
ENDBRANCH   1   2
BRANCH   1  19
ATOM     18  C   UNL     1       4.297   2.600  19.912  0.00  0.00    +0.000 C 
ATOM     19  C   UNL     1       3.201   3.602  19.516  0.00  0.00    +0.000 C 
BRANCH  19  20
ATOM     20  C   UNL     1       2.090   3.427  20.557  0.00  0.00    +0.000 C 
ATOM     21  O   UNL     1       2.272   3.460  21.768  0.00  0.00    +0.000 OA
BRANCH  20  22
ATOM     22  O   UNL     1       0.857   3.229  20.039  0.00  0.00    +0.000 OA
ATOM     23  H   UNL     1       0.424   2.387  20.317  0.00  0.00    +0.000 HD
ENDBRANCH  20  22
ENDBRANCH  19  20
ENDBRANCH   1  19
BRANCH   1  24
ATOM     24  C   UNL     1       5.237   5.087  19.062  0.00  0.00    +0.000 C 
BRANCH  24  25
ATOM     25  C   UNL     1       5.624   4.940  17.600  0.00  0.00    +0.000 A 
ATOM     26  C   UNL     1       4.956   3.990  16.812  0.00  0.00    +0.000 A 
ATOM     27  C   UNL     1       5.448   3.593  15.567  0.00  0.00    +0.000 A 
ATOM     28  C   UNL     1       6.597   4.179  15.049  0.00  0.00    +0.000 A 
ATOM     29  C   UNL     1       7.203   5.221  15.736  0.00  0.00    +0.000 A 
ATOM     30  C   UNL     1       6.694   5.615  16.991  0.00  0.00    +0.000 A 
BRANCH  30  31
ATOM     31  N   UNL     1       7.284   6.795  17.578  0.00  0.00    +0.000 N 
ATOM     32  O   UNL     1       6.982   7.888  17.076  0.00  0.00    +0.000 OA
ATOM     33  O   UNL     1       8.039   6.629  18.544  0.00  0.00    +0.000 OA
ENDBRANCH  30  31
ENDBRANCH  24  25
ENDBRANCH   1  24
TORSDOF 9
ENDMDL
MODEL 7
REMARK VINA RESULT:      -7.7      0.847      1.211
REMARK  Name = 
REMARK  12 active torsions:
REMARK  status: ('A' for Active; 'I' for Inactive)
REMARK    1  A    between atoms: C_1  and  C_2
REMARK    2  A    between atoms: C_2  and  C_3
REMARK    3  A    between atoms: C_2  and  N_6
REMARK    4  A    between atoms: C_3  and  O_5
REMARK    5  A    between atoms: N_6  and  C_7
REMARK    6  A    between atoms: N_6  and  S_17
REMARK    7  A    between atoms: C_7  and  C_8
REMARK    8  A    between atoms: C_13  and  N_14
REMARK    9  A    between atoms: S_17  and  C_20
REMARK   10  A    between atoms: C_25  and  N_26
REMARK   11  A    between atoms: N_26  and  C_27
REMARK   12  A    between atoms: N_26  and  C_28
REMARK                            x       y       z     vdW  Elec       q    Type
REMARK                         _______ _______ _______ _____ _____    ______ ____
ROOT
ATOM      1  N   UNL     1       2.815   4.718  18.965  0.00  0.00    +0.000 NA
ENDROOT
BRANCH   1   2
ATOM      2  S   UNL     1       1.945   5.648  20.130  0.00  0.00    +0.000 S 
ATOM      3  O   UNL     1       0.586   5.163  20.183  0.00  0.00    +0.000 OA
ATOM      4  O   UNL     1       2.806   5.669  21.299  0.00  0.00    +0.000 OA
BRANCH   2   5
ATOM      5  C   UNL     1       1.786   7.309  19.509  0.00  0.00    +0.000 A 
ATOM      6  C   UNL     1       2.246   7.560  18.219  0.00  0.00    +0.000 A 
ATOM      7  C   UNL     1       2.093   8.825  17.696  0.00  0.00    +0.000 A 
ATOM      8  C   UNL     1       1.524   9.835  18.477  0.00  0.00    +0.000 A 
ATOM      9  C   UNL     1       1.119   9.675  19.832  0.00  0.00    +0.000 A 
ATOM     10  C   UNL     1       0.659  10.741  20.704  0.00  0.00    +0.000 A 
ATOM     11  C   UNL     1       0.279  10.365  22.014  0.00  0.00    +0.000 A 
ATOM     12  C   UNL     1       0.164   9.047  22.417  0.00  0.00    +0.000 A 
ATOM     13  C   UNL     1       0.588   8.043  21.568  0.00  0.00    +0.000 A 
ATOM     14  C   UNL     1       1.172   8.325  20.313  0.00  0.00    +0.000 A 
BRANCH  10  15
ATOM     15  N   UNL     1       0.611  12.110  20.406  0.00  0.00    +0.000 N 
ATOM     16  C   UNL     1      -0.555  12.673  19.709  0.00  0.00    +0.000 C 
ATOM     17  C   UNL     1       1.749  13.018  20.411  0.00  0.00    +0.000 C 
ENDBRANCH  10  15
ENDBRANCH   2   5
ENDBRANCH   1   2
BRANCH   1  19
ATOM     18  C   UNL     1       2.579   3.146  17.000  0.00  0.00    +0.000 C 
ATOM     19  C   UNL     1       2.095   3.498  18.416  0.00  0.00    +0.000 C 
BRANCH  19  20
ATOM     20  C   UNL     1       2.237   2.207  19.230  0.00  0.00    +0.000 C 
ATOM     21  O   UNL     1       1.788   2.054  20.358  0.00  0.00    +0.000 OA
BRANCH  20  22
ATOM     22  O   UNL     1       2.911   1.216  18.604  0.00  0.00    +0.000 OA
ATOM     23  H   UNL     1       3.805   1.026  18.978  0.00  0.00    +0.000 HD
ENDBRANCH  20  22
ENDBRANCH  19  20
ENDBRANCH   1  19
BRANCH   1  24
ATOM     24  C   UNL     1       3.540   5.557  17.938  0.00  0.00    +0.000 C 
BRANCH  24  25
ATOM     25  C   UNL     1       5.057   5.543  18.024  0.00  0.00    +0.000 A 
ATOM     26  C   UNL     1       5.665   5.282  19.263  0.00  0.00    +0.000 A 
ATOM     27  C   UNL     1       7.018   5.543  19.485  0.00  0.00    +0.000 A 
ATOM     28  C   UNL     1       7.818   6.021  18.454  0.00  0.00    +0.000 A 
ATOM     29  C   UNL     1       7.283   6.156  17.180  0.00  0.00    +0.000 A 
ATOM     30  C   UNL     1       5.915   5.887  16.968  0.00  0.00    +0.000 A 
BRANCH  30  31
ATOM     31  N   UNL     1       5.465   5.908  15.596  0.00  0.00    +0.000 N 
ATOM     32  O   UNL     1       5.136   7.008  15.126  0.00  0.00    +0.000 OA
ATOM     33  O   UNL     1       5.452   4.831  14.989  0.00  0.00    +0.000 OA
ENDBRANCH  30  31
ENDBRANCH  24  25
ENDBRANCH   1  24
TORSDOF 9
ENDMDL
MODEL 8
REMARK VINA RESULT:      -7.6      6.676     10.564
REMARK  Name = 
REMARK  12 active torsions:
REMARK  status: ('A' for Active; 'I' for Inactive)
REMARK    1  A    between atoms: C_1  and  C_2
REMARK    2  A    between atoms: C_2  and  C_3
REMARK    3  A    between atoms: C_2  and  N_6
REMARK    4  A    between atoms: C_3  and  O_5
REMARK    5  A    between atoms: N_6  and  C_7
REMARK    6  A    between atoms: N_6  and  S_17
REMARK    7  A    between atoms: C_7  and  C_8
REMARK    8  A    between atoms: C_13  and  N_14
REMARK    9  A    between atoms: S_17  and  C_20
REMARK   10  A    between atoms: C_25  and  N_26
REMARK   11  A    between atoms: N_26  and  C_27
REMARK   12  A    between atoms: N_26  and  C_28
REMARK                            x       y       z     vdW  Elec       q    Type
REMARK                         _______ _______ _______ _____ _____    ______ ____
ROOT
ATOM      1  N   UNL     1      -3.009  13.697  22.402  0.00  0.00    +0.000 NA
ENDROOT
BRANCH   1   2
ATOM      2  S   UNL     1      -1.412  14.330  22.572  0.00  0.00    +0.000 S 
ATOM      3  O   UNL     1      -1.400  15.686  22.077  0.00  0.00    +0.000 OA
ATOM      4  O   UNL     1      -1.030  13.999  23.933  0.00  0.00    +0.000 OA
BRANCH   2   5
ATOM      5  C   UNL     1      -0.344  13.452  21.450  0.00  0.00    +0.000 A 
ATOM      6  C   UNL     1       0.320  14.196  20.479  0.00  0.00    +0.000 A 
ATOM      7  C   UNL     1       1.188  13.550  19.627  0.00  0.00    +0.000 A 
ATOM      8  C   UNL     1       1.354  12.166  19.725  0.00  0.00    +0.000 A 
ATOM      9  C   UNL     1       0.640  11.329  20.628  0.00  0.00    +0.000 A 
ATOM     10  C   UNL     1       0.690   9.878  20.651  0.00  0.00    +0.000 A 
ATOM     11  C   UNL     1      -0.080   9.236  21.648  0.00  0.00    +0.000 A 
ATOM     12  C   UNL     1      -0.709   9.919  22.673  0.00  0.00    +0.000 A 
ATOM     13  C   UNL     1      -0.731  11.301  22.648  0.00  0.00    +0.000 A 
ATOM     14  C   UNL     1      -0.163  12.036  21.584  0.00  0.00    +0.000 A 
BRANCH  10  15
ATOM     15  N   UNL     1       1.370   9.046  19.750  0.00  0.00    +0.000 N 
ATOM     16  C   UNL     1       1.252   9.272  18.302  0.00  0.00    +0.000 C 
ATOM     17  C   UNL     1       1.942   7.745  20.067  0.00  0.00    +0.000 C 
ENDBRANCH  10  15
ENDBRANCH   2   5
ENDBRANCH   1   2
BRANCH   1  19
ATOM     18  C   UNL     1      -5.120  14.742  23.318  0.00  0.00    +0.000 C 
ATOM     19  C   UNL     1      -3.913  13.839  23.615  0.00  0.00    +0.000 C 
BRANCH  19  20
ATOM     20  C   UNL     1      -4.502  12.538  24.172  0.00  0.00    +0.000 C 
ATOM     21  O   UNL     1      -5.664  12.410  24.534  0.00  0.00    +0.000 OA
BRANCH  20  22
ATOM     22  O   UNL     1      -3.629  11.508  24.241  0.00  0.00    +0.000 OA
ATOM     23  H   UNL     1      -3.994  10.685  24.647  0.00  0.00    +0.000 HD
ENDBRANCH  20  22
ENDBRANCH  19  20
ENDBRANCH   1  19
BRANCH   1  24
ATOM     24  C   UNL     1      -3.653  14.026  21.075  0.00  0.00    +0.000 C 
BRANCH  24  25
ATOM     25  C   UNL     1      -3.884  12.849  20.142  0.00  0.00    +0.000 A 
ATOM     26  C   UNL     1      -2.791  12.311  19.443  0.00  0.00    +0.000 A 
ATOM     27  C   UNL     1      -2.967  11.444  18.364  0.00  0.00    +0.000 A 
ATOM     28  C   UNL     1      -4.243  11.043  17.987  0.00  0.00    +0.000 A 
ATOM     29  C   UNL     1      -5.336  11.443  18.743  0.00  0.00    +0.000 A 
ATOM     30  C   UNL     1      -5.145  12.317  19.833  0.00  0.00    +0.000 A 
BRANCH  30  31
ATOM     31  N   UNL     1      -6.303  12.572  20.657  0.00  0.00    +0.000 N 
ATOM     32  O   UNL     1      -6.941  13.611  20.430  0.00  0.00    +0.000 OA
ATOM     33  O   UNL     1      -6.578  11.730  21.520  0.00  0.00    +0.000 OA
ENDBRANCH  30  31
ENDBRANCH  24  25
ENDBRANCH   1  24
TORSDOF 9
ENDMDL
MODEL 9
REMARK VINA RESULT:      -7.6      3.961      8.397
REMARK  Name = 
REMARK  12 active torsions:
REMARK  status: ('A' for Active; 'I' for Inactive)
REMARK    1  A    between atoms: C_1  and  C_2
REMARK    2  A    between atoms: C_2  and  C_3
REMARK    3  A    between atoms: C_2  and  N_6
REMARK    4  A    between atoms: C_3  and  O_5
REMARK    5  A    between atoms: N_6  and  C_7
REMARK    6  A    between atoms: N_6  and  S_17
REMARK    7  A    between atoms: C_7  and  C_8
REMARK    8  A    between atoms: C_13  and  N_14
REMARK    9  A    between atoms: S_17  and  C_20
REMARK   10  A    between atoms: C_25  and  N_26
REMARK   11  A    between atoms: N_26  and  C_27
REMARK   12  A    between atoms: N_26  and  C_28
REMARK                            x       y       z     vdW  Elec       q    Type
REMARK                         _______ _______ _______ _____ _____    ______ ____
ROOT
ATOM      1  N   UNL     1       0.304  10.981  20.397  0.00  0.00    +0.000 NA
ENDROOT
BRANCH   1   2
ATOM      2  S   UNL     1       0.673   9.392  20.962  0.00  0.00    +0.000 S 
ATOM      3  O   UNL     1       1.624   9.498  22.044  0.00  0.00    +0.000 OA
ATOM      4  O   UNL     1      -0.621   8.754  21.128  0.00  0.00    +0.000 OA
BRANCH   2   5
ATOM      5  C   UNL     1       1.569   8.540  19.682  0.00  0.00    +0.000 A 
ATOM      6  C   UNL     1       1.904   9.263  18.540  0.00  0.00    +0.000 A 
ATOM      7  C   UNL     1       2.637   8.642  17.554  0.00  0.00    +0.000 A 
ATOM      8  C   UNL     1       2.993   7.298  17.696  0.00  0.00    +0.000 A 
ATOM      9  C   UNL     1       2.608   6.473  18.790  0.00  0.00    +0.000 A 
ATOM     10  C   UNL     1       2.844   5.043  18.889  0.00  0.00    +0.000 A 
ATOM     11  C   UNL     1       2.400   4.413  20.074  0.00  0.00    +0.000 A 
ATOM     12  C   UNL     1       1.931   5.111  21.172  0.00  0.00    +0.000 A 
ATOM     13  C   UNL     1       1.730   6.474  21.067  0.00  0.00    +0.000 A 
ATOM     14  C   UNL     1       1.953   7.170  19.858  0.00  0.00    +0.000 A 
BRANCH  10  15
ATOM     15  N   UNL     1       3.409   4.214  17.910  0.00  0.00    +0.000 N 
ATOM     16  C   UNL     1       4.814   4.388  17.516  0.00  0.00    +0.000 C 
ATOM     17  C   UNL     1       2.665   3.385  16.972  0.00  0.00    +0.000 C 
ENDBRANCH  10  15
ENDBRANCH   2   5
ENDBRANCH   1   2
BRANCH   1  19
ATOM     18  C   UNL     1      -1.678  12.076  21.520  0.00  0.00    +0.000 C 
ATOM     19  C   UNL     1      -1.172  11.321  20.281  0.00  0.00    +0.000 C 
BRANCH  19  20
ATOM     20  C   UNL     1      -1.572  12.187  19.081  0.00  0.00    +0.000 C 
ATOM     21  O   UNL     1      -1.681  11.766  17.936  0.00  0.00    +0.000 OA
BRANCH  20  22
ATOM     22  O   UNL     1      -1.806  13.486  19.376  0.00  0.00    +0.000 OA
ATOM     23  H   UNL     1      -0.993  14.034  19.493  0.00  0.00    +0.000 HD
ENDBRANCH  20  22
ENDBRANCH  19  20
ENDBRANCH   1  19
BRANCH   1  24
ATOM     24  C   UNL     1       1.168  12.058  21.012  0.00  0.00    +0.000 C 
BRANCH  24  25
ATOM     25  C   UNL     1       1.626  13.158  20.069  0.00  0.00    +0.000 A 
ATOM     26  C   UNL     1       2.217  12.801  18.846  0.00  0.00    +0.000 A 
ATOM     27  C   UNL     1       2.922  13.728  18.075  0.00  0.00    +0.000 A 
ATOM     28  C   UNL     1       3.007  15.054  18.478  0.00  0.00    +0.000 A 
ATOM     29  C   UNL     1       2.317  15.472  19.607  0.00  0.00    +0.000 A 
ATOM     30  C   UNL     1       1.606  14.527  20.376  0.00  0.00    +0.000 A 
BRANCH  30  31
ATOM     31  N   UNL     1       0.797  15.056  21.449  0.00  0.00    +0.000 N 
ATOM     32  O   UNL     1       1.342  15.190  22.555  0.00  0.00    +0.000 OA
ATOM     33  O   UNL     1      -0.375  15.345  21.182  0.00  0.00    +0.000 OA
ENDBRANCH  30  31
ENDBRANCH  24  25
ENDBRANCH   1  24
TORSDOF 9
ENDMDL
