MODEL 1
REMARK VINA RESULT:      -7.7      0.000      0.000
REMARK  Name = 
REMARK  5 active torsions:
REMARK  status: ('A' for Active; 'I' for Inactive)
REMARK    1  A    between atoms: N_1  and  C_2
REMARK    2  A    between atoms: C_6  and  C_7
REMARK    3  A    between atoms: C_11  and  O_12
REMARK    4  A    between atoms: C_17  and  C_18
REMARK    5  A    between atoms: C_22  and  O_23
REMARK                            x       y       z     vdW  Elec       q    Type
REMARK                         _______ _______ _______ _____ _____    ______ ____
ROOT
ATOM      1  C   UNL     1       0.775   8.644  20.952  0.00  0.00    +0.000 A 
ATOM      2  N   UNL     1       1.229   7.443  21.354  0.00  0.00    +0.000 NA
ATOM      3  C   UNL     1       1.969   6.701  20.507  0.00  0.00    +0.000 A 
ATOM      4  N   UNL     1       2.376   5.485  21.055  0.00  0.00    +0.000 N 
ATOM      5  C   UNL     1       2.320   7.118  19.215  0.00  0.00    +0.000 A 
ATOM      6  C   UNL     1       1.843   8.394  18.845  0.00  0.00    +0.000 A 
ATOM      7  C   UNL     1       1.051   9.197  19.693  0.00  0.00    +0.000 A 
ATOM      8  H   UNL     1       1.958   5.416  21.979  0.00  0.00    +0.000 HD
ATOM      9  H   UNL     1       2.136   4.697  20.466  0.00  0.00    +0.000 HD
ENDROOT
BRANCH   5  10
ATOM     10  C   UNL     1       3.134   6.312  18.260  0.00  0.00    +0.000 A 
ATOM     11  C   UNL     1       2.890   4.936  18.071  0.00  0.00    +0.000 A 
ATOM     12  C   UNL     1       3.648   4.182  17.174  0.00  0.00    +0.000 A 
ATOM     13  F   UNL     1       3.372   2.880  17.006  0.00  0.00    +0.000 F 
ATOM     14  C   UNL     1       4.688   4.754  16.457  0.00  0.00    +0.000 A 
ATOM     15  C   UNL     1       4.954   6.102  16.631  0.00  0.00    +0.000 A 
ATOM     16  F   UNL     1       5.963   6.686  15.970  0.00  0.00    +0.000 F 
ATOM     17  C   UNL     1       4.177   6.875  17.498  0.00  0.00    +0.000 A 
BRANCH  14  18
ATOM     18  O   UNL     1       5.440   4.008  15.594  0.00  0.00    +0.000 OA
ATOM     19  H   UNL     1       5.775   3.236  16.087  0.00  0.00    +0.000 HD
ENDBRANCH  14  18
ENDBRANCH   5  10
BRANCH   7  20
ATOM     20  C   UNL     1       0.573  10.534  19.237  0.00  0.00    +0.000 A 
ATOM     21  C   UNL     1       1.410  11.667  19.271  0.00  0.00    +0.000 A 
ATOM     22  C   UNL     1       0.951  12.919  18.853  0.00  0.00    +0.000 A 
ATOM     23  F   UNL     1       1.767  13.979  18.925  0.00  0.00    +0.000 F 
ATOM     24  C   UNL     1      -0.338  13.083  18.365  0.00  0.00    +0.000 A 
ATOM     25  C   UNL     1      -1.175  11.984  18.315  0.00  0.00    +0.000 A 
ATOM     26  F   UNL     1      -2.421  12.100  17.837  0.00  0.00    +0.000 F 
ATOM     27  C   UNL     1      -0.737  10.734  18.762  0.00  0.00    +0.000 A 
BRANCH  24  28
ATOM     28  O   UNL     1      -0.779  14.305  17.950  0.00  0.00    +0.000 OA
ATOM     29  H   UNL     1      -0.125  14.658  17.320  0.00  0.00    +0.000 HD
ENDBRANCH  24  28
ENDBRANCH   7  20
BRANCH   1  30
ATOM     30  N   UNL     1       0.020   9.300  21.924  0.00  0.00    +0.000 N 
ATOM     31  H   UNL     1       0.412   9.046  22.828  0.00  0.00    +0.000 HD
ATOM     32  H   UNL     1      -0.966   9.077  21.858  0.00  0.00    +0.000 HD
ENDBRANCH   1  30
TORSDOF 5
ENDMDL
MODEL 2
REMARK VINA RESULT:      -7.7      0.121      7.671
REMARK  Name = 
REMARK  5 active torsions:
REMARK  status: ('A' for Active; 'I' for Inactive)
REMARK    1  A    between atoms: N_1  and  C_2
REMARK    2  A    between atoms: C_6  and  C_7
REMARK    3  A    between atoms: C_11  and  O_12
REMARK    4  A    between atoms: C_17  and  C_18
REMARK    5  A    between atoms: C_22  and  O_23
REMARK                            x       y       z     vdW  Elec       q    Type
REMARK                         _______ _______ _______ _____ _____    ______ ____
ROOT
ATOM      1  C   UNL     1       2.031   6.637  20.473  0.00  0.00    +0.000 A 
ATOM      2  N   UNL     1       1.264   7.362  21.307  0.00  0.00    +0.000 NA
ATOM      3  C   UNL     1       0.816   8.568  20.908  0.00  0.00    +0.000 A 
ATOM      4  N   UNL     1       0.030   9.206  21.867  0.00  0.00    +0.000 N 
ATOM      5  C   UNL     1       1.087   9.118  19.647  0.00  0.00    +0.000 A 
ATOM      6  C   UNL     1       1.875   8.313  18.797  0.00  0.00    +0.000 A 
ATOM      7  C   UNL     1       2.380   7.051  19.179  0.00  0.00    +0.000 A 
ATOM      8  H   UNL     1       0.024   8.614  22.694  0.00  0.00    +0.000 HD
ATOM      9  H   UNL     1       0.354  10.144  22.070  0.00  0.00    +0.000 HD
ENDROOT
BRANCH   5  10
ATOM     10  C   UNL     1       0.606  10.453  19.187  0.00  0.00    +0.000 A 
ATOM     11  C   UNL     1       1.454  11.580  19.197  0.00  0.00    +0.000 A 
ATOM     12  C   UNL     1       1.005  12.828  18.763  0.00  0.00    +0.000 A 
ATOM     13  F   UNL     1       1.848  13.872  18.766  0.00  0.00    +0.000 F 
ATOM     14  C   UNL     1      -0.301  13.010  18.332  0.00  0.00    +0.000 A 
ATOM     15  C   UNL     1      -1.155  11.921  18.321  0.00  0.00    +0.000 A 
ATOM     16  F   UNL     1      -2.430  12.062  17.930  0.00  0.00    +0.000 F 
ATOM     17  C   UNL     1      -0.707  10.659  18.718  0.00  0.00    +0.000 A 
BRANCH  14  18
ATOM     18  O   UNL     1      -0.741  14.238  17.925  0.00  0.00    +0.000 OA
ATOM     19  H   UNL     1      -0.451  14.890  18.590  0.00  0.00    +0.000 HD
ENDBRANCH  14  18
ENDBRANCH   5  10
BRANCH   7  20
ATOM     20  C   UNL     1       3.213   6.253  18.234  0.00  0.00    +0.000 A 
ATOM     21  C   UNL     1       4.235   6.849  17.470  0.00  0.00    +0.000 A 
ATOM     22  C   UNL     1       5.004   6.097  16.577  0.00  0.00    +0.000 A 
ATOM     23  F   UNL     1       5.950   6.703  15.847  0.00  0.00    +0.000 F 
ATOM     24  C   UNL     1       4.803   4.731  16.434  0.00  0.00    +0.000 A 
ATOM     25  C   UNL     1       3.810   4.123  17.180  0.00  0.00    +0.000 A 
ATOM     26  F   UNL     1       3.596   2.804  17.079  0.00  0.00    +0.000 F 
ATOM     27  C   UNL     1       3.013   4.872  18.050  0.00  0.00    +0.000 A 
BRANCH  24  28
ATOM     28  O   UNL     1       5.561   3.998  15.568  0.00  0.00    +0.000 OA
ATOM     29  H   UNL     1       5.189   4.116  14.675  0.00  0.00    +0.000 HD
ENDBRANCH  24  28
ENDBRANCH   7  20
BRANCH   1  30
ATOM     30  N   UNL     1       2.429   5.415  21.015  0.00  0.00    +0.000 N 
ATOM     31  H   UNL     1       1.913   5.291  21.882  0.00  0.00    +0.000 HD
ATOM     32  H   UNL     1       3.431   5.365  21.154  0.00  0.00    +0.000 HD
ENDBRANCH   1  30
TORSDOF 5
ENDMDL
MODEL 3
REMARK VINA RESULT:      -7.7      0.115      7.536
REMARK  Name = 
REMARK  5 active torsions:
REMARK  status: ('A' for Active; 'I' for Inactive)
REMARK    1  A    between atoms: N_1  and  C_2
REMARK    2  A    between atoms: C_6  and  C_7
REMARK    3  A    between atoms: C_11  and  O_12
REMARK    4  A    between atoms: C_17  and  C_18
REMARK    5  A    between atoms: C_22  and  O_23
REMARK                            x       y       z     vdW  Elec       q    Type
REMARK                         _______ _______ _______ _____ _____    ______ ____
ROOT
ATOM      1  C   UNL     1       2.022   6.611  20.481  0.00  0.00    +0.000 A 
ATOM      2  N   UNL     1       1.261   7.333  21.323  0.00  0.00    +0.000 NA
ATOM      3  C   UNL     1       0.817   8.545  20.937  0.00  0.00    +0.000 A 
ATOM      4  N   UNL     1       0.038   9.178  21.904  0.00  0.00    +0.000 N 
ATOM      5  C   UNL     1       1.086   9.104  19.680  0.00  0.00    +0.000 A 
ATOM      6  C   UNL     1       1.867   8.303  18.819  0.00  0.00    +0.000 A 
ATOM      7  C   UNL     1       2.367   7.036  19.189  0.00  0.00    +0.000 A 
ATOM      8  H   UNL     1       0.031   8.579  22.726  0.00  0.00    +0.000 HD
ATOM      9  H   UNL     1       0.366  10.112  22.114  0.00  0.00    +0.000 HD
ENDROOT
BRANCH   5  10
ATOM     10  C   UNL     1       0.609  10.446  19.233  0.00  0.00    +0.000 A 
ATOM     11  C   UNL     1      -0.691  10.625  18.716  0.00  0.00    +0.000 A 
ATOM     12  C   UNL     1      -1.139  11.880  18.302  0.00  0.00    +0.000 A 
ATOM     13  F   UNL     1      -2.389  12.015  17.837  0.00  0.00    +0.000 F 
ATOM     14  C   UNL     1      -0.311  12.991  18.357  0.00  0.00    +0.000 A 
ATOM     15  C   UNL     1       0.973  12.840  18.853  0.00  0.00    +0.000 A 
ATOM     16  F   UNL     1       1.810  13.886  18.904  0.00  0.00    +0.000 F 
ATOM     17  C   UNL     1       1.421  11.596  19.305  0.00  0.00    +0.000 A 
BRANCH  14  18
ATOM     18  O   UNL     1      -0.747  14.214  17.934  0.00  0.00    +0.000 OA
ATOM     19  H   UNL     1      -1.418  14.524  18.570  0.00  0.00    +0.000 HD
ENDBRANCH  14  18
ENDBRANCH   5  10
BRANCH   7  20
ATOM     20  C   UNL     1       3.193   6.242  18.234  0.00  0.00    +0.000 A 
ATOM     21  C   UNL     1       4.205   6.844  17.459  0.00  0.00    +0.000 A 
ATOM     22  C   UNL     1       4.967   6.096  16.557  0.00  0.00    +0.000 A 
ATOM     23  F   UNL     1       5.902   6.706  15.817  0.00  0.00    +0.000 F 
ATOM     24  C   UNL     1       4.770   4.729  16.415  0.00  0.00    +0.000 A 
ATOM     25  C   UNL     1       3.789   4.116  17.172  0.00  0.00    +0.000 A 
ATOM     26  F   UNL     1       3.578   2.796  17.071  0.00  0.00    +0.000 F 
ATOM     27  C   UNL     1       2.998   4.860  18.051  0.00  0.00    +0.000 A 
BRANCH  24  28
ATOM     28  O   UNL     1       5.522   4.000  15.540  0.00  0.00    +0.000 OA
ATOM     29  H   UNL     1       4.987   3.237  15.254  0.00  0.00    +0.000 HD
ENDBRANCH  24  28
ENDBRANCH   7  20
BRANCH   1  30
ATOM     30  N   UNL     1       2.415   5.383  21.010  0.00  0.00    +0.000 N 
ATOM     31  H   UNL     1       3.272   5.113  20.533  0.00  0.00    +0.000 HD
ATOM     32  H   UNL     1       1.692   4.679  20.925  0.00  0.00    +0.000 HD
ENDBRANCH   1  30
TORSDOF 5
ENDMDL
MODEL 4
REMARK VINA RESULT:      -7.7      0.060      1.611
REMARK  Name = 
REMARK  5 active torsions:
REMARK  status: ('A' for Active; 'I' for Inactive)
REMARK    1  A    between atoms: N_1  and  C_2
REMARK    2  A    between atoms: C_6  and  C_7
REMARK    3  A    between atoms: C_11  and  O_12
REMARK    4  A    between atoms: C_17  and  C_18
REMARK    5  A    between atoms: C_22  and  O_23
REMARK                            x       y       z     vdW  Elec       q    Type
REMARK                         _______ _______ _______ _____ _____    ______ ____
ROOT
ATOM      1  C   UNL     1       0.789   8.583  20.966  0.00  0.00    +0.000 A 
ATOM      2  N   UNL     1       1.244   7.381  21.364  0.00  0.00    +0.000 NA
ATOM      3  C   UNL     1       1.987   6.644  20.516  0.00  0.00    +0.000 A 
ATOM      4  N   UNL     1       2.395   5.426  21.059  0.00  0.00    +0.000 N 
ATOM      5  C   UNL     1       2.340   7.066  19.226  0.00  0.00    +0.000 A 
ATOM      6  C   UNL     1       1.862   8.343  18.860  0.00  0.00    +0.000 A 
ATOM      7  C   UNL     1       1.066   9.141  19.709  0.00  0.00    +0.000 A 
ATOM      8  H   UNL     1       1.975   5.352  21.983  0.00  0.00    +0.000 HD
ATOM      9  H   UNL     1       2.158   4.640  20.467  0.00  0.00    +0.000 HD
ENDROOT
BRANCH   5  10
ATOM     10  C   UNL     1       3.158   6.265  18.269  0.00  0.00    +0.000 A 
ATOM     11  C   UNL     1       2.931   4.884  18.092  0.00  0.00    +0.000 A 
ATOM     12  C   UNL     1       3.693   4.135  17.193  0.00  0.00    +0.000 A 
ATOM     13  F   UNL     1       3.434   2.829  17.036  0.00  0.00    +0.000 F 
ATOM     14  C   UNL     1       4.719   4.717  16.464  0.00  0.00    +0.000 A 
ATOM     15  C   UNL     1       4.967   6.070  16.627  0.00  0.00    +0.000 A 
ATOM     16  F   UNL     1       5.962   6.664  15.954  0.00  0.00    +0.000 F 
ATOM     17  C   UNL     1       4.187   6.838  17.495  0.00  0.00    +0.000 A 
BRANCH  14  18
ATOM     18  O   UNL     1       5.474   3.976  15.600  0.00  0.00    +0.000 OA
ATOM     19  H   UNL     1       5.488   4.445  14.745  0.00  0.00    +0.000 HD
ENDBRANCH  14  18
ENDBRANCH   5  10
BRANCH   7  20
ATOM     20  C   UNL     1       0.587  10.479  19.257  0.00  0.00    +0.000 A 
ATOM     21  C   UNL     1      -0.727  10.671  18.788  0.00  0.00    +0.000 A 
ATOM     22  C   UNL     1      -1.165  11.925  18.355  0.00  0.00    +0.000 A 
ATOM     23  F   UNL     1      -2.414  12.065  17.891  0.00  0.00    +0.000 F 
ATOM     24  C   UNL     1      -0.327  13.031  18.398  0.00  0.00    +0.000 A 
ATOM     25  C   UNL     1       0.965  12.868  18.862  0.00  0.00    +0.000 A 
ATOM     26  F   UNL     1       1.800  13.915  18.931  0.00  0.00    +0.000 F 
ATOM     27  C   UNL     1       1.424  11.612  19.266  0.00  0.00    +0.000 A 
BRANCH  24  28
ATOM     28  O   UNL     1      -0.761  14.256  17.983  0.00  0.00    +0.000 OA
ATOM     29  H   UNL     1      -0.338  14.928  18.548  0.00  0.00    +0.000 HD
ENDBRANCH  24  28
ENDBRANCH   7  20
BRANCH   1  30
ATOM     30  N   UNL     1       0.031   9.233  21.938  0.00  0.00    +0.000 N 
ATOM     31  H   UNL     1       0.683   9.632  22.608  0.00  0.00    +0.000 HD
ATOM     32  H   UNL     1      -0.640   8.615  22.378  0.00  0.00    +0.000 HD
ENDBRANCH   1  30
TORSDOF 5
ENDMDL
MODEL 5
REMARK VINA RESULT:      -7.7      0.031      2.277
REMARK  Name = 
REMARK  5 active torsions:
REMARK  status: ('A' for Active; 'I' for Inactive)
REMARK    1  A    between atoms: N_1  and  C_2
REMARK    2  A    between atoms: C_6  and  C_7
REMARK    3  A    between atoms: C_11  and  O_12
REMARK    4  A    between atoms: C_17  and  C_18
REMARK    5  A    between atoms: C_22  and  O_23
REMARK                            x       y       z     vdW  Elec       q    Type
REMARK                         _______ _______ _______ _____ _____    ______ ____
ROOT
ATOM      1  C   UNL     1       0.771   8.635  20.964  0.00  0.00    +0.000 A 
ATOM      2  N   UNL     1       1.222   7.433  21.365  0.00  0.00    +0.000 NA
ATOM      3  C   UNL     1       1.964   6.691  20.520  0.00  0.00    +0.000 A 
ATOM      4  N   UNL     1       2.368   5.474  21.067  0.00  0.00    +0.000 N 
ATOM      5  C   UNL     1       2.321   7.110  19.230  0.00  0.00    +0.000 A 
ATOM      6  C   UNL     1       1.847   8.388  18.860  0.00  0.00    +0.000 A 
ATOM      7  C   UNL     1       1.052   9.190  19.707  0.00  0.00    +0.000 A 
ATOM      8  H   UNL     1       1.946   5.403  21.989  0.00  0.00    +0.000 HD
ATOM      9  H   UNL     1       2.130   4.687  20.475  0.00  0.00    +0.000 HD
ENDROOT
BRANCH   5  10
ATOM     10  C   UNL     1       3.137   6.305  18.276  0.00  0.00    +0.000 A 
ATOM     11  C   UNL     1       4.167   6.896  17.515  0.00  0.00    +0.000 A 
ATOM     12  C   UNL     1       4.934   6.141  16.625  0.00  0.00    +0.000 A 
ATOM     13  F   UNL     1       5.919   6.734  15.935  0.00  0.00    +0.000 F 
ATOM     14  C   UNL     1       4.691   4.789  16.437  0.00  0.00    +0.000 A 
ATOM     15  C   UNL     1       3.680   4.187  17.167  0.00  0.00    +0.000 A 
ATOM     16  F   UNL     1       3.403   2.887  16.999  0.00  0.00    +0.000 F 
ATOM     17  C   UNL     1       2.930   4.924  18.087  0.00  0.00    +0.000 A 
BRANCH  14  18
ATOM     18  O   UNL     1       5.432   4.059  15.552  0.00  0.00    +0.000 OA
ATOM     19  H   UNL     1       6.373   4.230  15.744  0.00  0.00    +0.000 HD
ENDBRANCH  14  18
ENDBRANCH   5  10
BRANCH   7  20
ATOM     20  C   UNL     1       0.577  10.528  19.251  0.00  0.00    +0.000 A 
ATOM     21  C   UNL     1      -0.729  10.718  18.758  0.00  0.00    +0.000 A 
ATOM     22  C   UNL     1      -1.163  11.973  18.322  0.00  0.00    +0.000 A 
ATOM     23  F   UNL     1      -2.403  12.110  17.834  0.00  0.00    +0.000 F 
ATOM     24  C   UNL     1      -0.329  13.081  18.385  0.00  0.00    +0.000 A 
ATOM     25  C   UNL     1       0.955  12.920  18.873  0.00  0.00    +0.000 A 
ATOM     26  F   UNL     1       1.784  13.969  18.962  0.00  0.00    +0.000 F 
ATOM     27  C   UNL     1       1.410  11.663  19.280  0.00  0.00    +0.000 A 
BRANCH  24  28
ATOM     28  O   UNL     1      -0.759  14.306  17.967  0.00  0.00    +0.000 OA
ATOM     29  H   UNL     1      -0.027  14.936  18.094  0.00  0.00    +0.000 HD
ENDBRANCH  24  28
ENDBRANCH   7  20
BRANCH   1  30
ATOM     30  N   UNL     1       0.013   9.289  21.934  0.00  0.00    +0.000 N 
ATOM     31  H   UNL     1       0.444  10.198  22.086  0.00  0.00    +0.000 HD
ATOM     32  H   UNL     1      -0.061   8.752  22.789  0.00  0.00    +0.000 HD
ENDBRANCH   1  30
TORSDOF 5
ENDMDL
MODEL 6
REMARK VINA RESULT:      -7.7      0.099      7.789
REMARK  Name = 
REMARK  5 active torsions:
REMARK  status: ('A' for Active; 'I' for Inactive)
REMARK    1  A    between atoms: N_1  and  C_2
REMARK    2  A    between atoms: C_6  and  C_7
REMARK    3  A    between atoms: C_11  and  O_12
REMARK    4  A    between atoms: C_17  and  C_18
REMARK    5  A    between atoms: C_22  and  O_23
REMARK                            x       y       z     vdW  Elec       q    Type
REMARK                         _______ _______ _______ _____ _____    ______ ____
ROOT
ATOM      1  C   UNL     1       2.022   6.647  20.478  0.00  0.00    +0.000 A 
ATOM      2  N   UNL     1       1.260   7.372  21.317  0.00  0.00    +0.000 NA
ATOM      3  C   UNL     1       0.813   8.580  20.922  0.00  0.00    +0.000 A 
ATOM      4  N   UNL     1       0.034   9.218  21.886  0.00  0.00    +0.000 N 
ATOM      5  C   UNL     1       1.079   9.132  19.661  0.00  0.00    +0.000 A 
ATOM      6  C   UNL     1       1.861   8.325  18.805  0.00  0.00    +0.000 A 
ATOM      7  C   UNL     1       2.365   7.062  19.183  0.00  0.00    +0.000 A 
ATOM      8  H   UNL     1       0.030   8.626  22.712  0.00  0.00    +0.000 HD
ATOM      9  H   UNL     1       0.360  10.155  22.088  0.00  0.00    +0.000 HD
ENDROOT
BRANCH   5  10
ATOM     10  C   UNL     1       0.598  10.468  19.205  0.00  0.00    +0.000 A 
ATOM     11  C   UNL     1       1.437  11.601  19.250  0.00  0.00    +0.000 A 
ATOM     12  C   UNL     1       0.988  12.851  18.819  0.00  0.00    +0.000 A 
ATOM     13  F   UNL     1       1.822  13.901  18.856  0.00  0.00    +0.000 F 
ATOM     14  C   UNL     1      -0.307  13.028  18.358  0.00  0.00    +0.000 A 
ATOM     15  C   UNL     1      -1.153  11.933  18.312  0.00  0.00    +0.000 A 
ATOM     16  F   UNL     1      -2.418  12.068  17.891  0.00  0.00    +0.000 F 
ATOM     17  C   UNL     1      -0.704  10.669  18.705  0.00  0.00    +0.000 A 
BRANCH  14  18
ATOM     18  O   UNL     1      -0.747  14.257  17.955  0.00  0.00    +0.000 OA
ATOM     19  H   UNL     1      -1.018  14.749  18.753  0.00  0.00    +0.000 HD
ENDBRANCH  14  18
ENDBRANCH   5  10
BRANCH   7  20
ATOM     20  C   UNL     1       3.191   6.264  18.233  0.00  0.00    +0.000 A 
ATOM     21  C   UNL     1       2.994   4.879  18.069  0.00  0.00    +0.000 A 
ATOM     22  C   UNL     1       3.780   4.135  17.185  0.00  0.00    +0.000 A 
ATOM     23  F   UNL     1       3.582   2.815  17.074  0.00  0.00    +0.000 F 
ATOM     24  C   UNL     1       4.766   4.742  16.419  0.00  0.00    +0.000 A 
ATOM     25  C   UNL     1       4.972   6.102  16.557  0.00  0.00    +0.000 A 
ATOM     26  F   UNL     1       5.905   6.726  15.824  0.00  0.00    +0.000 F 
ATOM     27  C   UNL     1       4.215   6.849  17.463  0.00  0.00    +0.000 A 
BRANCH  24  28
ATOM     28  O   UNL     1       5.526   4.014  15.550  0.00  0.00    +0.000 OA
ATOM     29  H   UNL     1       5.427   3.074  15.786  0.00  0.00    +0.000 HD
ENDBRANCH  24  28
ENDBRANCH   7  20
BRANCH   1  30
ATOM     30  N   UNL     1       2.419   5.423  21.016  0.00  0.00    +0.000 N 
ATOM     31  H   UNL     1       2.149   5.426  21.996  0.00  0.00    +0.000 HD
ATOM     32  H   UNL     1       3.410   5.253  20.892  0.00  0.00    +0.000 HD
ENDBRANCH   1  30
TORSDOF 5
ENDMDL
MODEL 7
REMARK VINA RESULT:      -7.6      0.054      1.611
REMARK  Name = 
REMARK  5 active torsions:
REMARK  status: ('A' for Active; 'I' for Inactive)
REMARK    1  A    between atoms: N_1  and  C_2
REMARK    2  A    between atoms: C_6  and  C_7
REMARK    3  A    between atoms: C_11  and  O_12
REMARK    4  A    between atoms: C_17  and  C_18
REMARK    5  A    between atoms: C_22  and  O_23
REMARK                            x       y       z     vdW  Elec       q    Type
REMARK                         _______ _______ _______ _____ _____    ______ ____
ROOT
ATOM      1  C   UNL     1       0.783   8.587  20.960  0.00  0.00    +0.000 A 
ATOM      2  N   UNL     1       1.236   7.385  21.358  0.00  0.00    +0.000 NA
ATOM      3  C   UNL     1       1.979   6.647  20.511  0.00  0.00    +0.000 A 
ATOM      4  N   UNL     1       2.384   5.429  21.055  0.00  0.00    +0.000 N 
ATOM      5  C   UNL     1       2.335   7.069  19.222  0.00  0.00    +0.000 A 
ATOM      6  C   UNL     1       1.860   8.347  18.856  0.00  0.00    +0.000 A 
ATOM      7  C   UNL     1       1.064   9.146  19.704  0.00  0.00    +0.000 A 
ATOM      8  H   UNL     1       1.963   5.355  21.977  0.00  0.00    +0.000 HD
ATOM      9  H   UNL     1       2.147   4.643  20.461  0.00  0.00    +0.000 HD
ENDROOT
BRANCH   5  10
ATOM     10  C   UNL     1       3.153   6.267  18.266  0.00  0.00    +0.000 A 
ATOM     11  C   UNL     1       4.204   6.855  17.531  0.00  0.00    +0.000 A 
ATOM     12  C   UNL     1       4.972   6.104  16.639  0.00  0.00    +0.000 A 
ATOM     13  F   UNL     1       5.976   6.693  15.974  0.00  0.00    +0.000 F 
ATOM     14  C   UNL     1       4.711   4.759  16.425  0.00  0.00    +0.000 A 
ATOM     15  C   UNL     1       3.679   4.161  17.129  0.00  0.00    +0.000 A 
ATOM     16  F   UNL     1       3.384   2.868  16.935  0.00  0.00    +0.000 F 
ATOM     17  C   UNL     1       2.928   4.893  18.051  0.00  0.00    +0.000 A 
BRANCH  14  18
ATOM     18  O   UNL     1       5.453   4.033  15.538  0.00  0.00    +0.000 OA
ATOM     19  H   UNL     1       6.338   3.908  15.928  0.00  0.00    +0.000 HD
ENDBRANCH  14  18
ENDBRANCH   5  10
BRANCH   7  20
ATOM     20  C   UNL     1       0.587  10.485  19.252  0.00  0.00    +0.000 A 
ATOM     21  C   UNL     1       1.430  11.614  19.277  0.00  0.00    +0.000 A 
ATOM     22  C   UNL     1       0.973  12.867  18.862  0.00  0.00    +0.000 A 
ATOM     23  F   UNL     1       1.794  13.924  18.924  0.00  0.00    +0.000 F 
ATOM     24  C   UNL     1      -0.321  13.037  18.388  0.00  0.00    +0.000 A 
ATOM     25  C   UNL     1      -1.163  11.942  18.347  0.00  0.00    +0.000 A 
ATOM     26  F   UNL     1      -2.414  12.064  17.882  0.00  0.00    +0.000 F 
ATOM     27  C   UNL     1      -0.727  10.691  18.790  0.00  0.00    +0.000 A 
BRANCH  24  28
ATOM     28  O   UNL     1      -0.761  14.261  17.976  0.00  0.00    +0.000 OA
ATOM     29  H   UNL     1      -0.514  14.365  17.039  0.00  0.00    +0.000 HD
ENDBRANCH  24  28
ENDBRANCH   7  20
BRANCH   1  30
ATOM     30  N   UNL     1       0.024   9.238  21.931  0.00  0.00    +0.000 N 
ATOM     31  H   UNL     1      -0.788   9.632  21.462  0.00  0.00    +0.000 HD
ATOM     32  H   UNL     1       0.558   9.942  22.428  0.00  0.00    +0.000 HD
ENDBRANCH   1  30
TORSDOF 5
ENDMDL
MODEL 8
REMARK VINA RESULT:      -7.6      0.212      7.658
REMARK  Name = 
REMARK  5 active torsions:
REMARK  status: ('A' for Active; 'I' for Inactive)
REMARK    1  A    between atoms: N_1  and  C_2
REMARK    2  A    between atoms: C_6  and  C_7
REMARK    3  A    between atoms: C_11  and  O_12
REMARK    4  A    between atoms: C_17  and  C_18
REMARK    5  A    between atoms: C_22  and  O_23
REMARK                            x       y       z     vdW  Elec       q    Type
REMARK                         _______ _______ _______ _____ _____    ______ ____
ROOT
ATOM      1  C   UNL     1       2.024   6.533  20.443  0.00  0.00    +0.000 A 
ATOM      2  N   UNL     1       1.247   7.251  21.273  0.00  0.00    +0.000 NA
ATOM      3  C   UNL     1       0.795   8.456  20.875  0.00  0.00    +0.000 A 
ATOM      4  N   UNL     1      -0.001   9.086  21.830  0.00  0.00    +0.000 N 
ATOM      5  C   UNL     1       1.073   9.012  19.618  0.00  0.00    +0.000 A 
ATOM      6  C   UNL     1       1.872   8.214  18.771  0.00  0.00    +0.000 A 
ATOM      7  C   UNL     1       2.380   6.954  19.153  0.00  0.00    +0.000 A 
ATOM      8  H   UNL     1      -0.010   8.492  22.656  0.00  0.00    +0.000 HD
ATOM      9  H   UNL     1       0.316  10.025  22.039  0.00  0.00    +0.000 HD
ENDROOT
BRANCH   5  10
ATOM     10  C   UNL     1       0.588  10.346  19.159  0.00  0.00    +0.000 A 
ATOM     11  C   UNL     1      -0.711  10.511  18.636  0.00  0.00    +0.000 A 
ATOM     12  C   UNL     1      -1.167  11.760  18.210  0.00  0.00    +0.000 A 
ATOM     13  F   UNL     1      -2.417  11.882  17.739  0.00  0.00    +0.000 F 
ATOM     14  C   UNL     1      -0.348  12.877  18.260  0.00  0.00    +0.000 A 
ATOM     15  C   UNL     1       0.936  12.740  18.762  0.00  0.00    +0.000 A 
ATOM     16  F   UNL     1       1.764  13.792  18.808  0.00  0.00    +0.000 F 
ATOM     17  C   UNL     1       1.390  11.503  19.225  0.00  0.00    +0.000 A 
BRANCH  14  18
ATOM     18  O   UNL     1      -0.792  14.093  17.825  0.00  0.00    +0.000 OA
ATOM     19  H   UNL     1      -1.536  14.357  18.397  0.00  0.00    +0.000 HD
ENDBRANCH  14  18
ENDBRANCH   5  10
BRANCH   7  20
ATOM     20  C   UNL     1       3.224   6.164  18.211  0.00  0.00    +0.000 A 
ATOM     21  C   UNL     1       3.045   4.776  18.048  0.00  0.00    +0.000 A 
ATOM     22  C   UNL     1       3.848   4.040  17.172  0.00  0.00    +0.000 A 
ATOM     23  F   UNL     1       3.666   2.717  17.062  0.00  0.00    +0.000 F 
ATOM     24  C   UNL     1       4.833   4.657  16.414  0.00  0.00    +0.000 A 
ATOM     25  C   UNL     1       5.022   6.020  16.552  0.00  0.00    +0.000 A 
ATOM     26  F   UNL     1       5.954   6.653  15.827  0.00  0.00    +0.000 F 
ATOM     27  C   UNL     1       4.248   6.760  17.449  0.00  0.00    +0.000 A 
BRANCH  24  28
ATOM     28  O   UNL     1       5.609   3.937  15.553  0.00  0.00    +0.000 OA
ATOM     29  H   UNL     1       5.953   4.552  14.880  0.00  0.00    +0.000 HD
ENDBRANCH  24  28
ENDBRANCH   7  20
BRANCH   1  30
ATOM     30  N   UNL     1       2.424   5.311  20.983  0.00  0.00    +0.000 N 
ATOM     31  H   UNL     1       2.999   5.518  21.796  0.00  0.00    +0.000 HD
ATOM     32  H   UNL     1       2.910   4.733  20.307  0.00  0.00    +0.000 HD
ENDBRANCH   1  30
TORSDOF 5
ENDMDL
MODEL 9
REMARK VINA RESULT:      -7.5      3.268      8.512
REMARK  Name = 
REMARK  5 active torsions:
REMARK  status: ('A' for Active; 'I' for Inactive)
REMARK    1  A    between atoms: N_1  and  C_2
REMARK    2  A    between atoms: C_6  and  C_7
REMARK    3  A    between atoms: C_11  and  O_12
REMARK    4  A    between atoms: C_17  and  C_18
REMARK    5  A    between atoms: C_22  and  O_23
REMARK                            x       y       z     vdW  Elec       q    Type
REMARK                         _______ _______ _______ _____ _____    ______ ____
ROOT
ATOM      1  C   UNL     1       3.006   7.794  17.603  0.00  0.00    +0.000 A 
ATOM      2  N   UNL     1       2.499   9.018  17.372  0.00  0.00    +0.000 NA
ATOM      3  C   UNL     1       1.721   9.596  18.307  0.00  0.00    +0.000 A 
ATOM      4  N   UNL     1       1.269  10.862  17.938  0.00  0.00    +0.000 N 
ATOM      5  C   UNL     1       1.417   9.000  19.540  0.00  0.00    +0.000 A 
ATOM      6  C   UNL     1       1.990   7.728  19.750  0.00  0.00    +0.000 A 
ATOM      7  C   UNL     1       2.796   7.078  18.791  0.00  0.00    +0.000 A 
ATOM      8  H   UNL     1       1.598  11.037  16.992  0.00  0.00    +0.000 HD
ATOM      9  H   UNL     1       0.263  10.951  18.016  0.00  0.00    +0.000 HD
ENDROOT
BRANCH   5  10
ATOM     10  C   UNL     1       0.554   9.621  20.588  0.00  0.00    +0.000 A 
ATOM     11  C   UNL     1      -0.349  10.656  20.272  0.00  0.00    +0.000 A 
ATOM     12  C   UNL     1      -1.159  11.234  21.252  0.00  0.00    +0.000 A 
ATOM     13  F   UNL     1      -2.022  12.201  20.909  0.00  0.00    +0.000 F 
ATOM     14  C   UNL     1      -1.083  10.828  22.575  0.00  0.00    +0.000 A 
ATOM     15  C   UNL     1      -0.198   9.818  22.912  0.00  0.00    +0.000 A 
ATOM     16  F   UNL     1      -0.082   9.412  24.184  0.00  0.00    +0.000 F 
ATOM     17  C   UNL     1       0.591   9.207  21.934  0.00  0.00    +0.000 A 
BRANCH  14  18
ATOM     18  O   UNL     1      -1.864  11.409  23.533  0.00  0.00    +0.000 OA
ATOM     19  H   UNL     1      -1.742  10.904  24.359  0.00  0.00    +0.000 HD
ENDBRANCH  14  18
ENDBRANCH   5  10
BRANCH   7  20
ATOM     20  C   UNL     1       3.366   5.729  19.074  0.00  0.00    +0.000 A 
ATOM     21  C   UNL     1       2.591   4.710  19.662  0.00  0.00    +0.000 A 
ATOM     22  C   UNL     1       3.135   3.452  19.934  0.00  0.00    +0.000 A 
ATOM     23  F   UNL     1       2.375   2.516  20.518  0.00  0.00    +0.000 F 
ATOM     24  C   UNL     1       4.452   3.156  19.611  0.00  0.00    +0.000 A 
ATOM     25  C   UNL     1       5.230   4.138  19.025  0.00  0.00    +0.000 A 
ATOM     26  F   UNL     1       6.502   3.885  18.686  0.00  0.00    +0.000 F 
ATOM     27  C   UNL     1       4.706   5.410  18.779  0.00  0.00    +0.000 A 
BRANCH  24  28
ATOM     28  O   UNL     1       4.978   1.924  19.870  0.00  0.00    +0.000 OA
ATOM     29  H   UNL     1       5.840   1.868  19.419  0.00  0.00    +0.000 HD
ENDBRANCH  24  28
ENDBRANCH   7  20
BRANCH   1  30
ATOM     30  N   UNL     1       3.786   7.314  16.552  0.00  0.00    +0.000 N 
ATOM     31  H   UNL     1       3.152   6.890  15.879  0.00  0.00    +0.000 HD
ATOM     32  H   UNL     1       4.499   6.666  16.867  0.00  0.00    +0.000 HD
ENDBRANCH   1  30
TORSDOF 5
ENDMDL
