MODEL 1
REMARK VINA RESULT:      -8.7      0.000      0.000
REMARK  Name = 
REMARK  9 active torsions:
REMARK  status: ('A' for Active; 'I' for Inactive)
REMARK    1  A    between atoms: C_1  and  O_2
REMARK    2  A    between atoms: O_2  and  C_3
REMARK    3  A    between atoms: C_8  and  C_9
REMARK    4  A    between atoms: C_9  and  N_10
REMARK    5  A    between atoms: C_11  and  C_13
REMARK    6  A    between atoms: C_17  and  N_18
REMARK    7  A    between atoms: N_18  and  C_19
REMARK    8  A    between atoms: C_19  and  C_20
REMARK    9  A    between atoms: C_23  and  C_24
REMARK                            x       y       z     vdW  Elec       q    Type
REMARK                         _______ _______ _______ _____ _____    ______ ____
ROOT
ATOM      1  C   UNL     1       3.231   4.884  19.031  0.00  0.00    +0.000 A 
ATOM      2  C   UNL     1       2.557   4.092  18.095  0.00  0.00    +0.000 A 
ATOM      3  C   UNL     1       3.275   3.427  17.108  0.00  0.00    +0.000 A 
ATOM      4  C   UNL     1       4.658   3.578  17.035  0.00  0.00    +0.000 A 
ATOM      5  C   UNL     1       5.354   4.431  17.909  0.00  0.00    +0.000 A 
ATOM      6  C   UNL     1       4.628   5.057  18.928  0.00  0.00    +0.000 A 
ENDROOT
BRANCH   1   8
ATOM      7  N   UNL     1       2.485   6.954  20.096  0.00  0.00    +0.000 N 
ATOM      8  C   UNL     1       2.481   5.572  20.123  0.00  0.00    +0.000 C 
ATOM      9  O   UNL     1       1.890   4.908  20.969  0.00  0.00    +0.000 OA
ATOM     10  H   UNL     1       2.738   7.431  19.241  0.00  0.00    +0.000 HD
BRANCH   7  11
ATOM     11  C   UNL     1       1.704   7.737  21.030  0.00  0.00    +0.000 C 
BRANCH  11  17
ATOM     12  C   UNL     1       0.816  10.142  21.248  0.00  0.00    +0.000 A 
ATOM     13  C   UNL     1       0.487  11.361  20.638  0.00  0.00    +0.000 A 
ATOM     14  C   UNL     1       0.521  11.497  19.252  0.00  0.00    +0.000 A 
ATOM     15  C   UNL     1       0.890  10.421  18.459  0.00  0.00    +0.000 A 
ATOM     16  C   UNL     1       1.250   9.213  19.055  0.00  0.00    +0.000 A 
ATOM     17  C   UNL     1       1.234   9.055  20.454  0.00  0.00    +0.000 A 
BRANCH  12  19
ATOM     18  C   UNL     1      -0.502   9.723  23.162  0.00  0.00    +0.000 C 
ATOM     19  O   UNL     1       0.794   9.955  22.609  0.00  0.00    +0.000 OA
ENDBRANCH  12  19
ENDBRANCH  11  17
ENDBRANCH   7  11
ENDBRANCH   1   8
BRANCH   5  20
ATOM     20  N   UNL     1       6.755   4.492  17.770  0.00  0.00    +0.000 N 
ATOM     21  H   UNL     1       6.978   4.782  16.817  0.00  0.00    +0.000 HD
BRANCH  20  22
ATOM     22  C   UNL     1       7.521   5.309  18.720  0.00  0.00    +0.000 C 
BRANCH  22  23
ATOM     23  C   UNL     1       7.670   6.724  18.250  0.00  0.00    +0.000 A 
ATOM     24  N   UNL     1       7.368   7.221  17.070  0.00  0.00    +0.000 NA
ATOM     25  N   UNL     1       7.785   8.532  17.042  0.00  0.00    +0.000 NA
ATOM     26  C   UNL     1       8.325   8.829  18.210  0.00  0.00    +0.000 A 
ATOM     27  N   UNL     1       8.264   7.705  18.998  0.00  0.00    +0.000 N 
ATOM     28  H   UNL     1       8.661   7.588  19.919  0.00  0.00    +0.000 HD
BRANCH  26  29
ATOM     29  C   UNL     1       8.928  10.102  18.598  0.00  0.00    +0.000 A 
ATOM     30  C   UNL     1       8.938  11.208  17.743  0.00  0.00    +0.000 A 
ATOM     31  C   UNL     1       9.536  12.381  18.182  0.00  0.00    +0.000 A 
ATOM     32  N   UNL     1      10.105  12.523  19.396  0.00  0.00    +0.000 NA
ATOM     33  C   UNL     1      10.096  11.443  20.204  0.00  0.00    +0.000 A 
ATOM     34  C   UNL     1       9.531  10.228  19.852  0.00  0.00    +0.000 A 
ENDBRANCH  26  29
ENDBRANCH  22  23
ENDBRANCH  20  22
ENDBRANCH   5  20
TORSDOF 8
ENDMDL
MODEL 2
REMARK VINA RESULT:      -8.5      1.619      2.364
REMARK  Name = 
REMARK  9 active torsions:
REMARK  status: ('A' for Active; 'I' for Inactive)
REMARK    1  A    between atoms: C_1  and  O_2
REMARK    2  A    between atoms: O_2  and  C_3
REMARK    3  A    between atoms: C_8  and  C_9
REMARK    4  A    between atoms: C_9  and  N_10
REMARK    5  A    between atoms: C_11  and  C_13
REMARK    6  A    between atoms: C_17  and  N_18
REMARK    7  A    between atoms: N_18  and  C_19
REMARK    8  A    between atoms: C_19  and  C_20
REMARK    9  A    between atoms: C_23  and  C_24
REMARK                            x       y       z     vdW  Elec       q    Type
REMARK                         _______ _______ _______ _____ _____    ______ ____
ROOT
ATOM      1  C   UNL     1       3.170   6.686  18.653  0.00  0.00    +0.000 A 
ATOM      2  C   UNL     1       2.662   5.691  19.494  0.00  0.00    +0.000 A 
ATOM      3  C   UNL     1       3.419   4.553  19.753  0.00  0.00    +0.000 A 
ATOM      4  C   UNL     1       4.664   4.396  19.147  0.00  0.00    +0.000 A 
ATOM      5  C   UNL     1       5.164   5.339  18.233  0.00  0.00    +0.000 A 
ATOM      6  C   UNL     1       4.416   6.502  18.018  0.00  0.00    +0.000 A 
ENDROOT
BRANCH   1   8
ATOM      7  N   UNL     1       1.607   8.393  19.441  0.00  0.00    +0.000 N 
ATOM      8  C   UNL     1       2.389   7.934  18.398  0.00  0.00    +0.000 C 
ATOM      9  O   UNL     1       2.479   8.499  17.313  0.00  0.00    +0.000 OA
ATOM     10  H   UNL     1       1.788   8.060  20.378  0.00  0.00    +0.000 HD
BRANCH   7  11
ATOM     11  C   UNL     1       0.892   9.649  19.361  0.00  0.00    +0.000 C 
BRANCH  11  17
ATOM     12  C   UNL     1      -0.194  11.370  20.936  0.00  0.00    +0.000 A 
ATOM     13  C   UNL     1      -0.842  11.648  22.148  0.00  0.00    +0.000 A 
ATOM     14  C   UNL     1      -0.990  10.662  23.121  0.00  0.00    +0.000 A 
ATOM     15  C   UNL     1      -0.498   9.385  22.894  0.00  0.00    +0.000 A 
ATOM     16  C   UNL     1       0.121   9.088  21.680  0.00  0.00    +0.000 A 
ATOM     17  C   UNL     1       0.272  10.065  20.678  0.00  0.00    +0.000 A 
BRANCH  12  19
ATOM     18  C   UNL     1      -1.221  12.737  19.308  0.00  0.00    +0.000 C 
ATOM     19  O   UNL     1      -0.019  12.307  19.948  0.00  0.00    +0.000 OA
ENDBRANCH  12  19
ENDBRANCH  11  17
ENDBRANCH   7  11
ENDBRANCH   1   8
BRANCH   5  20
ATOM     20  N   UNL     1       6.446   5.100  17.698  0.00  0.00    +0.000 N 
ATOM     21  H   UNL     1       6.464   5.430  16.732  0.00  0.00    +0.000 HD
BRANCH  20  22
ATOM     22  C   UNL     1       7.616   5.624  18.414  0.00  0.00    +0.000 C 
BRANCH  22  23
ATOM     23  C   UNL     1       7.808   7.091  18.176  0.00  0.00    +0.000 A 
ATOM     24  N   UNL     1       7.394   7.806  17.153  0.00  0.00    +0.000 NA
ATOM     25  N   UNL     1       7.901   9.077  17.291  0.00  0.00    +0.000 NA
ATOM     26  C   UNL     1       8.610   9.132  18.403  0.00  0.00    +0.000 A 
ATOM     27  N   UNL     1       8.568   7.890  18.989  0.00  0.00    +0.000 N 
ATOM     28  H   UNL     1       9.071   7.589  19.810  0.00  0.00    +0.000 HD
BRANCH  26  29
ATOM     29  C   UNL     1       9.353  10.282  18.913  0.00  0.00    +0.000 A 
ATOM     30  C   UNL     1      10.129  11.092  18.079  0.00  0.00    +0.000 A 
ATOM     31  C   UNL     1      10.810  12.163  18.640  0.00  0.00    +0.000 A 
ATOM     32  N   UNL     1      10.763  12.478  19.951  0.00  0.00    +0.000 NA
ATOM     33  C   UNL     1      10.018  11.679  20.743  0.00  0.00    +0.000 A 
ATOM     34  C   UNL     1       9.310  10.584  20.278  0.00  0.00    +0.000 A 
ENDBRANCH  26  29
ENDBRANCH  22  23
ENDBRANCH  20  22
ENDBRANCH   5  20
TORSDOF 8
ENDMDL
MODEL 3
REMARK VINA RESULT:      -8.5      1.006      1.186
REMARK  Name = 
REMARK  9 active torsions:
REMARK  status: ('A' for Active; 'I' for Inactive)
REMARK    1  A    between atoms: C_1  and  O_2
REMARK    2  A    between atoms: O_2  and  C_3
REMARK    3  A    between atoms: C_8  and  C_9
REMARK    4  A    between atoms: C_9  and  N_10
REMARK    5  A    between atoms: C_11  and  C_13
REMARK    6  A    between atoms: C_17  and  N_18
REMARK    7  A    between atoms: N_18  and  C_19
REMARK    8  A    between atoms: C_19  and  C_20
REMARK    9  A    between atoms: C_23  and  C_24
REMARK                            x       y       z     vdW  Elec       q    Type
REMARK                         _______ _______ _______ _____ _____    ______ ____
ROOT
ATOM      1  C   UNL     1       2.851   5.081  18.948  0.00  0.00    +0.000 A 
ATOM      2  C   UNL     1       2.827   3.688  18.816  0.00  0.00    +0.000 A 
ATOM      3  C   UNL     1       3.579   3.076  17.820  0.00  0.00    +0.000 A 
ATOM      4  C   UNL     1       4.327   3.854  16.938  0.00  0.00    +0.000 A 
ATOM      5  C   UNL     1       4.306   5.257  16.992  0.00  0.00    +0.000 A 
ATOM      6  C   UNL     1       3.584   5.861  18.029  0.00  0.00    +0.000 A 
ENDROOT
BRANCH   1   8
ATOM      7  N   UNL     1       2.144   7.133  20.072  0.00  0.00    +0.000 N 
ATOM      8  C   UNL     1       2.083   5.753  20.038  0.00  0.00    +0.000 C 
ATOM      9  O   UNL     1       1.432   5.079  20.830  0.00  0.00    +0.000 OA
ATOM     10  H   UNL     1       2.450   7.635  19.249  0.00  0.00    +0.000 HD
BRANCH   7  11
ATOM     11  C   UNL     1       1.356   7.908  21.007  0.00  0.00    +0.000 C 
BRANCH  11  17
ATOM     12  C   UNL     1       0.710  10.372  21.372  0.00  0.00    +0.000 A 
ATOM     13  C   UNL     1       0.540  11.660  20.845  0.00  0.00    +0.000 A 
ATOM     14  C   UNL     1       0.661  11.893  19.477  0.00  0.00    +0.000 A 
ATOM     15  C   UNL     1       0.959  10.844  18.619  0.00  0.00    +0.000 A 
ATOM     16  C   UNL     1       1.160   9.564  19.135  0.00  0.00    +0.000 A 
ATOM     17  C   UNL     1       1.055   9.307  20.515  0.00  0.00    +0.000 A 
BRANCH  12  19
ATOM     18  C   UNL     1      -0.741  10.053  23.207  0.00  0.00    +0.000 C 
ATOM     19  O   UNL     1       0.597  10.089  22.712  0.00  0.00    +0.000 OA
ENDBRANCH  12  19
ENDBRANCH  11  17
ENDBRANCH   7  11
ENDBRANCH   1   8
BRANCH   5  20
ATOM     20  N   UNL     1       5.119   5.950  16.073  0.00  0.00    +0.000 N 
ATOM     21  H   UNL     1       4.976   6.953  16.200  0.00  0.00    +0.000 HD
BRANCH  20  22
ATOM     22  C   UNL     1       6.558   5.661  16.051  0.00  0.00    +0.000 C 
BRANCH  22  23
ATOM     23  C   UNL     1       7.308   6.470  17.065  0.00  0.00    +0.000 A 
ATOM     24  N   UNL     1       7.731   6.091  18.251  0.00  0.00    +0.000 NA
ATOM     25  N   UNL     1       8.258   7.192  18.886  0.00  0.00    +0.000 NA
ATOM     26  C   UNL     1       8.166   8.231  18.077  0.00  0.00    +0.000 A 
ATOM     27  N   UNL     1       7.572   7.806  16.914  0.00  0.00    +0.000 N 
ATOM     28  H   UNL     1       7.294   8.378  16.130  0.00  0.00    +0.000 HD
BRANCH  26  29
ATOM     29  C   UNL     1       8.573   9.604  18.366  0.00  0.00    +0.000 A 
ATOM     30  C   UNL     1       8.260  10.665  17.510  0.00  0.00    +0.000 A 
ATOM     31  C   UNL     1       8.687  11.941  17.850  0.00  0.00    +0.000 A 
ATOM     32  N   UNL     1       9.385  12.225  18.969  0.00  0.00    +0.000 NA
ATOM     33  C   UNL     1       9.687  11.188  19.777  0.00  0.00    +0.000 A 
ATOM     34  C   UNL     1       9.312   9.880  19.519  0.00  0.00    +0.000 A 
ENDBRANCH  26  29
ENDBRANCH  22  23
ENDBRANCH  20  22
ENDBRANCH   5  20
TORSDOF 8
ENDMDL
MODEL 4
REMARK VINA RESULT:      -8.3      1.135      1.543
REMARK  Name = 
REMARK  9 active torsions:
REMARK  status: ('A' for Active; 'I' for Inactive)
REMARK    1  A    between atoms: C_1  and  O_2
REMARK    2  A    between atoms: O_2  and  C_3
REMARK    3  A    between atoms: C_8  and  C_9
REMARK    4  A    between atoms: C_9  and  N_10
REMARK    5  A    between atoms: C_11  and  C_13
REMARK    6  A    between atoms: C_17  and  N_18
REMARK    7  A    between atoms: N_18  and  C_19
REMARK    8  A    between atoms: C_19  and  C_20
REMARK    9  A    between atoms: C_23  and  C_24
REMARK                            x       y       z     vdW  Elec       q    Type
REMARK                         _______ _______ _______ _____ _____    ______ ____
ROOT
ATOM      1  C   UNL     1       2.869   4.999  18.727  0.00  0.00    +0.000 A 
ATOM      2  C   UNL     1       2.789   3.609  18.591  0.00  0.00    +0.000 A 
ATOM      3  C   UNL     1       3.542   2.966  17.616  0.00  0.00    +0.000 A 
ATOM      4  C   UNL     1       4.347   3.712  16.758  0.00  0.00    +0.000 A 
ATOM      5  C   UNL     1       4.385   5.116  16.815  0.00  0.00    +0.000 A 
ATOM      6  C   UNL     1       3.661   5.748  17.832  0.00  0.00    +0.000 A 
ENDROOT
BRANCH   1   8
ATOM      7  N   UNL     1       2.450   7.015  20.044  0.00  0.00    +0.000 N 
ATOM      8  C   UNL     1       2.099   5.701  19.797  0.00  0.00    +0.000 C 
ATOM      9  O   UNL     1       1.199   5.113  20.388  0.00  0.00    +0.000 OA
ATOM     10  H   UNL     1       2.986   7.523  19.353  0.00  0.00    +0.000 HD
BRANCH   7  11
ATOM     11  C   UNL     1       1.708   7.839  20.975  0.00  0.00    +0.000 C 
BRANCH  11  17
ATOM     12  C   UNL     1      -0.184   9.582  20.900  0.00  0.00    +0.000 A 
ATOM     13  C   UNL     1      -0.807  10.652  20.241  0.00  0.00    +0.000 A 
ATOM     14  C   UNL     1      -0.386  11.051  18.974  0.00  0.00    +0.000 A 
ATOM     15  C   UNL     1       0.665  10.393  18.353  0.00  0.00    +0.000 A 
ATOM     16  C   UNL     1       1.312   9.348  19.011  0.00  0.00    +0.000 A 
ATOM     17  C   UNL     1       0.912   8.934  20.296  0.00  0.00    +0.000 A 
BRANCH  12  19
ATOM     18  C   UNL     1      -0.430  10.115  23.187  0.00  0.00    +0.000 C 
ATOM     19  O   UNL     1      -0.563   9.147  22.146  0.00  0.00    +0.000 OA
ENDBRANCH  12  19
ENDBRANCH  11  17
ENDBRANCH   7  11
ENDBRANCH   1   8
BRANCH   5  20
ATOM     20  N   UNL     1       5.253   5.774  15.921  0.00  0.00    +0.000 N 
ATOM     21  H   UNL     1       5.098   6.780  15.995  0.00  0.00    +0.000 HD
BRANCH  20  22
ATOM     22  C   UNL     1       6.693   5.495  16.006  0.00  0.00    +0.000 C 
BRANCH  22  23
ATOM     23  C   UNL     1       7.367   6.339  17.045  0.00  0.00    +0.000 A 
ATOM     24  N   UNL     1       7.711   5.996  18.267  0.00  0.00    +0.000 NA
ATOM     25  N   UNL     1       8.187   7.119  18.904  0.00  0.00    +0.000 NA
ATOM     26  C   UNL     1       8.143   8.134  18.062  0.00  0.00    +0.000 A 
ATOM     27  N   UNL     1       7.631   7.672  16.873  0.00  0.00    +0.000 N 
ATOM     28  H   UNL     1       7.404   8.220  16.057  0.00  0.00    +0.000 HD
BRANCH  26  29
ATOM     29  C   UNL     1       8.520   9.519  18.338  0.00  0.00    +0.000 A 
ATOM     30  C   UNL     1       9.316   9.865  19.433  0.00  0.00    +0.000 A 
ATOM     31  C   UNL     1       9.627  11.203  19.631  0.00  0.00    +0.000 A 
ATOM     32  N   UNL     1       9.210  12.198  18.821  0.00  0.00    +0.000 NA
ATOM     33  C   UNL     1       8.434  11.846  17.776  0.00  0.00    +0.000 A 
ATOM     34  C   UNL     1       8.064  10.541  17.500  0.00  0.00    +0.000 A 
ENDBRANCH  26  29
ENDBRANCH  22  23
ENDBRANCH  20  22
ENDBRANCH   5  20
TORSDOF 8
ENDMDL
MODEL 5
REMARK VINA RESULT:      -8.3      1.817      2.827
REMARK  Name = 
REMARK  9 active torsions:
REMARK  status: ('A' for Active; 'I' for Inactive)
REMARK    1  A    between atoms: C_1  and  O_2
REMARK    2  A    between atoms: O_2  and  C_3
REMARK    3  A    between atoms: C_8  and  C_9
REMARK    4  A    between atoms: C_9  and  N_10
REMARK    5  A    between atoms: C_11  and  C_13
REMARK    6  A    between atoms: C_17  and  N_18
REMARK    7  A    between atoms: N_18  and  C_19
REMARK    8  A    between atoms: C_19  and  C_20
REMARK    9  A    between atoms: C_23  and  C_24
REMARK                            x       y       z     vdW  Elec       q    Type
REMARK                         _______ _______ _______ _____ _____    ______ ____
ROOT
ATOM      1  C   UNL     1       2.733   7.037  18.643  0.00  0.00    +0.000 A 
ATOM      2  C   UNL     1       2.372   6.210  19.713  0.00  0.00    +0.000 A 
ATOM      3  C   UNL     1       3.065   5.026  19.934  0.00  0.00    +0.000 A 
ATOM      4  C   UNL     1       4.094   4.652  19.072  0.00  0.00    +0.000 A 
ATOM      5  C   UNL     1       4.425   5.419  17.942  0.00  0.00    +0.000 A 
ATOM      6  C   UNL     1       3.753   6.633  17.756  0.00  0.00    +0.000 A 
ENDROOT
BRANCH   1   8
ATOM      7  N   UNL     1       1.237   8.792  19.452  0.00  0.00    +0.000 N 
ATOM      8  C   UNL     1       2.027   8.333  18.416  0.00  0.00    +0.000 C 
ATOM      9  O   UNL     1       2.182   8.935  17.358  0.00  0.00    +0.000 OA
ATOM     10  H   UNL     1       1.369   8.414  20.381  0.00  0.00    +0.000 HD
BRANCH   7  11
ATOM     11  C   UNL     1       0.591  10.087  19.402  0.00  0.00    +0.000 C 
BRANCH  11  17
ATOM     12  C   UNL     1      -0.904  11.597  20.853  0.00  0.00    +0.000 A 
ATOM     13  C   UNL     1      -1.543  11.835  22.078  0.00  0.00    +0.000 A 
ATOM     14  C   UNL     1      -1.315  11.006  23.174  0.00  0.00    +0.000 A 
ATOM     15  C   UNL     1      -0.453   9.926  23.058  0.00  0.00    +0.000 A 
ATOM     16  C   UNL     1       0.164   9.661  21.836  0.00  0.00    +0.000 A 
ATOM     17  C   UNL     1      -0.060  10.478  20.712  0.00  0.00    +0.000 A 
BRANCH  12  19
ATOM     18  C   UNL     1      -0.970  13.790  19.979  0.00  0.00    +0.000 C 
ATOM     19  O   UNL     1      -1.091  12.388  19.744  0.00  0.00    +0.000 OA
ENDBRANCH  12  19
ENDBRANCH  11  17
ENDBRANCH   7  11
ENDBRANCH   1   8
BRANCH   5  20
ATOM     20  N   UNL     1       5.499   4.969  17.149  0.00  0.00    +0.000 N 
ATOM     21  H   UNL     1       5.155   4.254  16.507  0.00  0.00    +0.000 HD
BRANCH  20  22
ATOM     22  C   UNL     1       6.284   5.959  16.401  0.00  0.00    +0.000 C 
BRANCH  22  23
ATOM     23  C   UNL     1       7.203   6.737  17.293  0.00  0.00    +0.000 A 
ATOM     24  N   UNL     1       7.816   6.324  18.381  0.00  0.00    +0.000 NA
ATOM     25  N   UNL     1       8.454   7.404  18.944  0.00  0.00    +0.000 NA
ATOM     26  C   UNL     1       8.237   8.465  18.189  0.00  0.00    +0.000 A 
ATOM     27  N   UNL     1       7.450   8.074  17.132  0.00  0.00    +0.000 N 
ATOM     28  H   UNL     1       7.050   8.668  16.422  0.00  0.00    +0.000 HD
BRANCH  26  29
ATOM     29  C   UNL     1       8.701   9.828  18.438  0.00  0.00    +0.000 A 
ATOM     30  C   UNL     1       9.502  10.148  19.538  0.00  0.00    +0.000 A 
ATOM     31  C   UNL     1       9.898  11.468  19.709  0.00  0.00    +0.000 A 
ATOM     32  N   UNL     1       9.559  12.467  18.870  0.00  0.00    +0.000 NA
ATOM     33  C   UNL     1       8.776  12.142  17.821  0.00  0.00    +0.000 A 
ATOM     34  C   UNL     1       8.325  10.857  17.570  0.00  0.00    +0.000 A 
ENDBRANCH  26  29
ENDBRANCH  22  23
ENDBRANCH  20  22
ENDBRANCH   5  20
TORSDOF 8
ENDMDL
MODEL 6
REMARK VINA RESULT:      -8.2      1.024      1.138
REMARK  Name = 
REMARK  9 active torsions:
REMARK  status: ('A' for Active; 'I' for Inactive)
REMARK    1  A    between atoms: C_1  and  O_2
REMARK    2  A    between atoms: O_2  and  C_3
REMARK    3  A    between atoms: C_8  and  C_9
REMARK    4  A    between atoms: C_9  and  N_10
REMARK    5  A    between atoms: C_11  and  C_13
REMARK    6  A    between atoms: C_17  and  N_18
REMARK    7  A    between atoms: N_18  and  C_19
REMARK    8  A    between atoms: C_19  and  C_20
REMARK    9  A    between atoms: C_23  and  C_24
REMARK                            x       y       z     vdW  Elec       q    Type
REMARK                         _______ _______ _______ _____ _____    ______ ____
ROOT
ATOM      1  C   UNL     1       3.318   5.145  18.611  0.00  0.00    +0.000 A 
ATOM      2  C   UNL     1       2.958   3.974  17.936  0.00  0.00    +0.000 A 
ATOM      3  C   UNL     1       3.787   3.466  16.944  0.00  0.00    +0.000 A 
ATOM      4  C   UNL     1       4.957   4.143  16.604  0.00  0.00    +0.000 A 
ATOM      5  C   UNL     1       5.304   5.364  17.205  0.00  0.00    +0.000 A 
ATOM      6  C   UNL     1       4.486   5.841  18.237  0.00  0.00    +0.000 A 
ENDROOT
BRANCH   1   8
ATOM      7  N   UNL     1       2.471   7.052  19.884  0.00  0.00    +0.000 N 
ATOM      8  C   UNL     1       2.459   5.682  19.710  0.00  0.00    +0.000 C 
ATOM      9  O   UNL     1       1.782   4.914  20.385  0.00  0.00    +0.000 OA
ATOM     10  H   UNL     1       2.813   7.644  19.138  0.00  0.00    +0.000 HD
BRANCH   7  11
ATOM     11  C   UNL     1       1.600   7.707  20.837  0.00  0.00    +0.000 C 
BRANCH  11  17
ATOM     12  C   UNL     1      -0.184   9.560  20.917  0.00  0.00    +0.000 A 
ATOM     13  C   UNL     1      -0.744  10.714  20.351  0.00  0.00    +0.000 A 
ATOM     14  C   UNL     1      -0.305  11.187  19.116  0.00  0.00    +0.000 A 
ATOM     15  C   UNL     1       0.701  10.519  18.435  0.00  0.00    +0.000 A 
ATOM     16  C   UNL     1       1.288   9.388  19.003  0.00  0.00    +0.000 A 
ATOM     17  C   UNL     1       0.869   8.898  20.254  0.00  0.00    +0.000 A 
BRANCH  12  19
ATOM     18  C   UNL     1      -0.077   9.744  23.269  0.00  0.00    +0.000 C 
ATOM     19  O   UNL     1      -0.584   9.050  22.129  0.00  0.00    +0.000 OA
ENDBRANCH  12  19
ENDBRANCH  11  17
ENDBRANCH   7  11
ENDBRANCH   1   8
BRANCH   5  20
ATOM     20  N   UNL     1       6.521   5.954  16.810  0.00  0.00    +0.000 N 
ATOM     21  H   UNL     1       6.317   6.797  16.271  0.00  0.00    +0.000 HD
BRANCH  20  22
ATOM     22  C   UNL     1       7.518   6.266  17.842  0.00  0.00    +0.000 C 
BRANCH  22  23
ATOM     23  C   UNL     1       7.766   7.739  17.957  0.00  0.00    +0.000 A 
ATOM     24  N   UNL     1       7.229   8.707  17.248  0.00  0.00    +0.000 NA
ATOM     25  N   UNL     1       7.838   9.886  17.610  0.00  0.00    +0.000 NA
ATOM     26  C   UNL     1       8.732   9.631  18.547  0.00  0.00    +0.000 A 
ATOM     27  N   UNL     1       8.709   8.279  18.792  0.00  0.00    +0.000 N 
ATOM     28  H   UNL     1       9.326   7.762  19.399  0.00  0.00    +0.000 HD
BRANCH  26  29
ATOM     29  C   UNL     1       9.629  10.590  19.187  0.00  0.00    +0.000 A 
ATOM     30  C   UNL     1      10.839  10.978  18.603  0.00  0.00    +0.000 A 
ATOM     31  C   UNL     1      11.639  11.889  19.276  0.00  0.00    +0.000 A 
ATOM     32  N   UNL     1      11.317  12.434  20.467  0.00  0.00    +0.000 NA
ATOM     33  C   UNL     1      10.152  12.040  21.022  0.00  0.00    +0.000 A 
ATOM     34  C   UNL     1       9.291  11.131  20.431  0.00  0.00    +0.000 A 
ENDBRANCH  26  29
ENDBRANCH  22  23
ENDBRANCH  20  22
ENDBRANCH   5  20
TORSDOF 8
ENDMDL
MODEL 7
REMARK VINA RESULT:      -8.1      4.776      9.857
REMARK  Name = 
REMARK  9 active torsions:
REMARK  status: ('A' for Active; 'I' for Inactive)
REMARK    1  A    between atoms: C_1  and  O_2
REMARK    2  A    between atoms: O_2  and  C_3
REMARK    3  A    between atoms: C_8  and  C_9
REMARK    4  A    between atoms: C_9  and  N_10
REMARK    5  A    between atoms: C_11  and  C_13
REMARK    6  A    between atoms: C_17  and  N_18
REMARK    7  A    between atoms: N_18  and  C_19
REMARK    8  A    between atoms: C_19  and  C_20
REMARK    9  A    between atoms: C_23  and  C_24
REMARK                            x       y       z     vdW  Elec       q    Type
REMARK                         _______ _______ _______ _____ _____    ______ ____
ROOT
ATOM      1  C   UNL     1       0.804   9.289  21.010  0.00  0.00    +0.000 A 
ATOM      2  C   UNL     1       0.274   8.645  22.133  0.00  0.00    +0.000 A 
ATOM      3  C   UNL     1      -0.479   9.366  23.052  0.00  0.00    +0.000 A 
ATOM      4  C   UNL     1      -0.677  10.733  22.866  0.00  0.00    +0.000 A 
ATOM      5  C   UNL     1      -0.089  11.425  21.793  0.00  0.00    +0.000 A 
ATOM      6  C   UNL     1       0.627  10.680  20.848  0.00  0.00    +0.000 A 
ENDROOT
BRANCH   1   8
ATOM      7  N   UNL     1       2.172   7.350  20.425  0.00  0.00    +0.000 N 
ATOM      8  C   UNL     1       1.580   8.521  19.991  0.00  0.00    +0.000 C 
ATOM      9  O   UNL     1       1.649   8.933  18.838  0.00  0.00    +0.000 OA
ATOM     10  H   UNL     1       1.853   6.923  21.285  0.00  0.00    +0.000 HD
BRANCH   7  11
ATOM     11  C   UNL     1       2.855   6.458  19.513  0.00  0.00    +0.000 C 
BRANCH  11  17
ATOM     12  C   UNL     1       2.396   4.213  18.340  0.00  0.00    +0.000 A 
ATOM     13  C   UNL     1       1.849   2.923  18.387  0.00  0.00    +0.000 A 
ATOM     14  C   UNL     1       1.091   2.509  19.480  0.00  0.00    +0.000 A 
ATOM     15  C   UNL     1       0.875   3.375  20.542  0.00  0.00    +0.000 A 
ATOM     16  C   UNL     1       1.439   4.650  20.521  0.00  0.00    +0.000 A 
ATOM     17  C   UNL     1       2.219   5.086  19.432  0.00  0.00    +0.000 A 
BRANCH  12  19
ATOM     18  C   UNL     1       4.400   4.010  17.108  0.00  0.00    +0.000 C 
ATOM     19  O   UNL     1       3.147   4.671  17.285  0.00  0.00    +0.000 OA
ENDBRANCH  12  19
ENDBRANCH  11  17
ENDBRANCH   7  11
ENDBRANCH   1   8
BRANCH   5  20
ATOM     20  N   UNL     1      -0.374  12.800  21.679  0.00  0.00    +0.000 N 
ATOM     21  H   UNL     1      -0.023  13.134  20.780  0.00  0.00    +0.000 HD
BRANCH  20  22
ATOM     22  C   UNL     1      -1.760  13.248  21.859  0.00  0.00    +0.000 C 
BRANCH  22  23
ATOM     23  C   UNL     1      -2.636  12.834  20.716  0.00  0.00    +0.000 A 
ATOM     24  N   UNL     1      -3.950  12.853  20.655  0.00  0.00    +0.000 NA
ATOM     25  N   UNL     1      -4.328  12.269  19.468  0.00  0.00    +0.000 NA
ATOM     26  C   UNL     1      -3.243  11.912  18.807  0.00  0.00    +0.000 A 
ATOM     27  N   UNL     1      -2.154  12.259  19.570  0.00  0.00    +0.000 N 
ATOM     28  H   UNL     1      -1.186  12.051  19.375  0.00  0.00    +0.000 HD
BRANCH  26  29
ATOM     29  C   UNL     1      -3.187  11.226  17.518  0.00  0.00    +0.000 A 
ATOM     30  C   UNL     1      -2.165  10.327  17.201  0.00  0.00    +0.000 A 
ATOM     31  C   UNL     1      -2.179   9.719  15.953  0.00  0.00    +0.000 A 
ATOM     32  N   UNL     1      -3.129   9.940  15.022  0.00  0.00    +0.000 NA
ATOM     33  C   UNL     1      -4.101  10.820  15.341  0.00  0.00    +0.000 A 
ATOM     34  C   UNL     1      -4.169  11.480  16.556  0.00  0.00    +0.000 A 
ENDBRANCH  26  29
ENDBRANCH  22  23
ENDBRANCH  20  22
ENDBRANCH   5  20
TORSDOF 8
ENDMDL
MODEL 8
REMARK VINA RESULT:      -8.0      1.972      2.766
REMARK  Name = 
REMARK  9 active torsions:
REMARK  status: ('A' for Active; 'I' for Inactive)
REMARK    1  A    between atoms: C_1  and  O_2
REMARK    2  A    between atoms: O_2  and  C_3
REMARK    3  A    between atoms: C_8  and  C_9
REMARK    4  A    between atoms: C_9  and  N_10
REMARK    5  A    between atoms: C_11  and  C_13
REMARK    6  A    between atoms: C_17  and  N_18
REMARK    7  A    between atoms: N_18  and  C_19
REMARK    8  A    between atoms: C_19  and  C_20
REMARK    9  A    between atoms: C_23  and  C_24
REMARK                            x       y       z     vdW  Elec       q    Type
REMARK                         _______ _______ _______ _____ _____    ______ ____
ROOT
ATOM      1  C   UNL     1       2.457   7.682  18.631  0.00  0.00    +0.000 A 
ATOM      2  C   UNL     1       2.104   7.050  19.829  0.00  0.00    +0.000 A 
ATOM      3  C   UNL     1       2.752   5.882  20.211  0.00  0.00    +0.000 A 
ATOM      4  C   UNL     1       3.728   5.328  19.384  0.00  0.00    +0.000 A 
ATOM      5  C   UNL     1       4.047   5.893  18.137  0.00  0.00    +0.000 A 
ATOM      6  C   UNL     1       3.422   7.095  17.785  0.00  0.00    +0.000 A 
ENDROOT
BRANCH   1   8
ATOM      7  N   UNL     1       0.961   9.541  19.158  0.00  0.00    +0.000 N 
ATOM      8  C   UNL     1       1.800   8.960  18.226  0.00  0.00    +0.000 C 
ATOM      9  O   UNL     1       2.034   9.444  17.124  0.00  0.00    +0.000 OA
ATOM     10  H   UNL     1       1.027   9.260  20.127  0.00  0.00    +0.000 HD
BRANCH   7  11
ATOM     11  C   UNL     1       0.353  10.836  18.933  0.00  0.00    +0.000 C 
BRANCH  11  17
ATOM     12  C   UNL     1       1.445  12.392  20.666  0.00  0.00    +0.000 A 
ATOM     13  C   UNL     1       2.365  13.410  20.956  0.00  0.00    +0.000 A 
ATOM     14  C   UNL     1       3.050  14.064  19.935  0.00  0.00    +0.000 A 
ATOM     15  C   UNL     1       2.832  13.705  18.613  0.00  0.00    +0.000 A 
ATOM     16  C   UNL     1       1.943  12.673  18.314  0.00  0.00    +0.000 A 
ATOM     17  C   UNL     1       1.247  11.990  19.330  0.00  0.00    +0.000 A 
BRANCH  12  19
ATOM     18  C   UNL     1      -0.489  12.335  22.019  0.00  0.00    +0.000 C 
ATOM     19  O   UNL     1       0.741  11.720  21.636  0.00  0.00    +0.000 OA
ENDBRANCH  12  19
ENDBRANCH  11  17
ENDBRANCH   7  11
ENDBRANCH   1   8
BRANCH   5  20
ATOM     20  N   UNL     1       5.068   5.272  17.390  0.00  0.00    +0.000 N 
ATOM     21  H   UNL     1       4.656   4.521  16.835  0.00  0.00    +0.000 HD
BRANCH  20  22
ATOM     22  C   UNL     1       5.916   6.107  16.530  0.00  0.00    +0.000 C 
BRANCH  22  23
ATOM     23  C   UNL     1       6.962   6.839  17.314  0.00  0.00    +0.000 A 
ATOM     24  N   UNL     1       7.730   6.371  18.273  0.00  0.00    +0.000 NA
ATOM     25  N   UNL     1       8.451   7.422  18.791  0.00  0.00    +0.000 NA
ATOM     26  C   UNL     1       8.128   8.520  18.134  0.00  0.00    +0.000 A 
ATOM     27  N   UNL     1       7.189   8.184  17.189  0.00  0.00    +0.000 N 
ATOM     28  H   UNL     1       6.690   8.814  16.579  0.00  0.00    +0.000 HD
BRANCH  26  29
ATOM     29  C   UNL     1       8.631   9.870  18.383  0.00  0.00    +0.000 A 
ATOM     30  C   UNL     1       8.306  10.946  17.552  0.00  0.00    +0.000 A 
ATOM     31  C   UNL     1       8.828  12.197  17.851  0.00  0.00    +0.000 A 
ATOM     32  N   UNL     1       9.630  12.442  18.908  0.00  0.00    +0.000 NA
ATOM     33  C   UNL     1       9.941  11.390  19.692  0.00  0.00    +0.000 A 
ATOM     34  C   UNL     1       9.476  10.104  19.471  0.00  0.00    +0.000 A 
ENDBRANCH  26  29
ENDBRANCH  22  23
ENDBRANCH  20  22
ENDBRANCH   5  20
TORSDOF 8
ENDMDL
MODEL 9
REMARK VINA RESULT:      -8.0      1.814      2.482
REMARK  Name = 
REMARK  9 active torsions:
REMARK  status: ('A' for Active; 'I' for Inactive)
REMARK    1  A    between atoms: C_1  and  O_2
REMARK    2  A    between atoms: O_2  and  C_3
REMARK    3  A    between atoms: C_8  and  C_9
REMARK    4  A    between atoms: C_9  and  N_10
REMARK    5  A    between atoms: C_11  and  C_13
REMARK    6  A    between atoms: C_17  and  N_18
REMARK    7  A    between atoms: N_18  and  C_19
REMARK    8  A    between atoms: C_19  and  C_20
REMARK    9  A    between atoms: C_23  and  C_24
REMARK                            x       y       z     vdW  Elec       q    Type
REMARK                         _______ _______ _______ _____ _____    ______ ____
ROOT
ATOM      1  C   UNL     1       2.490   6.556  18.358  0.00  0.00    +0.000 A 
ATOM      2  C   UNL     1       1.540   5.535  18.246  0.00  0.00    +0.000 A 
ATOM      3  C   UNL     1       1.911   4.300  17.726  0.00  0.00    +0.000 A 
ATOM      4  C   UNL     1       3.219   4.097  17.289  0.00  0.00    +0.000 A 
ATOM      5  C   UNL     1       4.174   5.128  17.311  0.00  0.00    +0.000 A 
ATOM      6  C   UNL     1       3.802   6.351  17.882  0.00  0.00    +0.000 A 
ENDROOT
BRANCH   1   8
ATOM      7  N   UNL     1       1.999   8.934  18.073  0.00  0.00    +0.000 N 
ATOM      8  C   UNL     1       2.118   7.875  18.953  0.00  0.00    +0.000 C 
ATOM      9  O   UNL     1       1.921   7.965  20.160  0.00  0.00    +0.000 OA
ATOM     10  H   UNL     1       1.893   8.747  17.085  0.00  0.00    +0.000 HD
BRANCH   7  11
ATOM     11  C   UNL     1       1.535  10.235  18.506  0.00  0.00    +0.000 C 
BRANCH  11  17
ATOM     12  C   UNL     1      -0.710  11.229  19.277  0.00  0.00    +0.000 A 
ATOM     13  C   UNL     1      -2.088  11.388  19.071  0.00  0.00    +0.000 A 
ATOM     14  C   UNL     1      -2.743  10.689  18.059  0.00  0.00    +0.000 A 
ATOM     15  C   UNL     1      -2.030   9.828  17.238  0.00  0.00    +0.000 A 
ATOM     16  C   UNL     1      -0.654   9.685  17.414  0.00  0.00    +0.000 A 
ATOM     17  C   UNL     1       0.031  10.389  18.422  0.00  0.00    +0.000 A 
BRANCH  12  19
ATOM     18  C   UNL     1      -0.097  13.315  20.198  0.00  0.00    +0.000 C 
ATOM     19  O   UNL     1      -0.019  11.891  20.263  0.00  0.00    +0.000 OA
ENDBRANCH  12  19
ENDBRANCH  11  17
ENDBRANCH   7  11
ENDBRANCH   1   8
BRANCH   5  20
ATOM     20  N   UNL     1       5.475   4.811  16.873  0.00  0.00    +0.000 N 
ATOM     21  H   UNL     1       5.429   3.978  16.286  0.00  0.00    +0.000 HD
BRANCH  20  22
ATOM     22  C   UNL     1       6.257   5.848  16.187  0.00  0.00    +0.000 C 
BRANCH  22  23
ATOM     23  C   UNL     1       7.144   6.599  17.133  0.00  0.00    +0.000 A 
ATOM     24  N   UNL     1       7.707   6.159  18.237  0.00  0.00    +0.000 NA
ATOM     25  N   UNL     1       8.330   7.222  18.849  0.00  0.00    +0.000 NA
ATOM     26  C   UNL     1       8.154   8.299  18.107  0.00  0.00    +0.000 A 
ATOM     27  N   UNL     1       7.409   7.937  17.010  0.00  0.00    +0.000 N 
ATOM     28  H   UNL     1       7.045   8.549  16.296  0.00  0.00    +0.000 HD
BRANCH  26  29
ATOM     29  C   UNL     1       8.618   9.653  18.403  0.00  0.00    +0.000 A 
ATOM     30  C   UNL     1       9.369   9.945  19.546  0.00  0.00    +0.000 A 
ATOM     31  C   UNL     1       9.768  11.257  19.760  0.00  0.00    +0.000 A 
ATOM     32  N   UNL     1       9.480  12.275  18.924  0.00  0.00    +0.000 NA
ATOM     33  C   UNL     1       8.746  11.977  17.832  0.00  0.00    +0.000 A 
ATOM     34  C   UNL     1       8.296  10.701  17.536  0.00  0.00    +0.000 A 
ENDBRANCH  26  29
ENDBRANCH  22  23
ENDBRANCH  20  22
ENDBRANCH   5  20
TORSDOF 8
ENDMDL
