MODEL 1
REMARK VINA RESULT:      -6.8      0.000      0.000
REMARK  Name = 
REMARK  7 active torsions:
REMARK  status: ('A' for Active; 'I' for Inactive)
REMARK    1  A    between atoms: C_1  and  C_2
REMARK    2  A    between atoms: C_2  and  S_3
REMARK    3  A    between atoms: S_3  and  C_6
REMARK    4  A    between atoms: C_6  and  C_7
REMARK    5  A    between atoms: C_9  and  N_10
REMARK    6  A    between atoms: N_10  and  C_11
REMARK    7  A    between atoms: N_10  and  C_12
REMARK                            x       y       z     vdW  Elec       q    Type
REMARK                         _______ _______ _______ _____ _____    ______ ____
ROOT
ATOM      1  N   UNL     1       4.246   5.959  18.235  0.00  0.00    +0.000 N 
ATOM      2  C   UNL     1       3.592   7.044  17.506  0.00  0.00    +0.000 C 
ENDROOT
BRANCH   1   3
ATOM      3  C   UNL     1       3.277   5.199  18.948  0.00  0.00    +0.000 A 
ATOM      4  N   UNL     1       2.761   5.738  20.090  0.00  0.00    +0.000 NA
ATOM      5  C   UNL     1       1.826   5.058  20.782  0.00  0.00    +0.000 A 
ATOM      6  N   UNL     1       1.320   3.847  20.516  0.00  0.00    +0.000 NA
ATOM      7  C   UNL     1       1.857   3.331  19.405  0.00  0.00    +0.000 A 
ATOM      8  N   UNL     1       1.548   2.089  18.917  0.00  0.00    +0.000 N 
ATOM      9  C   UNL     1       2.271   1.843  17.783  0.00  0.00    +0.000 A 
ATOM     10  C   UNL     1       3.047   2.956  17.540  0.00  0.00    +0.000 A 
ATOM     11  C   UNL     1       2.802   3.917  18.570  0.00  0.00    +0.000 A 
ATOM     12  H   UNL     1       0.895   1.459  19.361  0.00  0.00    +0.000 HD
ENDBRANCH   1   3
BRANCH   1  15
ATOM     13  C   UNL     1       6.851   4.710  17.433  0.00  0.00    +0.000 C 
ATOM     14  C   UNL     1       6.701   6.243  17.554  0.00  0.00    +0.000 C 
ATOM     15  C   UNL     1       5.626   6.052  18.638  0.00  0.00    +0.000 C 
ATOM     16  C   UNL     1       6.214   4.626  18.852  0.00  0.00    +0.000 C 
BRANCH  13  17
ATOM     17  C   UNL     1       6.143   4.041  16.254  0.00  0.00    +0.000 C 
BRANCH  17  18
ATOM     18  S   UNL     1       6.450   4.983  14.748  0.00  0.00    +0.000 S 
ATOM     19  O   UNL     1       7.876   5.228  14.657  0.00  0.00    +0.000 OA
ATOM     20  O   UNL     1       5.504   6.081  14.685  0.00  0.00    +0.000 OA
BRANCH  18  22
ATOM     21  C   UNL     1       6.983   4.008  12.259  0.00  0.00    +0.000 C 
ATOM     22  C   UNL     1       6.014   3.867  13.424  0.00  0.00    +0.000 C 
ENDBRANCH  18  22
ENDBRANCH  17  18
ENDBRANCH  13  17
ENDBRANCH   1  15
TORSDOF 5
ENDMDL
MODEL 2
REMARK VINA RESULT:      -6.8      2.188      3.454
REMARK  Name = 
REMARK  7 active torsions:
REMARK  status: ('A' for Active; 'I' for Inactive)
REMARK    1  A    between atoms: C_1  and  C_2
REMARK    2  A    between atoms: C_2  and  S_3
REMARK    3  A    between atoms: S_3  and  C_6
REMARK    4  A    between atoms: C_6  and  C_7
REMARK    5  A    between atoms: C_9  and  N_10
REMARK    6  A    between atoms: N_10  and  C_11
REMARK    7  A    between atoms: N_10  and  C_12
REMARK                            x       y       z     vdW  Elec       q    Type
REMARK                         _______ _______ _______ _____ _____    ______ ____
ROOT
ATOM      1  N   UNL     1       2.553   4.971  18.140  0.00  0.00    +0.000 N 
ATOM      2  C   UNL     1       1.345   4.485  17.476  0.00  0.00    +0.000 C 
ENDROOT
BRANCH   1   3
ATOM      3  C   UNL     1       3.081   3.960  18.990  0.00  0.00    +0.000 A 
ATOM      4  N   UNL     1       4.271   3.392  18.639  0.00  0.00    +0.000 NA
ATOM      5  C   UNL     1       4.814   2.446  19.430  0.00  0.00    +0.000 A 
ATOM      6  N   UNL     1       4.315   1.928  20.560  0.00  0.00    +0.000 NA
ATOM      7  C   UNL     1       3.140   2.485  20.871  0.00  0.00    +0.000 A 
ATOM      8  N   UNL     1       2.389   2.121  21.957  0.00  0.00    +0.000 N 
ATOM      9  C   UNL     1       1.238   2.858  21.994  0.00  0.00    +0.000 A 
ATOM     10  C   UNL     1       1.263   3.715  20.914  0.00  0.00    +0.000 A 
ATOM     11  C   UNL     1       2.469   3.487  20.179  0.00  0.00    +0.000 A 
ATOM     12  H   UNL     1       2.659   1.398  22.607  0.00  0.00    +0.000 HD
ENDBRANCH   1   3
BRANCH   1  15
ATOM     13  C   UNL     1       4.597   7.018  17.351  0.00  0.00    +0.000 C 
ATOM     14  C   UNL     1       3.087   7.274  17.148  0.00  0.00    +0.000 C 
ATOM     15  C   UNL     1       2.772   6.379  18.359  0.00  0.00    +0.000 C 
ATOM     16  C   UNL     1       4.241   6.622  18.815  0.00  0.00    +0.000 C 
BRANCH  13  17
ATOM     17  C   UNL     1       5.248   5.983  16.432  0.00  0.00    +0.000 C 
BRANCH  17  18
ATOM     18  S   UNL     1       7.042   6.097  16.564  0.00  0.00    +0.000 S 
ATOM     19  O   UNL     1       7.373   7.441  16.996  0.00  0.00    +0.000 OA
ATOM     20  O   UNL     1       7.634   5.538  15.365  0.00  0.00    +0.000 OA
BRANCH  18  22
ATOM     21  C   UNL     1       7.832   5.768  19.152  0.00  0.00    +0.000 C 
ATOM     22  C   UNL     1       7.465   4.988  17.899  0.00  0.00    +0.000 C 
ENDBRANCH  18  22
ENDBRANCH  17  18
ENDBRANCH  13  17
ENDBRANCH   1  15
TORSDOF 5
ENDMDL
MODEL 3
REMARK VINA RESULT:      -6.7      2.239      3.912
REMARK  Name = 
REMARK  7 active torsions:
REMARK  status: ('A' for Active; 'I' for Inactive)
REMARK    1  A    between atoms: C_1  and  C_2
REMARK    2  A    between atoms: C_2  and  S_3
REMARK    3  A    between atoms: S_3  and  C_6
REMARK    4  A    between atoms: C_6  and  C_7
REMARK    5  A    between atoms: C_9  and  N_10
REMARK    6  A    between atoms: N_10  and  C_11
REMARK    7  A    between atoms: N_10  and  C_12
REMARK                            x       y       z     vdW  Elec       q    Type
REMARK                         _______ _______ _______ _____ _____    ______ ____
ROOT
ATOM      1  N   UNL     1       2.723   5.172  18.874  0.00  0.00    +0.000 N 
ATOM      2  C   UNL     1       2.197   4.474  17.701  0.00  0.00    +0.000 C 
ENDROOT
BRANCH   1   3
ATOM      3  C   UNL     1       2.477   6.569  18.758  0.00  0.00    +0.000 A 
ATOM      4  N   UNL     1       2.873   7.192  17.611  0.00  0.00    +0.000 NA
ATOM      5  C   UNL     1       2.639   8.510  17.456  0.00  0.00    +0.000 A 
ATOM      6  N   UNL     1       2.069   9.355  18.324  0.00  0.00    +0.000 NA
ATOM      7  C   UNL     1       1.710   8.726  19.448  0.00  0.00    +0.000 A 
ATOM      8  N   UNL     1       1.136   9.354  20.521  0.00  0.00    +0.000 N 
ATOM      9  C   UNL     1       0.902   8.449  21.519  0.00  0.00    +0.000 A 
ATOM     10  C   UNL     1       1.327   7.218  21.066  0.00  0.00    +0.000 A 
ATOM     11  C   UNL     1       1.854   7.375  19.745  0.00  0.00    +0.000 A 
ATOM     12  H   UNL     1       0.944  10.345  20.553  0.00  0.00    +0.000 HD
ENDBRANCH   1   3
BRANCH   1  15
ATOM     13  C   UNL     1       5.568   4.361  18.387  0.00  0.00    +0.000 C 
ATOM     14  C   UNL     1       5.190   5.295  19.558  0.00  0.00    +0.000 C 
ATOM     15  C   UNL     1       3.808   4.625  19.647  0.00  0.00    +0.000 C 
ATOM     16  C   UNL     1       4.439   3.416  18.895  0.00  0.00    +0.000 C 
BRANCH  13  17
ATOM     17  C   UNL     1       5.473   4.951  16.979  0.00  0.00    +0.000 C 
BRANCH  17  18
ATOM     18  S   UNL     1       7.128   5.157  16.295  0.00  0.00    +0.000 S 
ATOM     19  O   UNL     1       8.009   4.222  16.968  0.00  0.00    +0.000 OA
ATOM     20  O   UNL     1       7.442   6.572  16.254  0.00  0.00    +0.000 OA
BRANCH  18  22
ATOM     21  C   UNL     1       5.541   4.258  14.270  0.00  0.00    +0.000 C 
ATOM     22  C   UNL     1       6.981   4.625  14.597  0.00  0.00    +0.000 C 
ENDBRANCH  18  22
ENDBRANCH  17  18
ENDBRANCH  13  17
ENDBRANCH   1  15
TORSDOF 5
ENDMDL
MODEL 4
REMARK VINA RESULT:      -6.7      3.665      6.155
REMARK  Name = 
REMARK  7 active torsions:
REMARK  status: ('A' for Active; 'I' for Inactive)
REMARK    1  A    between atoms: C_1  and  C_2
REMARK    2  A    between atoms: C_2  and  S_3
REMARK    3  A    between atoms: S_3  and  C_6
REMARK    4  A    between atoms: C_6  and  C_7
REMARK    5  A    between atoms: C_9  and  N_10
REMARK    6  A    between atoms: N_10  and  C_11
REMARK    7  A    between atoms: N_10  and  C_12
REMARK                            x       y       z     vdW  Elec       q    Type
REMARK                         _______ _______ _______ _____ _____    ______ ____
ROOT
ATOM      1  N   UNL     1       3.634   4.951  17.634  0.00  0.00    +0.000 N 
ATOM      2  C   UNL     1       3.240   6.350  17.790  0.00  0.00    +0.000 C 
ENDROOT
BRANCH   1   3
ATOM      3  C   UNL     1       5.045   4.857  17.476  0.00  0.00    +0.000 A 
ATOM      4  N   UNL     1       5.810   4.827  18.605  0.00  0.00    +0.000 NA
ATOM      5  C   UNL     1       7.149   4.718  18.497  0.00  0.00    +0.000 A 
ATOM      6  N   UNL     1       7.886   4.662  17.380  0.00  0.00    +0.000 NA
ATOM      7  C   UNL     1       7.115   4.715  16.288  0.00  0.00    +0.000 A 
ATOM      8  N   UNL     1       7.605   4.711  15.010  0.00  0.00    +0.000 N 
ATOM      9  C   UNL     1       6.574   4.790  14.116  0.00  0.00    +0.000 A 
ATOM     10  C   UNL     1       5.403   4.836  14.842  0.00  0.00    +0.000 A 
ATOM     11  C   UNL     1       5.728   4.796  16.234  0.00  0.00    +0.000 A 
ATOM     12  H   UNL     1       8.590   4.674  14.788  0.00  0.00    +0.000 HD
ENDBRANCH   1   3
BRANCH   1  15
ATOM     13  C   UNL     1       2.589   2.270  18.479  0.00  0.00    +0.000 C 
ATOM     14  C   UNL     1       1.632   3.404  18.051  0.00  0.00    +0.000 C 
ATOM     15  C   UNL     1       2.716   3.967  17.116  0.00  0.00    +0.000 C 
ATOM     16  C   UNL     1       3.371   2.555  17.162  0.00  0.00    +0.000 C 
BRANCH  13  17
ATOM     17  C   UNL     1       3.299   2.440  19.823  0.00  0.00    +0.000 C 
BRANCH  17  18
ATOM     18  S   UNL     1       2.127   3.032  21.058  0.00  0.00    +0.000 S 
ATOM     19  O   UNL     1       2.497   2.455  22.336  0.00  0.00    +0.000 OA
ATOM     20  O   UNL     1       0.783   2.876  20.537  0.00  0.00    +0.000 OA
BRANCH  18  22
ATOM     21  C   UNL     1       1.210   5.572  20.694  0.00  0.00    +0.000 C 
ATOM     22  C   UNL     1       2.429   4.789  21.157  0.00  0.00    +0.000 C 
ENDBRANCH  18  22
ENDBRANCH  17  18
ENDBRANCH  13  17
ENDBRANCH   1  15
TORSDOF 5
ENDMDL
MODEL 5
REMARK VINA RESULT:      -6.7      1.262      2.258
REMARK  Name = 
REMARK  7 active torsions:
REMARK  status: ('A' for Active; 'I' for Inactive)
REMARK    1  A    between atoms: C_1  and  C_2
REMARK    2  A    between atoms: C_2  and  S_3
REMARK    3  A    between atoms: S_3  and  C_6
REMARK    4  A    between atoms: C_6  and  C_7
REMARK    5  A    between atoms: C_9  and  N_10
REMARK    6  A    between atoms: N_10  and  C_11
REMARK    7  A    between atoms: N_10  and  C_12
REMARK                            x       y       z     vdW  Elec       q    Type
REMARK                         _______ _______ _______ _____ _____    ______ ____
ROOT
ATOM      1  N   UNL     1       3.360   5.716  18.140  0.00  0.00    +0.000 N 
ATOM      2  C   UNL     1       2.191   6.535  17.821  0.00  0.00    +0.000 C 
ENDROOT
BRANCH   1   3
ATOM      3  C   UNL     1       2.956   4.379  18.415  0.00  0.00    +0.000 A 
ATOM      4  N   UNL     1       2.966   3.487  17.383  0.00  0.00    +0.000 NA
ATOM      5  C   UNL     1       2.611   2.207  17.608  0.00  0.00    +0.000 A 
ATOM      6  N   UNL     1       2.196   1.655  18.756  0.00  0.00    +0.000 NA
ATOM      7  C   UNL     1       2.174   2.554  19.746  0.00  0.00    +0.000 A 
ATOM      8  N   UNL     1       1.757   2.273  21.020  0.00  0.00    +0.000 N 
ATOM      9  C   UNL     1       1.836   3.397  21.793  0.00  0.00    +0.000 A 
ATOM     10  C   UNL     1       2.322   4.412  20.996  0.00  0.00    +0.000 A 
ATOM     11  C   UNL     1       2.538   3.894  19.681  0.00  0.00    +0.000 A 
ATOM     12  H   UNL     1       1.427   1.365  21.313  0.00  0.00    +0.000 HD
ENDBRANCH   1   3
BRANCH   1  15
ATOM     13  C   UNL     1       6.148   6.260  17.183  0.00  0.00    +0.000 C 
ATOM     14  C   UNL     1       5.299   7.367  17.847  0.00  0.00    +0.000 C 
ATOM     15  C   UNL     1       4.561   6.302  18.677  0.00  0.00    +0.000 C 
ATOM     16  C   UNL     1       5.776   5.368  18.404  0.00  0.00    +0.000 C 
BRANCH  13  17
ATOM     17  C   UNL     1       5.730   5.821  15.779  0.00  0.00    +0.000 C 
BRANCH  17  18
ATOM     18  S   UNL     1       7.040   4.831  15.036  0.00  0.00    +0.000 S 
ATOM     19  O   UNL     1       7.860   4.299  16.109  0.00  0.00    +0.000 OA
ATOM     20  O   UNL     1       7.638   5.586  13.952  0.00  0.00    +0.000 OA
BRANCH  18  22
ATOM     21  C   UNL     1       5.982   3.699  12.795  0.00  0.00    +0.000 C 
ATOM     22  C   UNL     1       6.189   3.454  14.282  0.00  0.00    +0.000 C 
ENDBRANCH  18  22
ENDBRANCH  17  18
ENDBRANCH  13  17
ENDBRANCH   1  15
TORSDOF 5
ENDMDL
MODEL 6
REMARK VINA RESULT:      -6.7      0.931      1.984
REMARK  Name = 
REMARK  7 active torsions:
REMARK  status: ('A' for Active; 'I' for Inactive)
REMARK    1  A    between atoms: C_1  and  C_2
REMARK    2  A    between atoms: C_2  and  S_3
REMARK    3  A    between atoms: S_3  and  C_6
REMARK    4  A    between atoms: C_6  and  C_7
REMARK    5  A    between atoms: C_9  and  N_10
REMARK    6  A    between atoms: N_10  and  C_11
REMARK    7  A    between atoms: N_10  and  C_12
REMARK                            x       y       z     vdW  Elec       q    Type
REMARK                         _______ _______ _______ _____ _____    ______ ____
ROOT
ATOM      1  N   UNL     1       3.787   5.514  18.238  0.00  0.00    +0.000 N 
ATOM      2  C   UNL     1       2.808   6.581  18.041  0.00  0.00    +0.000 C 
ENDROOT
BRANCH   1   3
ATOM      3  C   UNL     1       3.120   4.281  18.483  0.00  0.00    +0.000 A 
ATOM      4  N   UNL     1       2.935   3.438  17.426  0.00  0.00    +0.000 NA
ATOM      5  C   UNL     1       2.326   2.252  17.621  0.00  0.00    +0.000 A 
ATOM      6  N   UNL     1       1.819   1.762  18.760  0.00  0.00    +0.000 NA
ATOM      7  C   UNL     1       1.993   2.615  19.775  0.00  0.00    +0.000 A 
ATOM      8  N   UNL     1       1.542   2.386  21.048  0.00  0.00    +0.000 N 
ATOM      9  C   UNL     1       1.859   3.445  21.851  0.00  0.00    +0.000 A 
ATOM     10  C   UNL     1       2.534   4.363  21.075  0.00  0.00    +0.000 A 
ATOM     11  C   UNL     1       2.625   3.853  19.741  0.00  0.00    +0.000 A 
ATOM     12  H   UNL     1       1.035   1.556  21.321  0.00  0.00    +0.000 HD
ENDBRANCH   1   3
BRANCH   1  15
ATOM     13  C   UNL     1       6.586   4.721  17.513  0.00  0.00    +0.000 C 
ATOM     14  C   UNL     1       6.195   6.205  17.693  0.00  0.00    +0.000 C 
ATOM     15  C   UNL     1       5.118   5.797  18.713  0.00  0.00    +0.000 C 
ATOM     16  C   UNL     1       5.911   4.470  18.894  0.00  0.00    +0.000 C 
BRANCH  13  17
ATOM     17  C   UNL     1       6.041   4.012  16.272  0.00  0.00    +0.000 C 
BRANCH  17  18
ATOM     18  S   UNL     1       6.281   5.056  14.822  0.00  0.00    +0.000 S 
ATOM     19  O   UNL     1       7.704   5.287  14.669  0.00  0.00    +0.000 OA
ATOM     20  O   UNL     1       5.353   6.168  14.891  0.00  0.00    +0.000 OA
BRANCH  18  22
ATOM     21  C   UNL     1       6.889   3.848  12.456  0.00  0.00    +0.000 C 
ATOM     22  C   UNL     1       5.753   4.044  13.449  0.00  0.00    +0.000 C 
ENDBRANCH  18  22
ENDBRANCH  17  18
ENDBRANCH  13  17
ENDBRANCH   1  15
TORSDOF 5
ENDMDL
MODEL 7
REMARK VINA RESULT:      -6.6      0.955      1.079
REMARK  Name = 
REMARK  7 active torsions:
REMARK  status: ('A' for Active; 'I' for Inactive)
REMARK    1  A    between atoms: C_1  and  C_2
REMARK    2  A    between atoms: C_2  and  S_3
REMARK    3  A    between atoms: S_3  and  C_6
REMARK    4  A    between atoms: C_6  and  C_7
REMARK    5  A    between atoms: C_9  and  N_10
REMARK    6  A    between atoms: N_10  and  C_11
REMARK    7  A    between atoms: N_10  and  C_12
REMARK                            x       y       z     vdW  Elec       q    Type
REMARK                         _______ _______ _______ _____ _____    ______ ____
ROOT
ATOM      1  N   UNL     1       3.856   6.277  18.219  0.00  0.00    +0.000 N 
ATOM      2  C   UNL     1       3.091   7.435  17.760  0.00  0.00    +0.000 C 
ENDROOT
BRANCH   1   3
ATOM      3  C   UNL     1       2.996   5.359  18.884  0.00  0.00    +0.000 A 
ATOM      4  N   UNL     1       2.399   5.770  20.039  0.00  0.00    +0.000 NA
ATOM      5  C   UNL     1       1.561   4.937  20.687  0.00  0.00    +0.000 A 
ATOM      6  N   UNL     1       1.231   3.680  20.361  0.00  0.00    +0.000 NA
ATOM      7  C   UNL     1       1.845   3.293  19.238  0.00  0.00    +0.000 A 
ATOM      8  N   UNL     1       1.718   2.043  18.693  0.00  0.00    +0.000 N 
ATOM      9  C   UNL     1       2.478   1.951  17.560  0.00  0.00    +0.000 A 
ATOM     10  C   UNL     1       3.093   3.170  17.377  0.00  0.00    +0.000 A 
ATOM     11  C   UNL     1       2.707   4.041  18.444  0.00  0.00    +0.000 A 
ATOM     12  H   UNL     1       1.154   1.310  19.099  0.00  0.00    +0.000 HD
ENDBRANCH   1   3
BRANCH   1  15
ATOM     13  C   UNL     1       6.410   5.877  16.700  0.00  0.00    +0.000 C 
ATOM     14  C   UNL     1       6.156   7.164  17.516  0.00  0.00    +0.000 C 
ATOM     15  C   UNL     1       5.268   6.371  18.490  0.00  0.00    +0.000 C 
ATOM     16  C   UNL     1       5.994   5.092  17.979  0.00  0.00    +0.000 C 
BRANCH  13  17
ATOM     17  C   UNL     1       5.595   5.704  15.417  0.00  0.00    +0.000 C 
BRANCH  17  18
ATOM     18  S   UNL     1       6.403   4.505  14.341  0.00  0.00    +0.000 S 
ATOM     19  O   UNL     1       6.675   3.315  15.125  0.00  0.00    +0.000 OA
ATOM     20  O   UNL     1       7.466   5.172  13.615  0.00  0.00    +0.000 OA
BRANCH  18  22
ATOM     21  C   UNL     1       5.739   3.158  12.067  0.00  0.00    +0.000 C 
ATOM     22  C   UNL     1       5.160   4.076  13.133  0.00  0.00    +0.000 C 
ENDBRANCH  18  22
ENDBRANCH  17  18
ENDBRANCH  13  17
ENDBRANCH   1  15
TORSDOF 5
ENDMDL
MODEL 8
REMARK VINA RESULT:      -6.6      2.190      4.308
REMARK  Name = 
REMARK  7 active torsions:
REMARK  status: ('A' for Active; 'I' for Inactive)
REMARK    1  A    between atoms: C_1  and  C_2
REMARK    2  A    between atoms: C_2  and  S_3
REMARK    3  A    between atoms: S_3  and  C_6
REMARK    4  A    between atoms: C_6  and  C_7
REMARK    5  A    between atoms: C_9  and  N_10
REMARK    6  A    between atoms: N_10  and  C_11
REMARK    7  A    between atoms: N_10  and  C_12
REMARK                            x       y       z     vdW  Elec       q    Type
REMARK                         _______ _______ _______ _____ _____    ______ ____
ROOT
ATOM      1  N   UNL     1       2.559   5.078  18.942  0.00  0.00    +0.000 N 
ATOM      2  C   UNL     1       1.945   4.389  17.809  0.00  0.00    +0.000 C 
ENDROOT
BRANCH   1   3
ATOM      3  C   UNL     1       2.380   6.484  18.812  0.00  0.00    +0.000 A 
ATOM      4  N   UNL     1       2.805   7.075  17.658  0.00  0.00    +0.000 NA
ATOM      5  C   UNL     1       2.634   8.400  17.488  0.00  0.00    +0.000 A 
ATOM      6  N   UNL     1       2.104   9.281  18.347  0.00  0.00    +0.000 NA
ATOM      7  C   UNL     1       1.714   8.682  19.477  0.00  0.00    +0.000 A 
ATOM      8  N   UNL     1       1.170   9.348  20.543  0.00  0.00    +0.000 N 
ATOM      9  C   UNL     1       0.892   8.465  21.549  0.00  0.00    +0.000 A 
ATOM     10  C   UNL     1       1.259   7.211  21.110  0.00  0.00    +0.000 A 
ATOM     11  C   UNL     1       1.794   7.329  19.789  0.00  0.00    +0.000 A 
ATOM     12  H   UNL     1       1.024  10.346  20.563  0.00  0.00    +0.000 HD
ENDBRANCH   1   3
BRANCH   1  15
ATOM     13  C   UNL     1       5.369   4.205  18.363  0.00  0.00    +0.000 C 
ATOM     14  C   UNL     1       5.047   5.126  19.561  0.00  0.00    +0.000 C 
ATOM     15  C   UNL     1       3.651   4.488  19.676  0.00  0.00    +0.000 C 
ATOM     16  C   UNL     1       4.230   3.279  18.884  0.00  0.00    +0.000 C 
BRANCH  13  17
ATOM     17  C   UNL     1       5.251   4.825  16.969  0.00  0.00    +0.000 C 
BRANCH  17  18
ATOM     18  S   UNL     1       6.878   5.359  16.403  0.00  0.00    +0.000 S 
ATOM     19  O   UNL     1       6.808   5.554  14.968  0.00  0.00    +0.000 OA
ATOM     20  O   UNL     1       7.882   4.489  16.985  0.00  0.00    +0.000 OA
BRANCH  18  22
ATOM     21  C   UNL     1       7.982   6.861  18.391  0.00  0.00    +0.000 C 
ATOM     22  C   UNL     1       7.107   6.964  17.150  0.00  0.00    +0.000 C 
ENDBRANCH  18  22
ENDBRANCH  17  18
ENDBRANCH  13  17
ENDBRANCH   1  15
TORSDOF 5
ENDMDL
MODEL 9
REMARK VINA RESULT:      -6.6      3.549      5.828
REMARK  Name = 
REMARK  7 active torsions:
REMARK  status: ('A' for Active; 'I' for Inactive)
REMARK    1  A    between atoms: C_1  and  C_2
REMARK    2  A    between atoms: C_2  and  S_3
REMARK    3  A    between atoms: S_3  and  C_6
REMARK    4  A    between atoms: C_6  and  C_7
REMARK    5  A    between atoms: C_9  and  N_10
REMARK    6  A    between atoms: N_10  and  C_11
REMARK    7  A    between atoms: N_10  and  C_12
REMARK                            x       y       z     vdW  Elec       q    Type
REMARK                         _______ _______ _______ _____ _____    ______ ____
ROOT
ATOM      1  N   UNL     1       4.736   5.164  18.803  0.00  0.00    +0.000 N 
ATOM      2  C   UNL     1       5.234   4.043  19.598  0.00  0.00    +0.000 C 
ENDROOT
BRANCH   1   3
ATOM      3  C   UNL     1       5.728   5.578  17.871  0.00  0.00    +0.000 A 
ATOM      4  N   UNL     1       6.616   6.534  18.269  0.00  0.00    +0.000 NA
ATOM      5  C   UNL     1       7.582   6.937  17.422  0.00  0.00    +0.000 A 
ATOM      6  N   UNL     1       7.795   6.537  16.161  0.00  0.00    +0.000 NA
ATOM      7  C   UNL     1       6.899   5.617  15.787  0.00  0.00    +0.000 A 
ATOM      8  N   UNL     1       6.859   5.058  14.537  0.00  0.00    +0.000 N 
ATOM      9  C   UNL     1       5.824   4.168  14.460  0.00  0.00    +0.000 A 
ATOM     10  C   UNL     1       5.201   4.153  15.689  0.00  0.00    +0.000 A 
ATOM     11  C   UNL     1       5.869   5.079  16.551  0.00  0.00    +0.000 A 
ATOM     12  H   UNL     1       7.499   5.301  13.795  0.00  0.00    +0.000 HD
ENDBRANCH   1   3
BRANCH   1  15
ATOM     13  C   UNL     1       1.751   5.386  18.627  0.00  0.00    +0.000 C 
ATOM     14  C   UNL     1       2.478   5.430  19.989  0.00  0.00    +0.000 C 
ATOM     15  C   UNL     1       3.714   6.046  19.310  0.00  0.00    +0.000 C 
ATOM     16  C   UNL     1       2.761   6.473  18.154  0.00  0.00    +0.000 C 
BRANCH  13  17
ATOM     17  C   UNL     1       1.714   4.035  17.911  0.00  0.00    +0.000 C 
BRANCH  17  18
ATOM     18  S   UNL     1       1.041   2.780  19.017  0.00  0.00    +0.000 S 
ATOM     19  O   UNL     1       0.108   1.971  18.258  0.00  0.00    +0.000 OA
ATOM     20  O   UNL     1       0.633   3.419  20.253  0.00  0.00    +0.000 OA
BRANCH  18  22
ATOM     21  C   UNL     1       3.362   1.592  18.224  0.00  0.00    +0.000 C 
ATOM     22  C   UNL     1       2.439   1.745  19.423  0.00  0.00    +0.000 C 
ENDBRANCH  18  22
ENDBRANCH  17  18
ENDBRANCH  13  17
ENDBRANCH   1  15
TORSDOF 5
ENDMDL
