MODEL 1
REMARK VINA RESULT:      -6.3      0.000      0.000
REMARK  Name = 
REMARK  7 active torsions:
REMARK  status: ('A' for Active; 'I' for Inactive)
REMARK    1  A    between atoms: C_1  and  C_2
REMARK    2  A    between atoms: C_6  and  C_7
REMARK    3  A    between atoms: C_7  and  C_8
REMARK    4  A    between atoms: C_8  and  C_9
REMARK    5  A    between atoms: C_16  and  N_17
REMARK    6  A    between atoms: N_17  and  C_18
REMARK    7  A    between atoms: N_17  and  C_19
REMARK                            x       y       z     vdW  Elec       q    Type
REMARK                         _______ _______ _______ _____ _____    ______ ____
ROOT
ATOM      1  C   UNL     1       3.869   2.766  17.930  0.00  0.00    +0.000 C 
ATOM      2  O   UNL     1       4.104   1.555  17.932  0.00  0.00    +0.000 OA
ATOM      3  N   UNL     1       3.492   3.472  19.087  0.00  0.00    +0.000 N 
ATOM      4  C   UNL     1       3.549   2.787  20.373  0.00  0.00    +0.000 C 
ATOM      5  C   UNL     1       2.177   2.285  20.801  0.00  0.00    +0.000 C 
ATOM      6  C   UNL     1       1.251   3.390  21.290  0.00  0.00    +0.000 C 
ATOM      7  C   UNL     1       1.005   4.523  20.293  0.00  0.00    +0.000 C 
ATOM      8  C   UNL     1       2.217   5.485  20.147  0.00  0.00    +0.000 C 
ATOM      9  C   UNL     1       3.183   4.911  19.067  0.00  0.00    +0.000 C 
ENDROOT
BRANCH   8  10
ATOM     10  N   UNL     1       1.778   6.872  19.776  0.00  0.00    +0.000 NA
ATOM     11  C   UNL     1       2.663   7.498  18.780  0.00  0.00    +0.000 C 
ATOM     12  C   UNL     1       1.712   7.776  20.934  0.00  0.00    +0.000 C 
ENDBRANCH   8  10
BRANCH   1  13
ATOM     13  C   UNL     1       3.995   3.609  16.672  0.00  0.00    +0.000 C 
BRANCH  13  14
ATOM     14  C   UNL     1       5.413   3.747  16.134  0.00  0.00    +0.000 C 
BRANCH  14  20
ATOM     15  C   UNL     1       4.838   6.981  15.615  0.00  0.00    +0.000 C 
ATOM     16  C   UNL     1       5.862   6.330  16.480  0.00  0.00    +0.000 A 
ATOM     17  N   UNL     1       6.699   7.183  17.194  0.00  0.00    +0.000 NA
ATOM     18  C   UNL     1       7.547   6.484  17.907  0.00  0.00    +0.000 A 
ATOM     19  S   UNL     1       7.394   4.787  17.803  0.00  0.00    +0.000 S 
ATOM     20  C   UNL     1       6.089   4.974  16.692  0.00  0.00    +0.000 A 
ENDBRANCH  14  20
ENDBRANCH  13  14
ENDBRANCH   1  13
TORSDOF 4
ENDMDL
MODEL 2
REMARK VINA RESULT:      -6.0      2.150      5.759
REMARK  Name = 
REMARK  7 active torsions:
REMARK  status: ('A' for Active; 'I' for Inactive)
REMARK    1  A    between atoms: C_1  and  C_2
REMARK    2  A    between atoms: C_6  and  C_7
REMARK    3  A    between atoms: C_7  and  C_8
REMARK    4  A    between atoms: C_8  and  C_9
REMARK    5  A    between atoms: C_16  and  N_17
REMARK    6  A    between atoms: N_17  and  C_18
REMARK    7  A    between atoms: N_17  and  C_19
REMARK                            x       y       z     vdW  Elec       q    Type
REMARK                         _______ _______ _______ _____ _____    ______ ____
ROOT
ATOM      1  C   UNL     1       5.024   3.651  18.664  0.00  0.00    +0.000 C 
ATOM      2  O   UNL     1       5.003   3.705  19.896  0.00  0.00    +0.000 OA
ATOM      3  N   UNL     1       6.081   4.172  17.896  0.00  0.00    +0.000 N 
ATOM      4  C   UNL     1       7.279   4.639  18.582  0.00  0.00    +0.000 C 
ATOM      5  C   UNL     1       7.275   6.153  18.748  0.00  0.00    +0.000 C 
ATOM      6  C   UNL     1       7.570   6.906  17.459  0.00  0.00    +0.000 C 
ATOM      7  C   UNL     1       6.628   6.597  16.294  0.00  0.00    +0.000 C 
ATOM      8  C   UNL     1       6.892   5.210  15.645  0.00  0.00    +0.000 C 
ATOM      9  C   UNL     1       6.081   4.131  16.424  0.00  0.00    +0.000 C 
ENDROOT
BRANCH   8  10
ATOM     10  N   UNL     1       6.516   5.201  14.191  0.00  0.00    +0.000 NA
ATOM     11  C   UNL     1       5.678   4.046  13.830  0.00  0.00    +0.000 C 
ATOM     12  C   UNL     1       7.687   5.189  13.302  0.00  0.00    +0.000 C 
ENDBRANCH   8  10
BRANCH   1  13
ATOM     13  C   UNL     1       3.914   2.986  17.868  0.00  0.00    +0.000 C 
BRANCH  13  14
ATOM     14  C   UNL     1       2.779   3.913  17.455  0.00  0.00    +0.000 C 
BRANCH  14  20
ATOM     15  C   UNL     1       1.163   3.529  20.336  0.00  0.00    +0.000 C 
ATOM     16  C   UNL     1       1.780   4.755  19.754  0.00  0.00    +0.000 A 
ATOM     17  N   UNL     1       1.691   5.913  20.521  0.00  0.00    +0.000 NA
ATOM     18  C   UNL     1       2.270   6.909  19.895  0.00  0.00    +0.000 A 
ATOM     19  S   UNL     1       2.975   6.537  18.386  0.00  0.00    +0.000 S 
ATOM     20  C   UNL     1       2.459   4.900  18.549  0.00  0.00    +0.000 A 
ENDBRANCH  14  20
ENDBRANCH  13  14
ENDBRANCH   1  13
TORSDOF 4
ENDMDL
MODEL 3
REMARK VINA RESULT:      -6.0      3.730      6.230
REMARK  Name = 
REMARK  7 active torsions:
REMARK  status: ('A' for Active; 'I' for Inactive)
REMARK    1  A    between atoms: C_1  and  C_2
REMARK    2  A    between atoms: C_6  and  C_7
REMARK    3  A    between atoms: C_7  and  C_8
REMARK    4  A    between atoms: C_8  and  C_9
REMARK    5  A    between atoms: C_16  and  N_17
REMARK    6  A    between atoms: N_17  and  C_18
REMARK    7  A    between atoms: N_17  and  C_19
REMARK                            x       y       z     vdW  Elec       q    Type
REMARK                         _______ _______ _______ _____ _____    ______ ____
ROOT
ATOM      1  C   UNL     1       3.149   7.549  18.024  0.00  0.00    +0.000 C 
ATOM      2  O   UNL     1       3.947   8.182  17.328  0.00  0.00    +0.000 OA
ATOM      3  N   UNL     1       3.371   6.218  18.419  0.00  0.00    +0.000 N 
ATOM      4  C   UNL     1       4.670   5.615  18.146  0.00  0.00    +0.000 C 
ATOM      5  C   UNL     1       4.632   4.744  16.897  0.00  0.00    +0.000 C 
ATOM      6  C   UNL     1       3.920   3.415  17.106  0.00  0.00    +0.000 C 
ATOM      7  C   UNL     1       2.479   3.519  17.605  0.00  0.00    +0.000 C 
ATOM      8  C   UNL     1       2.376   3.907  19.106  0.00  0.00    +0.000 C 
ATOM      9  C   UNL     1       2.398   5.461  19.223  0.00  0.00    +0.000 C 
ENDROOT
BRANCH   8  10
ATOM     10  N   UNL     1       1.133   3.349  19.737  0.00  0.00    +0.000 NA
ATOM     11  C   UNL     1       1.350   2.913  21.125  0.00  0.00    +0.000 C 
ATOM     12  C   UNL     1       0.585   2.203  18.996  0.00  0.00    +0.000 C 
ENDBRANCH   8  10
BRANCH   1  13
ATOM     13  C   UNL     1       1.862   8.169  18.540  0.00  0.00    +0.000 C 
BRANCH  13  14
ATOM     14  C   UNL     1       1.450   9.460  17.845  0.00  0.00    +0.000 C 
BRANCH  14  20
ATOM     15  C   UNL     1      -1.770   9.958  17.177  0.00  0.00    +0.000 C 
ATOM     16  C   UNL     1      -0.969  10.399  18.355  0.00  0.00    +0.000 A 
ATOM     17  N   UNL     1      -1.655  11.109  19.335  0.00  0.00    +0.000 NA
ATOM     18  C   UNL     1      -0.838  11.434  20.307  0.00  0.00    +0.000 A 
ATOM     19  S   UNL     1       0.775  10.900  20.139  0.00  0.00    +0.000 S 
ATOM     20  C   UNL     1       0.378  10.179  18.625  0.00  0.00    +0.000 A 
ENDBRANCH  14  20
ENDBRANCH  13  14
ENDBRANCH   1  13
TORSDOF 4
ENDMDL
MODEL 4
REMARK VINA RESULT:      -6.0      2.343      5.648
REMARK  Name = 
REMARK  7 active torsions:
REMARK  status: ('A' for Active; 'I' for Inactive)
REMARK    1  A    between atoms: C_1  and  C_2
REMARK    2  A    between atoms: C_6  and  C_7
REMARK    3  A    between atoms: C_7  and  C_8
REMARK    4  A    between atoms: C_8  and  C_9
REMARK    5  A    between atoms: C_16  and  N_17
REMARK    6  A    between atoms: N_17  and  C_18
REMARK    7  A    between atoms: N_17  and  C_19
REMARK                            x       y       z     vdW  Elec       q    Type
REMARK                         _______ _______ _______ _____ _____    ______ ____
ROOT
ATOM      1  C   UNL     1       5.072   3.654  18.579  0.00  0.00    +0.000 C 
ATOM      2  O   UNL     1       5.032   3.719  19.810  0.00  0.00    +0.000 OA
ATOM      3  N   UNL     1       6.135   4.176  17.821  0.00  0.00    +0.000 N 
ATOM      4  C   UNL     1       7.320   4.659  18.519  0.00  0.00    +0.000 C 
ATOM      5  C   UNL     1       7.301   6.174  18.670  0.00  0.00    +0.000 C 
ATOM      6  C   UNL     1       7.608   6.917  17.378  0.00  0.00    +0.000 C 
ATOM      7  C   UNL     1       6.686   6.589  16.203  0.00  0.00    +0.000 C 
ATOM      8  C   UNL     1       6.969   5.198  15.572  0.00  0.00    +0.000 C 
ATOM      9  C   UNL     1       6.157   4.120  16.350  0.00  0.00    +0.000 C 
ENDROOT
BRANCH   8  10
ATOM     10  N   UNL     1       6.615   5.172  14.112  0.00  0.00    +0.000 NA
ATOM     11  C   UNL     1       5.872   3.959  13.732  0.00  0.00    +0.000 C 
ATOM     12  C   UNL     1       7.795   5.255  13.239  0.00  0.00    +0.000 C 
ENDBRANCH   8  10
BRANCH   1  13
ATOM     13  C   UNL     1       3.979   2.972  17.773  0.00  0.00    +0.000 C 
BRANCH  13  14
ATOM     14  C   UNL     1       2.803   3.866  17.404  0.00  0.00    +0.000 C 
BRANCH  14  20
ATOM     15  C   UNL     1       3.408   7.106  17.852  0.00  0.00    +0.000 C 
ATOM     16  C   UNL     1       2.697   6.145  18.742  0.00  0.00    +0.000 A 
ATOM     17  N   UNL     1       2.192   6.663  19.931  0.00  0.00    +0.000 NA
ATOM     18  C   UNL     1       1.596   5.717  20.615  0.00  0.00    +0.000 A 
ATOM     19  S   UNL     1       1.570   4.172  19.889  0.00  0.00    +0.000 S 
ATOM     20  C   UNL     1       2.446   4.791  18.540  0.00  0.00    +0.000 A 
ENDBRANCH  14  20
ENDBRANCH  13  14
ENDBRANCH   1  13
TORSDOF 4
ENDMDL
MODEL 5
REMARK VINA RESULT:      -5.9      3.703      6.563
REMARK  Name = 
REMARK  7 active torsions:
REMARK  status: ('A' for Active; 'I' for Inactive)
REMARK    1  A    between atoms: C_1  and  C_2
REMARK    2  A    between atoms: C_6  and  C_7
REMARK    3  A    between atoms: C_7  and  C_8
REMARK    4  A    between atoms: C_8  and  C_9
REMARK    5  A    between atoms: C_16  and  N_17
REMARK    6  A    between atoms: N_17  and  C_18
REMARK    7  A    between atoms: N_17  and  C_19
REMARK                            x       y       z     vdW  Elec       q    Type
REMARK                         _______ _______ _______ _____ _____    ______ ____
ROOT
ATOM      1  C   UNL     1       1.924   8.214  19.104  0.00  0.00    +0.000 C 
ATOM      2  O   UNL     1       2.465   8.094  18.002  0.00  0.00    +0.000 OA
ATOM      3  N   UNL     1       1.093   9.300  19.432  0.00  0.00    +0.000 N 
ATOM      4  C   UNL     1       0.711  10.231  18.377  0.00  0.00    +0.000 C 
ATOM      5  C   UNL     1       1.571  11.487  18.402  0.00  0.00    +0.000 C 
ATOM      6  C   UNL     1       1.224  12.439  19.539  0.00  0.00    +0.000 C 
ATOM      7  C   UNL     1       1.301  11.834  20.941  0.00  0.00    +0.000 C 
ATOM      8  C   UNL     1       0.117  10.879  21.263  0.00  0.00    +0.000 C 
ATOM      9  C   UNL     1       0.477   9.449  20.761  0.00  0.00    +0.000 C 
ENDROOT
BRANCH   8  10
ATOM     10  N   UNL     1      -0.191  10.859  22.733  0.00  0.00    +0.000 NA
ATOM     11  C   UNL     1      -0.095   9.509  23.312  0.00  0.00    +0.000 C 
ATOM     12  C   UNL     1      -1.533  11.374  23.039  0.00  0.00    +0.000 C 
ENDBRANCH   8  10
BRANCH   1  13
ATOM     13  C   UNL     1       2.091   7.175  20.200  0.00  0.00    +0.000 C 
BRANCH  13  14
ATOM     14  C   UNL     1       3.012   6.014  19.847  0.00  0.00    +0.000 C 
BRANCH  14  20
ATOM     15  C   UNL     1       1.403   4.278  17.511  0.00  0.00    +0.000 C 
ATOM     16  C   UNL     1       1.600   3.964  18.955  0.00  0.00    +0.000 A 
ATOM     17  N   UNL     1       1.051   2.767  19.406  0.00  0.00    +0.000 NA
ATOM     18  C   UNL     1       1.296   2.617  20.685  0.00  0.00    +0.000 A 
ATOM     19  S   UNL     1       2.206   3.857  21.425  0.00  0.00    +0.000 S 
ATOM     20  C   UNL     1       2.280   4.698  19.921  0.00  0.00    +0.000 A 
ENDBRANCH  14  20
ENDBRANCH  13  14
ENDBRANCH   1  13
TORSDOF 4
ENDMDL
MODEL 6
REMARK VINA RESULT:      -5.9      0.929      1.260
REMARK  Name = 
REMARK  7 active torsions:
REMARK  status: ('A' for Active; 'I' for Inactive)
REMARK    1  A    between atoms: C_1  and  C_2
REMARK    2  A    between atoms: C_6  and  C_7
REMARK    3  A    between atoms: C_7  and  C_8
REMARK    4  A    between atoms: C_8  and  C_9
REMARK    5  A    between atoms: C_16  and  N_17
REMARK    6  A    between atoms: N_17  and  C_18
REMARK    7  A    between atoms: N_17  and  C_19
REMARK                            x       y       z     vdW  Elec       q    Type
REMARK                         _______ _______ _______ _____ _____    ______ ____
ROOT
ATOM      1  C   UNL     1       3.681   2.600  18.008  0.00  0.00    +0.000 C 
ATOM      2  O   UNL     1       3.636   1.369  17.946  0.00  0.00    +0.000 OA
ATOM      3  N   UNL     1       3.422   3.315  19.191  0.00  0.00    +0.000 N 
ATOM      4  C   UNL     1       3.264   2.571  20.435  0.00  0.00    +0.000 C 
ATOM      5  C   UNL     1       1.795   2.376  20.787  0.00  0.00    +0.000 C 
ATOM      6  C   UNL     1       1.123   3.637  21.310  0.00  0.00    +0.000 C 
ATOM      7  C   UNL     1       1.186   4.845  20.374  0.00  0.00    +0.000 C 
ATOM      8  C   UNL     1       2.589   5.510  20.326  0.00  0.00    +0.000 C 
ATOM      9  C   UNL     1       3.449   4.786  19.247  0.00  0.00    +0.000 C 
ENDROOT
BRANCH   8  10
ATOM     10  N   UNL     1       2.494   6.978  20.024  0.00  0.00    +0.000 NA
ATOM     11  C   UNL     1       1.382   7.630  20.733  0.00  0.00    +0.000 C 
ATOM     12  C   UNL     1       2.322   7.254  18.590  0.00  0.00    +0.000 C 
ENDBRANCH   8  10
BRANCH   1  13
ATOM     13  C   UNL     1       4.053   3.454  16.807  0.00  0.00    +0.000 C 
BRANCH  13  14
ATOM     14  C   UNL     1       5.472   3.252  16.293  0.00  0.00    +0.000 C 
BRANCH  14  20
ATOM     15  C   UNL     1       7.126   5.157  14.125  0.00  0.00    +0.000 C 
ATOM     16  C   UNL     1       7.007   5.293  15.605  0.00  0.00    +0.000 A 
ATOM     17  N   UNL     1       7.664   6.377  16.179  0.00  0.00    +0.000 NA
ATOM     18  C   UNL     1       7.479   6.377  17.477  0.00  0.00    +0.000 A 
ATOM     19  S   UNL     1       6.502   5.121  18.093  0.00  0.00    +0.000 S 
ATOM     20  C   UNL     1       6.307   4.491  16.500  0.00  0.00    +0.000 A 
ENDBRANCH  14  20
ENDBRANCH  13  14
ENDBRANCH   1  13
TORSDOF 4
ENDMDL
MODEL 7
REMARK VINA RESULT:      -5.9      1.009      1.417
REMARK  Name = 
REMARK  7 active torsions:
REMARK  status: ('A' for Active; 'I' for Inactive)
REMARK    1  A    between atoms: C_1  and  C_2
REMARK    2  A    between atoms: C_6  and  C_7
REMARK    3  A    between atoms: C_7  and  C_8
REMARK    4  A    between atoms: C_8  and  C_9
REMARK    5  A    between atoms: C_16  and  N_17
REMARK    6  A    between atoms: N_17  and  C_18
REMARK    7  A    between atoms: N_17  and  C_19
REMARK                            x       y       z     vdW  Elec       q    Type
REMARK                         _______ _______ _______ _____ _____    ______ ____
ROOT
ATOM      1  C   UNL     1       3.803   2.839  17.913  0.00  0.00    +0.000 C 
ATOM      2  O   UNL     1       4.072   1.636  17.889  0.00  0.00    +0.000 OA
ATOM      3  N   UNL     1       3.460   3.521  19.094  0.00  0.00    +0.000 N 
ATOM      4  C   UNL     1       3.595   2.824  20.367  0.00  0.00    +0.000 C 
ATOM      5  C   UNL     1       2.258   2.278  20.851  0.00  0.00    +0.000 C 
ATOM      6  C   UNL     1       1.325   3.350  21.395  0.00  0.00    +0.000 C 
ATOM      7  C   UNL     1       1.002   4.487  20.424  0.00  0.00    +0.000 C 
ATOM      8  C   UNL     1       2.179   5.484  20.235  0.00  0.00    +0.000 C 
ATOM      9  C   UNL     1       3.110   4.951  19.106  0.00  0.00    +0.000 C 
ENDROOT
BRANCH   8  10
ATOM     10  N   UNL     1       1.685   6.863  19.902  0.00  0.00    +0.000 NA
ATOM     11  C   UNL     1       2.509   7.528  18.880  0.00  0.00    +0.000 C 
ATOM     12  C   UNL     1       1.640   7.750  21.074  0.00  0.00    +0.000 C 
ENDBRANCH   8  10
BRANCH   1  13
ATOM     13  C   UNL     1       3.848   3.700  16.661  0.00  0.00    +0.000 C 
BRANCH  13  14
ATOM     14  C   UNL     1       5.240   3.918  16.084  0.00  0.00    +0.000 C 
BRANCH  14  20
ATOM     15  C   UNL     1       7.965   4.405  17.927  0.00  0.00    +0.000 C 
ATOM     16  C   UNL     1       6.993   5.402  17.396  0.00  0.00    +0.000 A 
ATOM     17  N   UNL     1       7.255   6.736  17.691  0.00  0.00    +0.000 NA
ATOM     18  C   UNL     1       6.328   7.501  17.168  0.00  0.00    +0.000 A 
ATOM     19  S   UNL     1       5.111   6.700  16.278  0.00  0.00    +0.000 S 
ATOM     20  C   UNL     1       5.858   5.185  16.621  0.00  0.00    +0.000 A 
ENDBRANCH  14  20
ENDBRANCH  13  14
ENDBRANCH   1  13
TORSDOF 4
ENDMDL
MODEL 8
REMARK VINA RESULT:      -5.9      2.691      5.976
REMARK  Name = 
REMARK  7 active torsions:
REMARK  status: ('A' for Active; 'I' for Inactive)
REMARK    1  A    between atoms: C_1  and  C_2
REMARK    2  A    between atoms: C_6  and  C_7
REMARK    3  A    between atoms: C_7  and  C_8
REMARK    4  A    between atoms: C_8  and  C_9
REMARK    5  A    between atoms: C_16  and  N_17
REMARK    6  A    between atoms: N_17  and  C_18
REMARK    7  A    between atoms: N_17  and  C_19
REMARK                            x       y       z     vdW  Elec       q    Type
REMARK                         _______ _______ _______ _____ _____    ______ ____
ROOT
ATOM      1  C   UNL     1       3.640   5.565  18.850  0.00  0.00    +0.000 C 
ATOM      2  O   UNL     1       3.530   5.745  20.066  0.00  0.00    +0.000 OA
ATOM      3  N   UNL     1       4.835   5.136  18.248  0.00  0.00    +0.000 N 
ATOM      4  C   UNL     1       5.939   4.719  19.104  0.00  0.00    +0.000 C 
ATOM      5  C   UNL     1       6.970   5.828  19.269  0.00  0.00    +0.000 C 
ATOM      6  C   UNL     1       7.840   6.035  18.037  0.00  0.00    +0.000 C 
ATOM      7  C   UNL     1       7.080   6.339  16.746  0.00  0.00    +0.000 C 
ATOM      8  C   UNL     1       6.374   5.094  16.143  0.00  0.00    +0.000 C 
ATOM      9  C   UNL     1       4.965   4.954  16.793  0.00  0.00    +0.000 C 
ENDROOT
BRANCH   8  10
ATOM     10  N   UNL     1       6.256   5.195  14.649  0.00  0.00    +0.000 NA
ATOM     11  C   UNL     1       5.465   4.098  14.068  0.00  0.00    +0.000 C 
ATOM     12  C   UNL     1       7.563   5.200  13.974  0.00  0.00    +0.000 C 
ENDBRANCH   8  10
BRANCH   1  13
ATOM     13  C   UNL     1       2.473   5.767  17.898  0.00  0.00    +0.000 C 
BRANCH  13  14
ATOM     14  C   UNL     1       1.579   4.548  17.714  0.00  0.00    +0.000 C 
BRANCH  14  20
ATOM     15  C   UNL     1       3.356   1.767  18.128  0.00  0.00    +0.000 C 
ATOM     16  C   UNL     1       2.423   2.443  19.075  0.00  0.00    +0.000 A 
ATOM     17  N   UNL     1       2.274   1.847  20.323  0.00  0.00    +0.000 NA
ATOM     18  C   UNL     1       1.431   2.539  21.051  0.00  0.00    +0.000 A 
ATOM     19  S   UNL     1       0.787   3.942  20.322  0.00  0.00    +0.000 S 
ATOM     20  C   UNL     1       1.689   3.611  18.890  0.00  0.00    +0.000 A 
ENDBRANCH  14  20
ENDBRANCH  13  14
ENDBRANCH   1  13
TORSDOF 4
ENDMDL
MODEL 9
REMARK VINA RESULT:      -5.9      2.861      5.719
REMARK  Name = 
REMARK  7 active torsions:
REMARK  status: ('A' for Active; 'I' for Inactive)
REMARK    1  A    between atoms: C_1  and  C_2
REMARK    2  A    between atoms: C_6  and  C_7
REMARK    3  A    between atoms: C_7  and  C_8
REMARK    4  A    between atoms: C_8  and  C_9
REMARK    5  A    between atoms: C_16  and  N_17
REMARK    6  A    between atoms: N_17  and  C_18
REMARK    7  A    between atoms: N_17  and  C_19
REMARK                            x       y       z     vdW  Elec       q    Type
REMARK                         _______ _______ _______ _____ _____    ______ ____
ROOT
ATOM      1  C   UNL     1       1.718   5.301  19.880  0.00  0.00    +0.000 C 
ATOM      2  O   UNL     1       0.960   4.827  20.730  0.00  0.00    +0.000 OA
ATOM      3  N   UNL     1       2.111   4.594  18.730  0.00  0.00    +0.000 N 
ATOM      4  C   UNL     1       1.465   3.320  18.438  0.00  0.00    +0.000 C 
ATOM      5  C   UNL     1       2.323   2.143  18.883  0.00  0.00    +0.000 C 
ATOM      6  C   UNL     1       3.518   1.885  17.977  0.00  0.00    +0.000 C 
ATOM      7  C   UNL     1       4.469   3.070  17.800  0.00  0.00    +0.000 C 
ATOM      8  C   UNL     1       3.898   4.181  16.876  0.00  0.00    +0.000 C 
ATOM      9  C   UNL     1       3.041   5.157  17.737  0.00  0.00    +0.000 C 
ENDROOT
BRANCH   8  10
ATOM     10  N   UNL     1       4.994   4.927  16.169  0.00  0.00    +0.000 NA
ATOM     11  C   UNL     1       6.284   4.221  16.222  0.00  0.00    +0.000 C 
ATOM     12  C   UNL     1       5.208   6.275  16.716  0.00  0.00    +0.000 C 
ENDBRANCH   8  10
BRANCH   1  13
ATOM     13  C   UNL     1       2.273   6.711  19.991  0.00  0.00    +0.000 C 
BRANCH  13  14
ATOM     14  C   UNL     1       1.518   7.621  20.951  0.00  0.00    +0.000 C 
BRANCH  14  20
ATOM     15  C   UNL     1      -0.084  10.289  22.124  0.00  0.00    +0.000 C 
ATOM     16  C   UNL     1       0.455  10.035  20.758  0.00  0.00    +0.000 A 
ATOM     17  N   UNL     1       0.287  11.057  19.829  0.00  0.00    +0.000 NA
ATOM     18  C   UNL     1       0.804  10.704  18.677  0.00  0.00    +0.000 A 
ATOM     19  S   UNL     1       1.539   9.165  18.626  0.00  0.00    +0.000 S 
ATOM     20  C   UNL     1       1.129   8.915  20.282  0.00  0.00    +0.000 A 
ENDBRANCH  14  20
ENDBRANCH  13  14
ENDBRANCH   1  13
TORSDOF 4
ENDMDL
