MODEL 1
REMARK VINA RESULT:      -8.7      0.000      0.000
REMARK  Name = 
REMARK  12 active torsions:
REMARK  status: ('A' for Active; 'I' for Inactive)
REMARK    1  A    between atoms: C_1  and  O_2
REMARK    2  A    between atoms: O_2  and  C_3
REMARK    3  A    between atoms: C_3  and  C_4
REMARK    4  A    between atoms: C_4  and  N_5
REMARK    5  A    between atoms: C_6  and  C_8
REMARK    6  A    between atoms: C_8  and  C_9
REMARK    7  A    between atoms: C_8  and  N_15
REMARK    8  A    between atoms: C_12  and  C_13
REMARK    9  A    between atoms: N_15  and  C_16
REMARK   10  A    between atoms: C_16  and  C_17
REMARK   11  A    between atoms: C_23  and  C_25
REMARK   12  A    between atoms: C_25  and  N_26
REMARK                            x       y       z     vdW  Elec       q    Type
REMARK                         _______ _______ _______ _____ _____    ______ ____
ROOT
ATOM      1  N   UNL     1       3.932   6.711  17.975  0.00  0.00    +0.000 N 
ATOM      2  C   UNL     1       2.903   7.735  18.095  0.00  0.00    +0.000 C 
ATOM      3  O   UNL     1       2.748   8.590  17.211  0.00  0.00    +0.000 OA
ENDROOT
BRANCH   1   4
ATOM      4  C   UNL     1       5.113   6.770  16.844  0.00  0.00    +0.000 C 
BRANCH   4   5
ATOM      5  C   UNL     1       5.340   5.450  16.166  0.00  0.00    +0.000 A 
ATOM      6  C   UNL     1       5.548   4.165  16.644  0.00  0.00    +0.000 A 
ATOM      7  C   UNL     1       5.791   3.349  15.525  0.00  0.00    +0.000 A 
ATOM      8  C   UNL     1       5.698   4.163  14.424  0.00  0.00    +0.000 A 
ATOM      9  C   UNL     1       5.789   3.888  12.978  0.00  0.00    +0.000 C 
ATOM     10  O   UNL     1       5.454   5.453  14.802  0.00  0.00    +0.000 OA
ENDBRANCH   4   5
BRANCH   4  12
ATOM     11  N   UNL     1       7.019   8.407  17.792  0.00  0.00    +0.000 N 
ATOM     12  C   UNL     1       6.672   7.224  17.139  0.00  0.00    +0.000 C 
ATOM     13  O   UNL     1       7.622   6.510  16.697  0.00  0.00    +0.000 OA
ATOM     14  H   UNL     1       6.313   9.154  17.902  0.00  0.00    +0.000 HD
BRANCH  11  15
ATOM     15  C   UNL     1       8.425   8.834  18.001  0.00  0.00    +0.000 C 
BRANCH  15  16
ATOM     16  C   UNL     1       8.625  10.259  18.564  0.00  0.00    +0.000 C 
BRANCH  16  18
ATOM     17  C   UNL     1      10.178  12.052  18.574  0.00  0.00    +0.000 C 
ATOM     18  O   UNL     1       9.711  10.897  17.878  0.00  0.00    +0.000 OA
ENDBRANCH  16  18
ENDBRANCH  15  16
ENDBRANCH  11  15
ENDBRANCH   4  12
ENDBRANCH   1   4
BRANCH   1  19
ATOM     19  C   UNL     1       4.032   5.728  19.073  0.00  0.00    +0.000 C 
BRANCH  19  20
ATOM     20  C   UNL     1       2.954   4.677  19.315  0.00  0.00    +0.000 A 
ATOM     21  C   UNL     1       2.458   4.422  20.608  0.00  0.00    +0.000 A 
ATOM     22  C   UNL     1       1.377   3.547  20.817  0.00  0.00    +0.000 A 
ATOM     23  C   UNL     1       0.780   2.895  19.745  0.00  0.00    +0.000 A 
ATOM     24  C   UNL     1       1.253   3.122  18.458  0.00  0.00    +0.000 A 
ATOM     25  C   UNL     1       2.308   4.025  18.240  0.00  0.00    +0.000 A 
ENDBRANCH  19  20
ENDBRANCH   1  19
BRANCH   2  26
ATOM     26  C   UNL     1       1.811   7.787  19.240  0.00  0.00    +0.000 C 
BRANCH  26  27
ATOM     27  N   UNL     1       1.250   9.079  19.794  0.00  0.00    +0.000 N 
ATOM     28  N   UNL     1       1.387  10.105  18.884  0.00  0.00    +0.000 NA
ATOM     29  N   UNL     1       0.936  11.217  19.401  0.00  0.00    +0.000 NA
ATOM     30  C   UNL     1       0.413  10.956  20.611  0.00  0.00    +0.000 A 
ATOM     31  C   UNL     1      -0.263  11.851  21.469  0.00  0.00    +0.000 A 
ATOM     32  C   UNL     1      -0.809  11.413  22.672  0.00  0.00    +0.000 A 
ATOM     33  C   UNL     1      -0.630  10.096  23.027  0.00  0.00    +0.000 A 
ATOM     34  C   UNL     1       0.101   9.162  22.202  0.00  0.00    +0.000 A 
ATOM     35  C   UNL     1       0.599   9.591  20.942  0.00  0.00    +0.000 A 
ENDBRANCH  26  27
ENDBRANCH   2  26
TORSDOF 10
ENDMDL
MODEL 2
REMARK VINA RESULT:      -8.6      0.935      1.649
REMARK  Name = 
REMARK  12 active torsions:
REMARK  status: ('A' for Active; 'I' for Inactive)
REMARK    1  A    between atoms: C_1  and  O_2
REMARK    2  A    between atoms: O_2  and  C_3
REMARK    3  A    between atoms: C_3  and  C_4
REMARK    4  A    between atoms: C_4  and  N_5
REMARK    5  A    between atoms: C_6  and  C_8
REMARK    6  A    between atoms: C_8  and  C_9
REMARK    7  A    between atoms: C_8  and  N_15
REMARK    8  A    between atoms: C_12  and  C_13
REMARK    9  A    between atoms: N_15  and  C_16
REMARK   10  A    between atoms: C_16  and  C_17
REMARK   11  A    between atoms: C_23  and  C_25
REMARK   12  A    between atoms: C_25  and  N_26
REMARK                            x       y       z     vdW  Elec       q    Type
REMARK                         _______ _______ _______ _____ _____    ______ ____
ROOT
ATOM      1  N   UNL     1       3.870   6.704  18.125  0.00  0.00    +0.000 N 
ATOM      2  C   UNL     1       2.848   7.731  18.276  0.00  0.00    +0.000 C 
ATOM      3  O   UNL     1       2.740   8.648  17.451  0.00  0.00    +0.000 OA
ENDROOT
BRANCH   1   4
ATOM      4  C   UNL     1       5.100   6.828  17.053  0.00  0.00    +0.000 C 
BRANCH   4   5
ATOM      5  C   UNL     1       5.337   5.559  16.287  0.00  0.00    +0.000 A 
ATOM      6  C   UNL     1       5.200   4.219  16.612  0.00  0.00    +0.000 A 
ATOM      7  C   UNL     1       5.663   3.482  15.507  0.00  0.00    +0.000 A 
ATOM      8  C   UNL     1       6.038   4.400  14.558  0.00  0.00    +0.000 A 
ATOM      9  C   UNL     1       6.538   4.252  13.179  0.00  0.00    +0.000 C 
ATOM     10  O   UNL     1       5.873   5.671  15.032  0.00  0.00    +0.000 OA
ENDBRANCH   4   5
BRANCH   4  12
ATOM     11  N   UNL     1       7.145   8.535  17.389  0.00  0.00    +0.000 N 
ATOM     12  C   UNL     1       6.650   7.232  17.447  0.00  0.00    +0.000 C 
ATOM     13  O   UNL     1       7.472   6.316  17.755  0.00  0.00    +0.000 OA
ATOM     14  H   UNL     1       6.620   9.256  16.868  0.00  0.00    +0.000 HD
BRANCH  11  15
ATOM     15  C   UNL     1       8.557   8.879  17.689  0.00  0.00    +0.000 C 
BRANCH  15  16
ATOM     16  C   UNL     1       8.777  10.045  18.678  0.00  0.00    +0.000 C 
BRANCH  16  18
ATOM     17  C   UNL     1      10.551  11.526  18.145  0.00  0.00    +0.000 C 
ATOM     18  O   UNL     1       9.172  11.219  17.954  0.00  0.00    +0.000 OA
ENDBRANCH  16  18
ENDBRANCH  15  16
ENDBRANCH  11  15
ENDBRANCH   4  12
ENDBRANCH   1   4
BRANCH   1  19
ATOM     19  C   UNL     1       3.911   5.643  19.153  0.00  0.00    +0.000 C 
BRANCH  19  20
ATOM     20  C   UNL     1       2.755   4.671  19.357  0.00  0.00    +0.000 A 
ATOM     21  C   UNL     1       2.164   3.999  18.270  0.00  0.00    +0.000 A 
ATOM     22  C   UNL     1       1.185   3.009  18.468  0.00  0.00    +0.000 A 
ATOM     23  C   UNL     1       0.762   2.682  19.750  0.00  0.00    +0.000 A 
ATOM     24  C   UNL     1       1.322   3.334  20.841  0.00  0.00    +0.000 A 
ATOM     25  C   UNL     1       2.329   4.296  20.651  0.00  0.00    +0.000 A 
ENDBRANCH  19  20
ENDBRANCH   1  19
BRANCH   2  26
ATOM     26  C   UNL     1       1.707   7.715  19.375  0.00  0.00    +0.000 C 
BRANCH  26  27
ATOM     27  N   UNL     1       1.128   8.972  19.988  0.00  0.00    +0.000 N 
ATOM     28  N   UNL     1       1.480   9.080  21.315  0.00  0.00    +0.000 NA
ATOM     29  N   UNL     1       0.934  10.148  21.832  0.00  0.00    +0.000 NA
ATOM     30  C   UNL     1       0.288  10.820  20.865  0.00  0.00    +0.000 A 
ATOM     31  C   UNL     1      -0.358  12.071  20.968  0.00  0.00    +0.000 A 
ATOM     32  C   UNL     1      -0.932  12.674  19.852  0.00  0.00    +0.000 A 
ATOM     33  C   UNL     1      -0.898  11.996  18.656  0.00  0.00    +0.000 A 
ATOM     34  C   UNL     1      -0.293  10.690  18.520  0.00  0.00    +0.000 A 
ATOM     35  C   UNL     1       0.353  10.106  19.643  0.00  0.00    +0.000 A 
ENDBRANCH  26  27
ENDBRANCH   2  26
TORSDOF 10
ENDMDL
MODEL 3
REMARK VINA RESULT:      -8.5      2.297      3.304
REMARK  Name = 
REMARK  12 active torsions:
REMARK  status: ('A' for Active; 'I' for Inactive)
REMARK    1  A    between atoms: C_1  and  O_2
REMARK    2  A    between atoms: O_2  and  C_3
REMARK    3  A    between atoms: C_3  and  C_4
REMARK    4  A    between atoms: C_4  and  N_5
REMARK    5  A    between atoms: C_6  and  C_8
REMARK    6  A    between atoms: C_8  and  C_9
REMARK    7  A    between atoms: C_8  and  N_15
REMARK    8  A    between atoms: C_12  and  C_13
REMARK    9  A    between atoms: N_15  and  C_16
REMARK   10  A    between atoms: C_16  and  C_17
REMARK   11  A    between atoms: C_23  and  C_25
REMARK   12  A    between atoms: C_25  and  N_26
REMARK                            x       y       z     vdW  Elec       q    Type
REMARK                         _______ _______ _______ _____ _____    ______ ____
ROOT
ATOM      1  N   UNL     1       2.584   6.925  18.749  0.00  0.00    +0.000 N 
ATOM      2  C   UNL     1       2.066   8.269  18.530  0.00  0.00    +0.000 C 
ATOM      3  O   UNL     1       2.001   8.748  17.389  0.00  0.00    +0.000 OA
ENDROOT
BRANCH   1   4
ATOM      4  C   UNL     1       3.362   6.075  17.588  0.00  0.00    +0.000 C 
BRANCH   4   5
ATOM      5  C   UNL     1       2.964   4.627  17.559  0.00  0.00    +0.000 A 
ATOM      6  C   UNL     1       1.785   3.977  17.230  0.00  0.00    +0.000 A 
ATOM      7  C   UNL     1       1.990   2.609  17.484  0.00  0.00    +0.000 A 
ATOM      8  C   UNL     1       3.282   2.487  17.931  0.00  0.00    +0.000 A 
ATOM      9  C   UNL     1       4.097   1.313  18.296  0.00  0.00    +0.000 C 
ATOM     10  O   UNL     1       3.878   3.713  18.010  0.00  0.00    +0.000 OA
ENDBRANCH   4   5
BRANCH   4  12
ATOM     11  N   UNL     1       5.836   5.695  18.560  0.00  0.00    +0.000 N 
ATOM     12  C   UNL     1       5.002   5.935  17.467  0.00  0.00    +0.000 C 
ATOM     13  O   UNL     1       5.561   6.121  16.344  0.00  0.00    +0.000 OA
ATOM     14  H   UNL     1       5.474   5.834  19.517  0.00  0.00    +0.000 HD
BRANCH  11  15
ATOM     15  C   UNL     1       7.315   5.630  18.449  0.00  0.00    +0.000 C 
BRANCH  15  16
ATOM     16  C   UNL     1       8.075   6.946  18.724  0.00  0.00    +0.000 C 
BRANCH  16  18
ATOM     17  C   UNL     1       8.096   9.183  17.938  0.00  0.00    +0.000 C 
ATOM     18  O   UNL     1       7.970   7.808  17.582  0.00  0.00    +0.000 OA
ENDBRANCH  16  18
ENDBRANCH  15  16
ENDBRANCH  11  15
ENDBRANCH   4  12
ENDBRANCH   1   4
BRANCH   1  19
ATOM     19  C   UNL     1       2.610   6.436  20.144  0.00  0.00    +0.000 C 
BRANCH  19  20
ATOM     20  C   UNL     1       2.225   5.006  20.504  0.00  0.00    +0.000 A 
ATOM     21  C   UNL     1       3.136   4.140  21.138  0.00  0.00    +0.000 A 
ATOM     22  C   UNL     1       2.743   2.866  21.585  0.00  0.00    +0.000 A 
ATOM     23  C   UNL     1       1.440   2.421  21.394  0.00  0.00    +0.000 A 
ATOM     24  C   UNL     1       0.521   3.252  20.764  0.00  0.00    +0.000 A 
ATOM     25  C   UNL     1       0.899   4.541  20.350  0.00  0.00    +0.000 A 
ENDBRANCH  19  20
ENDBRANCH   1  19
BRANCH   2  26
ATOM     26  C   UNL     1       1.411   9.178  19.649  0.00  0.00    +0.000 C 
BRANCH  26  27
ATOM     27  N   UNL     1       0.156   9.994  19.426  0.00  0.00    +0.000 N 
ATOM     28  N   UNL     1      -0.049  10.876  20.464  0.00  0.00    +0.000 NA
ATOM     29  N   UNL     1      -1.159  11.537  20.270  0.00  0.00    +0.000 NA
ATOM     30  C   UNL     1      -1.672  11.189  19.078  0.00  0.00    +0.000 A 
ATOM     31  C   UNL     1      -2.809  11.729  18.437  0.00  0.00    +0.000 A 
ATOM     32  C   UNL     1      -3.180  11.306  17.164  0.00  0.00    +0.000 A 
ATOM     33  C   UNL     1      -2.441  10.312  16.566  0.00  0.00    +0.000 A 
ATOM     34  C   UNL     1      -1.304   9.696  17.210  0.00  0.00    +0.000 A 
ATOM     35  C   UNL     1      -0.882  10.175  18.480  0.00  0.00    +0.000 A 
ENDBRANCH  26  27
ENDBRANCH   2  26
TORSDOF 10
ENDMDL
MODEL 4
REMARK VINA RESULT:      -8.4      1.950      4.596
REMARK  Name = 
REMARK  12 active torsions:
REMARK  status: ('A' for Active; 'I' for Inactive)
REMARK    1  A    between atoms: C_1  and  O_2
REMARK    2  A    between atoms: O_2  and  C_3
REMARK    3  A    between atoms: C_3  and  C_4
REMARK    4  A    between atoms: C_4  and  N_5
REMARK    5  A    between atoms: C_6  and  C_8
REMARK    6  A    between atoms: C_8  and  C_9
REMARK    7  A    between atoms: C_8  and  N_15
REMARK    8  A    between atoms: C_12  and  C_13
REMARK    9  A    between atoms: N_15  and  C_16
REMARK   10  A    between atoms: C_16  and  C_17
REMARK   11  A    between atoms: C_23  and  C_25
REMARK   12  A    between atoms: C_25  and  N_26
REMARK                            x       y       z     vdW  Elec       q    Type
REMARK                         _______ _______ _______ _____ _____    ______ ____
ROOT
ATOM      1  N   UNL     1       4.042   4.851  17.360  0.00  0.00    +0.000 N 
ATOM      2  C   UNL     1       3.659   6.231  17.630  0.00  0.00    +0.000 C 
ATOM      3  O   UNL     1       4.447   7.164  17.418  0.00  0.00    +0.000 OA
ENDROOT
BRANCH   1   4
ATOM      4  C   UNL     1       5.583   4.406  17.037  0.00  0.00    +0.000 C 
BRANCH   4   5
ATOM      5  C   UNL     1       6.598   5.274  17.725  0.00  0.00    +0.000 A 
ATOM      6  C   UNL     1       7.378   5.101  18.857  0.00  0.00    +0.000 A 
ATOM      7  C   UNL     1       8.075   6.305  19.060  0.00  0.00    +0.000 A 
ATOM      8  C   UNL     1       7.707   7.143  18.037  0.00  0.00    +0.000 A 
ATOM      9  C   UNL     1       8.138   8.504  17.667  0.00  0.00    +0.000 C 
ATOM     10  O   UNL     1       6.784   6.538  17.233  0.00  0.00    +0.000 OA
ENDBRANCH   4   5
BRANCH   4  12
ATOM     11  N   UNL     1       5.530   3.900  14.401  0.00  0.00    +0.000 N 
ATOM     12  C   UNL     1       6.239   4.325  15.525  0.00  0.00    +0.000 C 
ATOM     13  O   UNL     1       7.469   4.589  15.365  0.00  0.00    +0.000 OA
ATOM     14  H   UNL     1       4.636   3.396  14.523  0.00  0.00    +0.000 HD
BRANCH  11  15
ATOM     15  C   UNL     1       6.146   3.775  13.056  0.00  0.00    +0.000 C 
BRANCH  15  16
ATOM     16  C   UNL     1       5.252   3.161  11.955  0.00  0.00    +0.000 C 
BRANCH  16  18
ATOM     17  C   UNL     1       7.297   2.146  11.310  0.00  0.00    +0.000 C 
ATOM     18  O   UNL     1       5.884   1.987  11.424  0.00  0.00    +0.000 OA
ENDBRANCH  16  18
ENDBRANCH  15  16
ENDBRANCH  11  15
ENDBRANCH   4  12
ENDBRANCH   1   4
BRANCH   1  19
ATOM     19  C   UNL     1       3.030   3.809  17.631  0.00  0.00    +0.000 C 
BRANCH  19  20
ATOM     20  C   UNL     1       2.579   3.473  19.047  0.00  0.00    +0.000 A 
ATOM     21  C   UNL     1       1.213   3.399  19.382  0.00  0.00    +0.000 A 
ATOM     22  C   UNL     1       0.795   2.965  20.652  0.00  0.00    +0.000 A 
ATOM     23  C   UNL     1       1.727   2.613  21.620  0.00  0.00    +0.000 A 
ATOM     24  C   UNL     1       3.082   2.682  21.321  0.00  0.00    +0.000 A 
ATOM     25  C   UNL     1       3.505   3.079  20.040  0.00  0.00    +0.000 A 
ENDBRANCH  19  20
ENDBRANCH   1  19
BRANCH   2  26
ATOM     26  C   UNL     1       2.208   6.697  18.061  0.00  0.00    +0.000 C 
BRANCH  26  27
ATOM     27  N   UNL     1       1.877   8.121  18.454  0.00  0.00    +0.000 N 
ATOM     28  N   UNL     1       2.050   8.979  17.390  0.00  0.00    +0.000 NA
ATOM     29  N   UNL     1       1.800  10.205  17.765  0.00  0.00    +0.000 NA
ATOM     30  C   UNL     1       1.376  10.193  19.039  0.00  0.00    +0.000 A 
ATOM     31  C   UNL     1       0.911  11.287  19.803  0.00  0.00    +0.000 A 
ATOM     32  C   UNL     1       0.440  11.104  21.100  0.00  0.00    +0.000 A 
ATOM     33  C   UNL     1       0.485   9.839  21.637  0.00  0.00    +0.000 A 
ATOM     34  C   UNL     1       1.002   8.703  20.908  0.00  0.00    +0.000 A 
ATOM     35  C   UNL     1       1.418   8.876  19.560  0.00  0.00    +0.000 A 
ENDBRANCH  26  27
ENDBRANCH   2  26
TORSDOF 10
ENDMDL
MODEL 5
REMARK VINA RESULT:      -8.4      2.805      4.211
REMARK  Name = 
REMARK  12 active torsions:
REMARK  status: ('A' for Active; 'I' for Inactive)
REMARK    1  A    between atoms: C_1  and  O_2
REMARK    2  A    between atoms: O_2  and  C_3
REMARK    3  A    between atoms: C_3  and  C_4
REMARK    4  A    between atoms: C_4  and  N_5
REMARK    5  A    between atoms: C_6  and  C_8
REMARK    6  A    between atoms: C_8  and  C_9
REMARK    7  A    between atoms: C_8  and  N_15
REMARK    8  A    between atoms: C_12  and  C_13
REMARK    9  A    between atoms: N_15  and  C_16
REMARK   10  A    between atoms: C_16  and  C_17
REMARK   11  A    between atoms: C_23  and  C_25
REMARK   12  A    between atoms: C_25  and  N_26
REMARK                            x       y       z     vdW  Elec       q    Type
REMARK                         _______ _______ _______ _____ _____    ______ ____
ROOT
ATOM      1  N   UNL     1       2.606   6.852  18.680  0.00  0.00    +0.000 N 
ATOM      2  C   UNL     1       2.033   8.182  18.522  0.00  0.00    +0.000 C 
ATOM      3  O   UNL     1       1.818   8.654  17.397  0.00  0.00    +0.000 OA
ENDROOT
BRANCH   1   4
ATOM      4  C   UNL     1       3.258   6.015  17.434  0.00  0.00    +0.000 C 
BRANCH   4   5
ATOM      5  C   UNL     1       3.052   4.532  17.555  0.00  0.00    +0.000 A 
ATOM      6  C   UNL     1       2.046   3.679  17.129  0.00  0.00    +0.000 A 
ATOM      7  C   UNL     1       2.362   2.400  17.618  0.00  0.00    +0.000 A 
ATOM      8  C   UNL     1       3.549   2.526  18.296  0.00  0.00    +0.000 A 
ATOM      9  C   UNL     1       4.414   1.541  18.970  0.00  0.00    +0.000 C 
ATOM     10  O   UNL     1       3.965   3.827  18.292  0.00  0.00    +0.000 OA
ENDBRANCH   4   5
BRANCH   4  12
ATOM     11  N   UNL     1       5.378   5.346  15.929  0.00  0.00    +0.000 N 
ATOM     12  C   UNL     1       4.851   6.059  17.006  0.00  0.00    +0.000 C 
ATOM     13  O   UNL     1       5.669   6.712  17.722  0.00  0.00    +0.000 OA
ATOM     14  H   UNL     1       4.829   4.580  15.508  0.00  0.00    +0.000 HD
BRANCH  11  15
ATOM     15  C   UNL     1       6.823   5.347  15.588  0.00  0.00    +0.000 C 
BRANCH  15  16
ATOM     16  C   UNL     1       7.224   4.548  14.328  0.00  0.00    +0.000 C 
BRANCH  16  18
ATOM     17  C   UNL     1       6.296   3.486  12.421  0.00  0.00    +0.000 C 
ATOM     18  O   UNL     1       6.056   3.948  13.749  0.00  0.00    +0.000 OA
ENDBRANCH  16  18
ENDBRANCH  15  16
ENDBRANCH  11  15
ENDBRANCH   4  12
ENDBRANCH   1   4
BRANCH   1  19
ATOM     19  C   UNL     1       2.812   6.370  20.062  0.00  0.00    +0.000 C 
BRANCH  19  20
ATOM     20  C   UNL     1       2.184   5.077  20.567  0.00  0.00    +0.000 A 
ATOM     21  C   UNL     1       0.941   4.628  20.080  0.00  0.00    +0.000 A 
ATOM     22  C   UNL     1       0.421   3.375  20.449  0.00  0.00    +0.000 A 
ATOM     23  C   UNL     1       1.119   2.551  21.324  0.00  0.00    +0.000 A 
ATOM     24  C   UNL     1       2.345   2.970  21.825  0.00  0.00    +0.000 A 
ATOM     25  C   UNL     1       2.887   4.205  21.429  0.00  0.00    +0.000 A 
ENDBRANCH  19  20
ENDBRANCH   1  19
BRANCH   2  26
ATOM     26  C   UNL     1       1.497   9.080  19.711  0.00  0.00    +0.000 C 
BRANCH  26  27
ATOM     27  N   UNL     1       0.265   9.953  19.600  0.00  0.00    +0.000 N 
ATOM     28  N   UNL     1       0.163  10.800  20.682  0.00  0.00    +0.000 NA
ATOM     29  N   UNL     1      -0.929  11.512  20.586  0.00  0.00    +0.000 NA
ATOM     30  C   UNL     1      -1.530  11.232  19.417  0.00  0.00    +0.000 A 
ATOM     31  C   UNL     1      -2.682  11.842  18.873  0.00  0.00    +0.000 A 
ATOM     32  C   UNL     1      -3.151  11.485  17.611  0.00  0.00    +0.000 A 
ATOM     33  C   UNL     1      -2.493  10.488  16.930  0.00  0.00    +0.000 A 
ATOM     34  C   UNL     1      -1.344   9.802  17.475  0.00  0.00    +0.000 A 
ATOM     35  C   UNL     1      -0.823  10.213  18.732  0.00  0.00    +0.000 A 
ENDBRANCH  26  27
ENDBRANCH   2  26
TORSDOF 10
ENDMDL
MODEL 6
REMARK VINA RESULT:      -8.3      1.029      1.576
REMARK  Name = 
REMARK  12 active torsions:
REMARK  status: ('A' for Active; 'I' for Inactive)
REMARK    1  A    between atoms: C_1  and  O_2
REMARK    2  A    between atoms: O_2  and  C_3
REMARK    3  A    between atoms: C_3  and  C_4
REMARK    4  A    between atoms: C_4  and  N_5
REMARK    5  A    between atoms: C_6  and  C_8
REMARK    6  A    between atoms: C_8  and  C_9
REMARK    7  A    between atoms: C_8  and  N_15
REMARK    8  A    between atoms: C_12  and  C_13
REMARK    9  A    between atoms: N_15  and  C_16
REMARK   10  A    between atoms: C_16  and  C_17
REMARK   11  A    between atoms: C_23  and  C_25
REMARK   12  A    between atoms: C_25  and  N_26
REMARK                            x       y       z     vdW  Elec       q    Type
REMARK                         _______ _______ _______ _____ _____    ______ ____
ROOT
ATOM      1  N   UNL     1       3.998   6.832  18.059  0.00  0.00    +0.000 N 
ATOM      2  C   UNL     1       2.904   7.794  18.057  0.00  0.00    +0.000 C 
ATOM      3  O   UNL     1       2.797   8.635  17.153  0.00  0.00    +0.000 OA
ENDROOT
BRANCH   1   4
ATOM      4  C   UNL     1       5.291   6.959  17.064  0.00  0.00    +0.000 C 
BRANCH   4   5
ATOM      5  C   UNL     1       5.560   5.700  16.292  0.00  0.00    +0.000 A 
ATOM      6  C   UNL     1       5.477   4.355  16.618  0.00  0.00    +0.000 A 
ATOM      7  C   UNL     1       5.946   3.636  15.505  0.00  0.00    +0.000 A 
ATOM      8  C   UNL     1       6.269   4.568  14.550  0.00  0.00    +0.000 A 
ATOM      9  C   UNL     1       6.748   4.438  13.161  0.00  0.00    +0.000 C 
ATOM     10  O   UNL     1       6.068   5.831  15.028  0.00  0.00    +0.000 OA
ENDBRANCH   4   5
BRANCH   4  12
ATOM     11  N   UNL     1       7.270   8.647  17.731  0.00  0.00    +0.000 N 
ATOM     12  C   UNL     1       6.820   7.338  17.557  0.00  0.00    +0.000 C 
ATOM     13  O   UNL     1       7.667   6.409  17.725  0.00  0.00    +0.000 OA
ATOM     14  H   UNL     1       6.730   9.429  17.326  0.00  0.00    +0.000 HD
BRANCH  11  15
ATOM     15  C   UNL     1       8.665   8.977  18.117  0.00  0.00    +0.000 C 
BRANCH  15  16
ATOM     16  C   UNL     1       9.018  10.481  18.162  0.00  0.00    +0.000 C 
BRANCH  16  18
ATOM     17  C   UNL     1       8.281  12.629  17.479  0.00  0.00    +0.000 C 
ATOM     18  O   UNL     1       7.970  11.239  17.543  0.00  0.00    +0.000 OA
ENDBRANCH  16  18
ENDBRANCH  15  16
ENDBRANCH  11  15
ENDBRANCH   4  12
ENDBRANCH   1   4
BRANCH   1  19
ATOM     19  C   UNL     1       4.034   5.859  19.171  0.00  0.00    +0.000 C 
BRANCH  19  20
ATOM     20  C   UNL     1       2.961   4.791  19.342  0.00  0.00    +0.000 A 
ATOM     21  C   UNL     1       2.435   4.479  20.611  0.00  0.00    +0.000 A 
ATOM     22  C   UNL     1       1.357   3.588  20.756  0.00  0.00    +0.000 A 
ATOM     23  C   UNL     1       0.793   2.975  19.643  0.00  0.00    +0.000 A 
ATOM     24  C   UNL     1       1.296   3.259  18.379  0.00  0.00    +0.000 A 
ATOM     25  C   UNL     1       2.348   4.179  18.226  0.00  0.00    +0.000 A 
ENDBRANCH  19  20
ENDBRANCH   1  19
BRANCH   2  26
ATOM     26  C   UNL     1       1.691   7.783  19.075  0.00  0.00    +0.000 C 
BRANCH  26  27
ATOM     27  N   UNL     1       1.247   9.006  19.849  0.00  0.00    +0.000 N 
ATOM     28  N   UNL     1       1.130   8.723  21.192  0.00  0.00    +0.000 NA
ATOM     29  N   UNL     1       0.705   9.780  21.831  0.00  0.00    +0.000 NA
ATOM     30  C   UNL     1       0.612  10.805  20.967  0.00  0.00    +0.000 A 
ATOM     31  C   UNL     1       0.282  12.148  21.255  0.00  0.00    +0.000 A 
ATOM     32  C   UNL     1       0.291  13.116  20.254  0.00  0.00    +0.000 A 
ATOM     33  C   UNL     1       0.579  12.721  18.968  0.00  0.00    +0.000 A 
ATOM     34  C   UNL     1       0.869  11.348  18.624  0.00  0.00    +0.000 A 
ATOM     35  C   UNL     1       0.929  10.372  19.656  0.00  0.00    +0.000 A 
ENDBRANCH  26  27
ENDBRANCH   2  26
TORSDOF 10
ENDMDL
MODEL 7
REMARK VINA RESULT:      -8.1      1.806      4.528
REMARK  Name = 
REMARK  12 active torsions:
REMARK  status: ('A' for Active; 'I' for Inactive)
REMARK    1  A    between atoms: C_1  and  O_2
REMARK    2  A    between atoms: O_2  and  C_3
REMARK    3  A    between atoms: C_3  and  C_4
REMARK    4  A    between atoms: C_4  and  N_5
REMARK    5  A    between atoms: C_6  and  C_8
REMARK    6  A    between atoms: C_8  and  C_9
REMARK    7  A    between atoms: C_8  and  N_15
REMARK    8  A    between atoms: C_12  and  C_13
REMARK    9  A    between atoms: N_15  and  C_16
REMARK   10  A    between atoms: C_16  and  C_17
REMARK   11  A    between atoms: C_23  and  C_25
REMARK   12  A    between atoms: C_25  and  N_26
REMARK                            x       y       z     vdW  Elec       q    Type
REMARK                         _______ _______ _______ _____ _____    ______ ____
ROOT
ATOM      1  N   UNL     1       4.612   5.326  18.340  0.00  0.00    +0.000 N 
ATOM      2  C   UNL     1       3.830   6.335  17.637  0.00  0.00    +0.000 C 
ATOM      3  O   UNL     1       4.229   6.820  16.570  0.00  0.00    +0.000 OA
ENDROOT
BRANCH   1   4
ATOM      4  C   UNL     1       6.159   4.970  17.945  0.00  0.00    +0.000 C 
BRANCH   4   5
ATOM      5  C   UNL     1       7.116   6.081  18.271  0.00  0.00    +0.000 A 
ATOM      6  C   UNL     1       8.096   6.230  19.239  0.00  0.00    +0.000 A 
ATOM      7  C   UNL     1       8.605   7.534  19.107  0.00  0.00    +0.000 A 
ATOM      8  C   UNL     1       7.931   8.108  18.057  0.00  0.00    +0.000 A 
ATOM      9  C   UNL     1       8.057   9.421  17.399  0.00  0.00    +0.000 C 
ATOM     10  O   UNL     1       6.999   7.243  17.558  0.00  0.00    +0.000 OA
ENDBRANCH   4   5
BRANCH   4  12
ATOM     11  N   UNL     1       5.806   4.241  15.385  0.00  0.00    +0.000 N 
ATOM     12  C   UNL     1       6.672   4.573  16.427  0.00  0.00    +0.000 C 
ATOM     13  O   UNL     1       7.915   4.492  16.192  0.00  0.00    +0.000 OA
ATOM     14  H   UNL     1       4.823   4.001  15.596  0.00  0.00    +0.000 HD
BRANCH  11  15
ATOM     15  C   UNL     1       6.280   3.828  14.040  0.00  0.00    +0.000 C 
BRANCH  15  16
ATOM     16  C   UNL     1       5.219   3.826  12.918  0.00  0.00    +0.000 C 
BRANCH  16  18
ATOM     17  C   UNL     1       5.680   1.990  11.489  0.00  0.00    +0.000 C 
ATOM     18  O   UNL     1       5.821   3.395  11.689  0.00  0.00    +0.000 OA
ENDBRANCH  16  18
ENDBRANCH  15  16
ENDBRANCH  11  15
ENDBRANCH   4  12
ENDBRANCH   1   4
BRANCH   1  19
ATOM     19  C   UNL     1       4.047   4.796  19.599  0.00  0.00    +0.000 C 
BRANCH  19  20
ATOM     20  C   UNL     1       2.777   3.954  19.621  0.00  0.00    +0.000 A 
ATOM     21  C   UNL     1       2.428   3.127  18.536  0.00  0.00    +0.000 A 
ATOM     22  C   UNL     1       1.328   2.254  18.607  0.00  0.00    +0.000 A 
ATOM     23  C   UNL     1       0.543   2.200  19.752  0.00  0.00    +0.000 A 
ATOM     24  C   UNL     1       0.859   3.009  20.836  0.00  0.00    +0.000 A 
ATOM     25  C   UNL     1       1.981   3.855  20.785  0.00  0.00    +0.000 A 
ENDBRANCH  19  20
ENDBRANCH   1  19
BRANCH   2  26
ATOM     26  C   UNL     1       2.374   6.799  18.052  0.00  0.00    +0.000 C 
BRANCH  26  27
ATOM     27  N   UNL     1       2.029   8.229  18.408  0.00  0.00    +0.000 N 
ATOM     28  N   UNL     1       2.294   9.076  17.354  0.00  0.00    +0.000 NA
ATOM     29  N   UNL     1       2.029  10.308  17.700  0.00  0.00    +0.000 NA
ATOM     30  C   UNL     1       1.506  10.311  18.937  0.00  0.00    +0.000 A 
ATOM     31  C   UNL     1       0.996  11.416  19.655  0.00  0.00    +0.000 A 
ATOM     32  C   UNL     1       0.423  11.248  20.912  0.00  0.00    +0.000 A 
ATOM     33  C   UNL     1       0.412   9.987  21.460  0.00  0.00    +0.000 A 
ATOM     34  C   UNL     1       0.971   8.840  20.782  0.00  0.00    +0.000 A 
ATOM     35  C   UNL     1       1.494   8.998  19.469  0.00  0.00    +0.000 A 
ENDBRANCH  26  27
ENDBRANCH   2  26
TORSDOF 10
ENDMDL
MODEL 8
REMARK VINA RESULT:      -8.1      2.810      4.141
REMARK  Name = 
REMARK  12 active torsions:
REMARK  status: ('A' for Active; 'I' for Inactive)
REMARK    1  A    between atoms: C_1  and  O_2
REMARK    2  A    between atoms: O_2  and  C_3
REMARK    3  A    between atoms: C_3  and  C_4
REMARK    4  A    between atoms: C_4  and  N_5
REMARK    5  A    between atoms: C_6  and  C_8
REMARK    6  A    between atoms: C_8  and  C_9
REMARK    7  A    between atoms: C_8  and  N_15
REMARK    8  A    between atoms: C_12  and  C_13
REMARK    9  A    between atoms: N_15  and  C_16
REMARK   10  A    between atoms: C_16  and  C_17
REMARK   11  A    between atoms: C_23  and  C_25
REMARK   12  A    between atoms: C_25  and  N_26
REMARK                            x       y       z     vdW  Elec       q    Type
REMARK                         _______ _______ _______ _____ _____    ______ ____
ROOT
ATOM      1  N   UNL     1       2.728   6.668  18.650  0.00  0.00    +0.000 N 
ATOM      2  C   UNL     1       2.171   8.006  18.505  0.00  0.00    +0.000 C 
ATOM      3  O   UNL     1       1.941   8.483  17.384  0.00  0.00    +0.000 OA
ENDROOT
BRANCH   1   4
ATOM      4  C   UNL     1       3.342   5.823  17.390  0.00  0.00    +0.000 C 
BRANCH   4   5
ATOM      5  C   UNL     1       3.141   4.341  17.528  0.00  0.00    +0.000 A 
ATOM      6  C   UNL     1       2.149   3.477  17.093  0.00  0.00    +0.000 A 
ATOM      7  C   UNL     1       2.461   2.206  17.606  0.00  0.00    +0.000 A 
ATOM      8  C   UNL     1       3.634   2.348  18.306  0.00  0.00    +0.000 A 
ATOM      9  C   UNL     1       4.491   1.377  19.011  0.00  0.00    +0.000 C 
ATOM     10  O   UNL     1       4.043   3.651  18.292  0.00  0.00    +0.000 OA
ENDBRANCH   4   5
BRANCH   4  12
ATOM     11  N   UNL     1       5.542   4.830  16.213  0.00  0.00    +0.000 N 
ATOM     12  C   UNL     1       4.921   5.866  16.913  0.00  0.00    +0.000 C 
ATOM     13  O   UNL     1       5.646   6.850  17.250  0.00  0.00    +0.000 OA
ATOM     14  H   UNL     1       5.095   3.899  16.179  0.00  0.00    +0.000 HD
BRANCH  11  15
ATOM     15  C   UNL     1       6.978   4.854  15.841  0.00  0.00    +0.000 C 
BRANCH  15  16
ATOM     16  C   UNL     1       7.288   4.770  14.329  0.00  0.00    +0.000 C 
BRANCH  16  18
ATOM     17  C   UNL     1       6.482   3.536  12.472  0.00  0.00    +0.000 C 
ATOM     18  O   UNL     1       6.131   4.294  13.628  0.00  0.00    +0.000 OA
ENDBRANCH  16  18
ENDBRANCH  15  16
ENDBRANCH  11  15
ENDBRANCH   4  12
ENDBRANCH   1   4
BRANCH   1  19
ATOM     19  C   UNL     1       2.955   6.181  20.026  0.00  0.00    +0.000 C 
BRANCH  19  20
ATOM     20  C   UNL     1       2.285   4.919  20.556  0.00  0.00    +0.000 A 
ATOM     21  C   UNL     1       1.017   4.515  20.096  0.00  0.00    +0.000 A 
ATOM     22  C   UNL     1       0.454   3.287  20.487  0.00  0.00    +0.000 A 
ATOM     23  C   UNL     1       1.135   2.445  21.358  0.00  0.00    +0.000 A 
ATOM     24  C   UNL     1       2.385   2.821  21.834  0.00  0.00    +0.000 A 
ATOM     25  C   UNL     1       2.968   4.029  21.416  0.00  0.00    +0.000 A 
ENDBRANCH  19  20
ENDBRANCH   1  19
BRANCH   2  26
ATOM     26  C   UNL     1       1.672   8.911  19.705  0.00  0.00    +0.000 C 
BRANCH  26  27
ATOM     27  N   UNL     1       0.856  10.171  19.511  0.00  0.00    +0.000 N 
ATOM     28  N   UNL     1      -0.465   9.958  19.838  0.00  0.00    +0.000 NA
ATOM     29  N   UNL     1      -1.156  11.045  19.621  0.00  0.00    +0.000 NA
ATOM     30  C   UNL     1      -0.319  12.024  19.236  0.00  0.00    +0.000 A 
ATOM     31  C   UNL     1      -0.633  13.379  18.992  0.00  0.00    +0.000 A 
ATOM     32  C   UNL     1       0.362  14.294  18.660  0.00  0.00    +0.000 A 
ATOM     33  C   UNL     1       1.652  13.835  18.526  0.00  0.00    +0.000 A 
ATOM     34  C   UNL     1       2.005  12.446  18.716  0.00  0.00    +0.000 A 
ATOM     35  C   UNL     1       1.002  11.525  19.122  0.00  0.00    +0.000 A 
ENDBRANCH  26  27
ENDBRANCH   2  26
TORSDOF 10
ENDMDL
MODEL 9
REMARK VINA RESULT:      -8.1      1.248      1.830
REMARK  Name = 
REMARK  12 active torsions:
REMARK  status: ('A' for Active; 'I' for Inactive)
REMARK    1  A    between atoms: C_1  and  O_2
REMARK    2  A    between atoms: O_2  and  C_3
REMARK    3  A    between atoms: C_3  and  C_4
REMARK    4  A    between atoms: C_4  and  N_5
REMARK    5  A    between atoms: C_6  and  C_8
REMARK    6  A    between atoms: C_8  and  C_9
REMARK    7  A    between atoms: C_8  and  N_15
REMARK    8  A    between atoms: C_12  and  C_13
REMARK    9  A    between atoms: N_15  and  C_16
REMARK   10  A    between atoms: C_16  and  C_17
REMARK   11  A    between atoms: C_23  and  C_25
REMARK   12  A    between atoms: C_25  and  N_26
REMARK                            x       y       z     vdW  Elec       q    Type
REMARK                         _______ _______ _______ _____ _____    ______ ____
ROOT
ATOM      1  N   UNL     1       4.117   6.625  18.079  0.00  0.00    +0.000 N 
ATOM      2  C   UNL     1       3.034   7.584  18.258  0.00  0.00    +0.000 C 
ATOM      3  O   UNL     1       2.827   8.474  17.422  0.00  0.00    +0.000 OA
ENDROOT
BRANCH   1   4
ATOM      4  C   UNL     1       5.285   6.810  16.949  0.00  0.00    +0.000 C 
BRANCH   4   5
ATOM      5  C   UNL     1       5.573   5.544  16.194  0.00  0.00    +0.000 A 
ATOM      6  C   UNL     1       6.174   4.347  16.549  0.00  0.00    +0.000 A 
ATOM      7  C   UNL     1       6.242   3.564  15.383  0.00  0.00    +0.000 A 
ATOM      8  C   UNL     1       5.664   4.305  14.383  0.00  0.00    +0.000 A 
ATOM      9  C   UNL     1       5.382   4.009  12.967  0.00  0.00    +0.000 C 
ATOM     10  O   UNL     1       5.279   5.527  14.857  0.00  0.00    +0.000 OA
ENDBRANCH   4   5
BRANCH   4  12
ATOM     11  N   UNL     1       7.166   8.665  17.429  0.00  0.00    +0.000 N 
ATOM     12  C   UNL     1       6.822   7.323  17.264  0.00  0.00    +0.000 C 
ATOM     13  O   UNL     1       7.767   6.478  17.292  0.00  0.00    +0.000 OA
ATOM     14  H   UNL     1       6.508   9.401  17.123  0.00  0.00    +0.000 HD
BRANCH  11  15
ATOM     15  C   UNL     1       8.561   9.120  17.654  0.00  0.00    +0.000 C 
BRANCH  15  16
ATOM     16  C   UNL     1       8.819   9.895  18.965  0.00  0.00    +0.000 C 
BRANCH  16  18
ATOM     17  C   UNL     1       9.461  11.991  18.059  0.00  0.00    +0.000 C 
ATOM     18  O   UNL     1       9.890  10.830  18.767  0.00  0.00    +0.000 OA
ENDBRANCH  16  18
ENDBRANCH  15  16
ENDBRANCH  11  15
ENDBRANCH   4  12
ENDBRANCH   1   4
BRANCH   1  19
ATOM     19  C   UNL     1       4.277   5.592  19.123  0.00  0.00    +0.000 C 
BRANCH  19  20
ATOM     20  C   UNL     1       3.778   4.165  18.928  0.00  0.00    +0.000 A 
ATOM     21  C   UNL     1       2.788   3.859  17.976  0.00  0.00    +0.000 A 
ATOM     22  C   UNL     1       2.419   2.529  17.705  0.00  0.00    +0.000 A 
ATOM     23  C   UNL     1       3.016   1.478  18.391  0.00  0.00    +0.000 A 
ATOM     24  C   UNL     1       3.992   1.750  19.342  0.00  0.00    +0.000 A 
ATOM     25  C   UNL     1       4.392   3.075  19.588  0.00  0.00    +0.000 A 
ENDBRANCH  19  20
ENDBRANCH   1  19
BRANCH   2  26
ATOM     26  C   UNL     1       1.948   7.514  19.409  0.00  0.00    +0.000 C 
BRANCH  26  27
ATOM     27  N   UNL     1       1.337   8.742  20.049  0.00  0.00    +0.000 N 
ATOM     28  N   UNL     1       1.614   8.784  21.398  0.00  0.00    +0.000 NA
ATOM     29  N   UNL     1       1.042   9.828  21.935  0.00  0.00    +0.000 NA
ATOM     30  C   UNL     1       0.452  10.549  20.966  0.00  0.00    +0.000 A 
ATOM     31  C   UNL     1      -0.197  11.797  21.094  0.00  0.00    +0.000 A 
ATOM     32  C   UNL     1      -0.706  12.455  19.978  0.00  0.00    +0.000 A 
ATOM     33  C   UNL     1      -0.605  11.836  18.754  0.00  0.00    +0.000 A 
ATOM     34  C   UNL     1       0.004  10.536  18.589  0.00  0.00    +0.000 A 
ATOM     35  C   UNL     1       0.585   9.895  19.716  0.00  0.00    +0.000 A 
ENDBRANCH  26  27
ENDBRANCH   2  26
TORSDOF 10
ENDMDL
