MODEL 1
REMARK VINA RESULT:      -7.2      0.000      0.000
REMARK  Name = 
REMARK  8 active torsions:
REMARK  status: ('A' for Active; 'I' for Inactive)
REMARK    1  A    between atoms: C_1  and  C_2
REMARK    2  A    between atoms: C_2  and  C_3
REMARK    3  A    between atoms: C_2  and  O_4
REMARK    4  A    between atoms: O_4  and  C_5
REMARK    5  A    between atoms: C_7  and  O_8
REMARK    6  A    between atoms: O_8  and  C_9
REMARK    7  A    between atoms: N_12  and  C_13
REMARK    8  A    between atoms: N_18  and  C_19
REMARK                            x       y       z     vdW  Elec       q    Type
REMARK                         _______ _______ _______ _____ _____    ______ ____
ROOT
ATOM      1  C   UNL     1       1.477   8.906  18.894  0.00  0.00    +0.000 A 
ATOM      2  C   UNL     1       0.945  10.080  18.389  0.00  0.00    +0.000 A 
ATOM      3  C   UNL     1       0.300  11.017  19.200  0.00  0.00    +0.000 A 
ATOM      4  C   UNL     1       0.002  10.676  20.555  0.00  0.00    +0.000 A 
ATOM      5  C   UNL     1      -0.777  11.398  21.508  0.00  0.00    +0.000 A 
ATOM      6  N   UNL     1      -1.500  12.563  21.134  0.00  0.00    +0.000 N 
ATOM      7  N   UNL     1      -0.926  10.968  22.780  0.00  0.00    +0.000 NA
ATOM      8  C   UNL     1      -0.382   9.799  23.100  0.00  0.00    +0.000 A 
ATOM      9  N   UNL     1       0.325   9.013  22.287  0.00  0.00    +0.000 NA
ATOM     10  C   UNL     1       0.509   9.447  21.041  0.00  0.00    +0.000 A 
ATOM     11  C   UNL     1       1.250   8.600  20.220  0.00  0.00    +0.000 A 
ATOM     12  H   UNL     1      -0.897  13.228  20.659  0.00  0.00    +0.000 HD
ENDROOT
BRANCH   6  13
ATOM     13  C   UNL     1      -2.560  13.160  21.866  0.00  0.00    +0.000 A 
ATOM     14  C   UNL     1      -2.331  14.052  22.935  0.00  0.00    +0.000 A 
ATOM     15 CL   UNL     1      -0.718  14.489  23.387  0.00  0.00    +0.000 Cl
ATOM     16  C   UNL     1      -3.395  14.621  23.676  0.00  0.00    +0.000 A 
ATOM     17  C   UNL     1      -4.719  14.316  23.375  0.00  0.00    +0.000 A 
ATOM     18  C   UNL     1      -4.939  13.460  22.318  0.00  0.00    +0.000 A 
ATOM     19  C   UNL     1      -3.902  12.910  21.583  0.00  0.00    +0.000 A 
ATOM     20  O   UNL     1      -4.382  12.156  20.547  0.00  0.00    +0.000 OA
ATOM     21  C   UNL     1      -5.801  12.277  20.731  0.00  0.00    +0.000 C 
ATOM     22  O   UNL     1      -6.167  13.084  21.866  0.00  0.00    +0.000 OA
ENDBRANCH   6  13
BRANCH   1  23
ATOM     23  O   UNL     1       2.180   8.194  17.971  0.00  0.00    +0.000 OA
BRANCH  23  25
ATOM     24  C   UNL     1       2.199   5.851  18.202  0.00  0.00    +0.000 C 
ATOM     25  C   UNL     1       3.041   7.122  18.359  0.00  0.00    +0.000 C 
ATOM     26  C   UNL     1       4.268   7.009  17.453  0.00  0.00    +0.000 C 
ENDBRANCH  23  25
ENDBRANCH   1  23
BRANCH   3  27
ATOM     27  O   UNL     1      -0.008  12.296  18.759  0.00  0.00    +0.000 OA
BRANCH  27  28
ATOM     28  C   UNL     1       0.978  13.311  18.997  0.00  0.00    +0.000 C 
ATOM     29  C   UNL     1       0.402  14.719  18.897  0.00  0.00    +0.000 C 
ATOM     30  C   UNL     1       1.528  15.709  19.223  0.00  0.00    +0.000 C 
ATOM     31  N   UNL     1       2.652  15.555  18.286  0.00  0.00    +0.000 NA
ATOM     32  C   UNL     1       3.703  16.530  18.584  0.00  0.00    +0.000 C 
ATOM     33  C   UNL     1       3.212  14.195  18.304  0.00  0.00    +0.000 C 
ATOM     34  C   UNL     1       2.146  13.137  18.033  0.00  0.00    +0.000 C 
ENDBRANCH  27  28
ENDBRANCH   3  27
TORSDOF 5
ENDMDL
MODEL 2
REMARK VINA RESULT:      -7.2      1.702      2.199
REMARK  Name = 
REMARK  8 active torsions:
REMARK  status: ('A' for Active; 'I' for Inactive)
REMARK    1  A    between atoms: C_1  and  C_2
REMARK    2  A    between atoms: C_2  and  C_3
REMARK    3  A    between atoms: C_2  and  O_4
REMARK    4  A    between atoms: O_4  and  C_5
REMARK    5  A    between atoms: C_7  and  O_8
REMARK    6  A    between atoms: O_8  and  C_9
REMARK    7  A    between atoms: N_12  and  C_13
REMARK    8  A    between atoms: N_18  and  C_19
REMARK                            x       y       z     vdW  Elec       q    Type
REMARK                         _______ _______ _______ _____ _____    ______ ____
ROOT
ATOM      1  C   UNL     1       1.392   9.038  19.005  0.00  0.00    +0.000 A 
ATOM      2  C   UNL     1       0.953  10.272  18.553  0.00  0.00    +0.000 A 
ATOM      3  C   UNL     1       0.381  11.219  19.407  0.00  0.00    +0.000 A 
ATOM      4  C   UNL     1       0.055  10.841  20.746  0.00  0.00    +0.000 A 
ATOM      5  C   UNL     1      -0.666  11.579  21.732  0.00  0.00    +0.000 A 
ATOM      6  N   UNL     1      -1.296  12.812  21.412  0.00  0.00    +0.000 N 
ATOM      7  N   UNL     1      -0.850  11.106  22.984  0.00  0.00    +0.000 NA
ATOM      8  C   UNL     1      -0.398   9.885  23.250  0.00  0.00    +0.000 A 
ATOM      9  N   UNL     1       0.246   9.083  22.402  0.00  0.00    +0.000 NA
ATOM     10  C   UNL     1       0.466   9.557  21.176  0.00  0.00    +0.000 A 
ATOM     11  C   UNL     1       1.139   8.692  20.317  0.00  0.00    +0.000 A 
ATOM     12  H   UNL     1      -0.643  13.449  20.966  0.00  0.00    +0.000 HD
ENDROOT
BRANCH   6  13
ATOM     13  C   UNL     1      -2.308  13.456  22.172  0.00  0.00    +0.000 A 
ATOM     14  C   UNL     1      -3.677  13.357  21.845  0.00  0.00    +0.000 A 
ATOM     15 CL   UNL     1      -4.193  12.402  20.496  0.00  0.00    +0.000 Cl
ATOM     16  C   UNL     1      -4.676  14.026  22.594  0.00  0.00    +0.000 A 
ATOM     17  C   UNL     1      -4.339  14.815  23.689  0.00  0.00    +0.000 A 
ATOM     18  C   UNL     1      -3.003  14.893  24.018  0.00  0.00    +0.000 A 
ATOM     19  C   UNL     1      -2.024  14.231  23.296  0.00  0.00    +0.000 A 
ATOM     20  O   UNL     1      -0.792  14.409  23.864  0.00  0.00    +0.000 OA
ATOM     21  C   UNL     1      -1.105  15.256  24.980  0.00  0.00    +0.000 C 
ATOM     22  O   UNL     1      -2.503  15.588  25.076  0.00  0.00    +0.000 OA
ENDBRANCH   6  13
BRANCH   1  23
ATOM     23  O   UNL     1       2.039   8.316  18.050  0.00  0.00    +0.000 OA
BRANCH  23  25
ATOM     24  C   UNL     1       2.083   5.968  18.213  0.00  0.00    +0.000 C 
ATOM     25  C   UNL     1       2.915   7.241  18.397  0.00  0.00    +0.000 C 
ATOM     26  C   UNL     1       4.132   7.167  17.476  0.00  0.00    +0.000 C 
ENDBRANCH  23  25
ENDBRANCH   1  23
BRANCH   3  27
ATOM     27  O   UNL     1       0.174  12.536  19.024  0.00  0.00    +0.000 OA
BRANCH  27  28
ATOM     28  C   UNL     1       1.273  13.439  19.213  0.00  0.00    +0.000 C 
ATOM     29  C   UNL     1       0.819  14.886  19.367  0.00  0.00    +0.000 C 
ATOM     30  C   UNL     1       2.067  15.744  19.616  0.00  0.00    +0.000 C 
ATOM     31  N   UNL     1       3.017  15.629  18.498  0.00  0.00    +0.000 NA
ATOM     32  C   UNL     1       4.185  16.480  18.730  0.00  0.00    +0.000 C 
ATOM     33  C   UNL     1       3.446  14.240  18.271  0.00  0.00    +0.000 C 
ATOM     34  C   UNL     1       2.259  13.305  18.058  0.00  0.00    +0.000 C 
ENDBRANCH  27  28
ENDBRANCH   3  27
TORSDOF 5
ENDMDL
MODEL 3
REMARK VINA RESULT:      -7.1      1.091      1.302
REMARK  Name = 
REMARK  8 active torsions:
REMARK  status: ('A' for Active; 'I' for Inactive)
REMARK    1  A    between atoms: C_1  and  C_2
REMARK    2  A    between atoms: C_2  and  C_3
REMARK    3  A    between atoms: C_2  and  O_4
REMARK    4  A    between atoms: O_4  and  C_5
REMARK    5  A    between atoms: C_7  and  O_8
REMARK    6  A    between atoms: O_8  and  C_9
REMARK    7  A    between atoms: N_12  and  C_13
REMARK    8  A    between atoms: N_18  and  C_19
REMARK                            x       y       z     vdW  Elec       q    Type
REMARK                         _______ _______ _______ _____ _____    ______ ____
ROOT
ATOM      1  C   UNL     1       1.685   8.377  20.025  0.00  0.00    +0.000 A 
ATOM      2  C   UNL     1       1.340   9.355  19.106  0.00  0.00    +0.000 A 
ATOM      3  C   UNL     1       0.567  10.465  19.454  0.00  0.00    +0.000 A 
ATOM      4  C   UNL     1      -0.054  10.506  20.740  0.00  0.00    +0.000 A 
ATOM      5  C   UNL     1      -0.999  11.447  21.246  0.00  0.00    +0.000 A 
ATOM      6  N   UNL     1      -1.561  12.448  20.408  0.00  0.00    +0.000 N 
ATOM      7  N   UNL     1      -1.461  11.383  22.515  0.00  0.00    +0.000 NA
ATOM      8  C   UNL     1      -1.060  10.359  23.261  0.00  0.00    +0.000 A 
ATOM      9  N   UNL     1      -0.221   9.394  22.886  0.00  0.00    +0.000 NA
ATOM     10  C   UNL     1       0.269   9.470  21.649  0.00  0.00    +0.000 A 
ATOM     11  C   UNL     1       1.141   8.445  21.291  0.00  0.00    +0.000 A 
ATOM     12  H   UNL     1      -0.834  12.968  19.927  0.00  0.00    +0.000 HD
ENDROOT
BRANCH   6  13
ATOM     13  C   UNL     1      -2.734  13.202  20.677  0.00  0.00    +0.000 A 
ATOM     14  C   UNL     1      -2.720  14.357  21.486  0.00  0.00    +0.000 A 
ATOM     15 CL   UNL     1      -1.240  14.933  22.174  0.00  0.00    +0.000 Cl
ATOM     16  C   UNL     1      -3.901  15.087  21.769  0.00  0.00    +0.000 A 
ATOM     17  C   UNL     1      -5.130  14.684  21.256  0.00  0.00    +0.000 A 
ATOM     18  C   UNL     1      -5.136  13.567  20.449  0.00  0.00    +0.000 A 
ATOM     19  C   UNL     1      -3.983  12.857  20.160  0.00  0.00    +0.000 A 
ATOM     20  O   UNL     1      -4.241  11.839  19.284  0.00  0.00    +0.000 OA
ATOM     21  C   UNL     1      -5.656  11.977  19.085  0.00  0.00    +0.000 C 
ATOM     22  O   UNL     1      -6.240  13.057  19.837  0.00  0.00    +0.000 OA
ENDBRANCH   6  13
BRANCH   1  23
ATOM     23  O   UNL     1       2.550   7.453  19.525  0.00  0.00    +0.000 OA
BRANCH  23  25
ATOM     24  C   UNL     1       3.816   7.189  17.557  0.00  0.00    +0.000 C 
ATOM     25  C   UNL     1       2.434   6.975  18.183  0.00  0.00    +0.000 C 
ATOM     26  C   UNL     1       2.098   5.485  18.127  0.00  0.00    +0.000 C 
ENDBRANCH  23  25
ENDBRANCH   1  23
BRANCH   3  27
ATOM     27  O   UNL     1       0.430  11.566  18.621  0.00  0.00    +0.000 OA
BRANCH  27  28
ATOM     28  C   UNL     1       1.292  12.683  18.885  0.00  0.00    +0.000 C 
ATOM     29  C   UNL     1       0.605  14.021  18.641  0.00  0.00    +0.000 C 
ATOM     30  C   UNL     1       1.598  15.130  19.007  0.00  0.00    +0.000 C 
ATOM     31  N   UNL     1       2.819  15.034  18.191  0.00  0.00    +0.000 NA
ATOM     32  C   UNL     1       3.743  16.120  18.523  0.00  0.00    +0.000 C 
ATOM     33  C   UNL     1       3.495  13.737  18.348  0.00  0.00    +0.000 C 
ATOM     34  C   UNL     1       2.560  12.568  18.047  0.00  0.00    +0.000 C 
ENDBRANCH  27  28
ENDBRANCH   3  27
TORSDOF 5
ENDMDL
MODEL 4
REMARK VINA RESULT:      -7.0      1.193      1.223
REMARK  Name = 
REMARK  8 active torsions:
REMARK  status: ('A' for Active; 'I' for Inactive)
REMARK    1  A    between atoms: C_1  and  C_2
REMARK    2  A    between atoms: C_2  and  C_3
REMARK    3  A    between atoms: C_2  and  O_4
REMARK    4  A    between atoms: O_4  and  C_5
REMARK    5  A    between atoms: C_7  and  O_8
REMARK    6  A    between atoms: O_8  and  C_9
REMARK    7  A    between atoms: N_12  and  C_13
REMARK    8  A    between atoms: N_18  and  C_19
REMARK                            x       y       z     vdW  Elec       q    Type
REMARK                         _______ _______ _______ _____ _____    ______ ____
ROOT
ATOM      1  C   UNL     1       1.791   8.321  19.587  0.00  0.00    +0.000 A 
ATOM      2  C   UNL     1       1.574   9.509  18.909  0.00  0.00    +0.000 A 
ATOM      3  C   UNL     1       0.912  10.592  19.494  0.00  0.00    +0.000 A 
ATOM      4  C   UNL     1       0.266  10.413  20.755  0.00  0.00    +0.000 A 
ATOM      5  C   UNL     1      -0.588  11.316  21.457  0.00  0.00    +0.000 A 
ATOM      6  N   UNL     1      -1.021  12.531  20.862  0.00  0.00    +0.000 N 
ATOM      7  N   UNL     1      -1.087  11.022  22.678  0.00  0.00    +0.000 NA
ATOM      8  C   UNL     1      -0.815   9.822  23.179  0.00  0.00    +0.000 A 
ATOM      9  N   UNL     1      -0.071   8.879  22.599  0.00  0.00    +0.000 NA
ATOM     10  C   UNL     1       0.456   9.174  21.412  0.00  0.00    +0.000 A 
ATOM     11  C   UNL     1       1.224   8.165  20.836  0.00  0.00    +0.000 A 
ATOM     12  H   UNL     1      -0.231  13.064  20.509  0.00  0.00    +0.000 HD
ENDROOT
BRANCH   6  13
ATOM     13  C   UNL     1      -2.115  13.329  21.289  0.00  0.00    +0.000 A 
ATOM     14  C   UNL     1      -1.975  14.348  22.255  0.00  0.00    +0.000 A 
ATOM     15 CL   UNL     1      -0.429  14.696  22.950  0.00  0.00    +0.000 Cl
ATOM     16  C   UNL     1      -3.079  15.120  22.693  0.00  0.00    +0.000 A 
ATOM     17  C   UNL     1      -4.354  14.897  22.184  0.00  0.00    +0.000 A 
ATOM     18  C   UNL     1      -4.483  13.915  21.225  0.00  0.00    +0.000 A 
ATOM     19  C   UNL     1      -3.405  13.166  20.785  0.00  0.00    +0.000 A 
ATOM     20  O   UNL     1      -3.779  12.311  19.784  0.00  0.00    +0.000 OA
ATOM     21  C   UNL     1      -5.183  12.590  19.672  0.00  0.00    +0.000 C 
ATOM     22  O   UNL     1      -5.646  13.591  20.598  0.00  0.00    +0.000 OA
ENDBRANCH   6  13
BRANCH   1  23
ATOM     23  O   UNL     1       2.568   7.443  18.896  0.00  0.00    +0.000 OA
BRANCH  23  25
ATOM     24  C   UNL     1       2.012   5.313  18.060  0.00  0.00    +0.000 C 
ATOM     25  C   UNL     1       2.621   6.059  19.252  0.00  0.00    +0.000 C 
ATOM     26  C   UNL     1       4.054   5.569  19.454  0.00  0.00    +0.000 C 
ENDBRANCH  23  25
ENDBRANCH   1  23
BRANCH   3  27
ATOM     27  O   UNL     1       0.913  11.858  18.926  0.00  0.00    +0.000 OA
BRANCH  27  28
ATOM     28  C   UNL     1       2.104  12.638  19.099  0.00  0.00    +0.000 C 
ATOM     29  C   UNL     1       2.105  13.420  20.407  0.00  0.00    +0.000 C 
ATOM     30  C   UNL     1       3.442  14.167  20.505  0.00  0.00    +0.000 C 
ATOM     31  N   UNL     1       3.617  15.085  19.368  0.00  0.00    +0.000 NA
ATOM     32  C   UNL     1       4.878  15.818  19.492  0.00  0.00    +0.000 C 
ATOM     33  C   UNL     1       3.570  14.386  18.074  0.00  0.00    +0.000 C 
ATOM     34  C   UNL     1       2.287  13.576  17.911  0.00  0.00    +0.000 C 
ENDBRANCH  27  28
ENDBRANCH   3  27
TORSDOF 5
ENDMDL
MODEL 5
REMARK VINA RESULT:      -7.0      1.958      2.408
REMARK  Name = 
REMARK  8 active torsions:
REMARK  status: ('A' for Active; 'I' for Inactive)
REMARK    1  A    between atoms: C_1  and  C_2
REMARK    2  A    between atoms: C_2  and  C_3
REMARK    3  A    between atoms: C_2  and  O_4
REMARK    4  A    between atoms: O_4  and  C_5
REMARK    5  A    between atoms: C_7  and  O_8
REMARK    6  A    between atoms: O_8  and  C_9
REMARK    7  A    between atoms: N_12  and  C_13
REMARK    8  A    between atoms: N_18  and  C_19
REMARK                            x       y       z     vdW  Elec       q    Type
REMARK                         _______ _______ _______ _____ _____    ______ ____
ROOT
ATOM      1  C   UNL     1       1.734   8.409  19.547  0.00  0.00    +0.000 A 
ATOM      2  C   UNL     1       1.527   9.638  18.943  0.00  0.00    +0.000 A 
ATOM      3  C   UNL     1       0.913  10.702  19.608  0.00  0.00    +0.000 A 
ATOM      4  C   UNL     1       0.301  10.468  20.878  0.00  0.00    +0.000 A 
ATOM      5  C   UNL     1      -0.508  11.350  21.656  0.00  0.00    +0.000 A 
ATOM      6  N   UNL     1      -0.926  12.608  21.143  0.00  0.00    +0.000 N 
ATOM      7  N   UNL     1      -0.976  11.001  22.874  0.00  0.00    +0.000 NA
ATOM      8  C   UNL     1      -0.720   9.767  23.298  0.00  0.00    +0.000 A 
ATOM      9  N   UNL     1      -0.020   8.841  22.643  0.00  0.00    +0.000 NA
ATOM     10  C   UNL     1       0.478   9.190  21.458  0.00  0.00    +0.000 A 
ATOM     11  C   UNL     1       1.202   8.197  20.802  0.00  0.00    +0.000 A 
ATOM     12  H   UNL     1      -0.135  13.140  20.796  0.00  0.00    +0.000 HD
ENDROOT
BRANCH   6  13
ATOM     13  C   UNL     1      -1.986  13.406  21.649  0.00  0.00    +0.000 A 
ATOM     14  C   UNL     1      -3.274  13.405  21.073  0.00  0.00    +0.000 A 
ATOM     15 CL   UNL     1      -3.633  12.387  19.720  0.00  0.00    +0.000 Cl
ATOM     16  C   UNL     1      -4.316  14.226  21.569  0.00  0.00    +0.000 A 
ATOM     17  C   UNL     1      -4.104  15.074  22.651  0.00  0.00    +0.000 A 
ATOM     18  C   UNL     1      -2.851  15.057  23.224  0.00  0.00    +0.000 A 
ATOM     19  C   UNL     1      -1.832  14.248  22.751  0.00  0.00    +0.000 A 
ATOM     20  O   UNL     1      -0.714  14.360  23.531  0.00  0.00    +0.000 OA
ATOM     21  C   UNL     1      -1.134  15.327  24.505  0.00  0.00    +0.000 C 
ATOM     22  O   UNL     1      -2.482  15.794  24.308  0.00  0.00    +0.000 OA
ENDBRANCH   6  13
BRANCH   1  23
ATOM     23  O   UNL     1       2.466   7.552  18.783  0.00  0.00    +0.000 OA
BRANCH  23  25
ATOM     24  C   UNL     1       2.080   5.381  17.959  0.00  0.00    +0.000 C 
ATOM     25  C   UNL     1       2.622   6.180  19.149  0.00  0.00    +0.000 C 
ATOM     26  C   UNL     1       4.088   5.802  19.364  0.00  0.00    +0.000 C 
ENDBRANCH  23  25
ENDBRANCH   1  23
BRANCH   3  27
ATOM     27  O   UNL     1       0.929  11.998  19.112  0.00  0.00    +0.000 OA
BRANCH  27  28
ATOM     28  C   UNL     1       2.162  12.720  19.242  0.00  0.00    +0.000 C 
ATOM     29  C   UNL     1       2.245  13.504  20.546  0.00  0.00    +0.000 C 
ATOM     30  C   UNL     1       3.619  14.184  20.597  0.00  0.00    +0.000 C 
ATOM     31  N   UNL     1       3.800  15.090  19.451  0.00  0.00    +0.000 NA
ATOM     32  C   UNL     1       5.099  15.761  19.531  0.00  0.00    +0.000 C 
ATOM     33  C   UNL     1       3.676  14.391  18.162  0.00  0.00    +0.000 C 
ATOM     34  C   UNL     1       2.350  13.645  18.045  0.00  0.00    +0.000 C 
ENDBRANCH  27  28
ENDBRANCH   3  27
TORSDOF 5
ENDMDL
MODEL 6
REMARK VINA RESULT:      -7.0      1.105      1.288
REMARK  Name = 
REMARK  8 active torsions:
REMARK  status: ('A' for Active; 'I' for Inactive)
REMARK    1  A    between atoms: C_1  and  C_2
REMARK    2  A    between atoms: C_2  and  C_3
REMARK    3  A    between atoms: C_2  and  O_4
REMARK    4  A    between atoms: O_4  and  C_5
REMARK    5  A    between atoms: C_7  and  O_8
REMARK    6  A    between atoms: O_8  and  C_9
REMARK    7  A    between atoms: N_12  and  C_13
REMARK    8  A    between atoms: N_18  and  C_19
REMARK                            x       y       z     vdW  Elec       q    Type
REMARK                         _______ _______ _______ _____ _____    ______ ____
ROOT
ATOM      1  C   UNL     1       1.564   8.927  18.980  0.00  0.00    +0.000 A 
ATOM      2  C   UNL     1       1.384  10.236  18.566  0.00  0.00    +0.000 A 
ATOM      3  C   UNL     1       0.931  11.236  19.430  0.00  0.00    +0.000 A 
ATOM      4  C   UNL     1       0.450  10.872  20.725  0.00  0.00    +0.000 A 
ATOM      5  C   UNL     1      -0.197  11.688  21.700  0.00  0.00    +0.000 A 
ATOM      6  N   UNL     1      -0.574  13.026  21.405  0.00  0.00    +0.000 N 
ATOM      7  N   UNL     1      -0.550  11.207  22.912  0.00  0.00    +0.000 NA
ATOM      8  C   UNL     1      -0.343   9.915  23.143  0.00  0.00    +0.000 A 
ATOM      9  N   UNL     1       0.207   9.044  22.296  0.00  0.00    +0.000 NA
ATOM     10  C   UNL     1       0.594   9.518  21.113  0.00  0.00    +0.000 A 
ATOM     11  C   UNL     1       1.162   8.580  20.254  0.00  0.00    +0.000 A 
ATOM     12  H   UNL     1       0.212  13.551  21.034  0.00  0.00    +0.000 HD
ENDROOT
BRANCH   6  13
ATOM     13  C   UNL     1      -1.506  13.812  22.133  0.00  0.00    +0.000 A 
ATOM     14  C   UNL     1      -1.116  14.935  22.893  0.00  0.00    +0.000 A 
ATOM     15 CL   UNL     1       0.542  15.430  22.947  0.00  0.00    +0.000 Cl
ATOM     16  C   UNL     1      -2.051  15.696  23.637  0.00  0.00    +0.000 A 
ATOM     17  C   UNL     1      -3.401  15.359  23.647  0.00  0.00    +0.000 A 
ATOM     18  C   UNL     1      -3.781  14.274  22.886  0.00  0.00    +0.000 A 
ATOM     19  C   UNL     1      -2.873  13.534  22.148  0.00  0.00    +0.000 A 
ATOM     20  O   UNL     1      -3.506  12.559  21.427  0.00  0.00    +0.000 OA
ATOM     21  C   UNL     1      -4.876  12.757  21.810  0.00  0.00    +0.000 C 
ATOM     22  O   UNL     1      -5.060  13.829  22.754  0.00  0.00    +0.000 OA
ENDBRANCH   6  13
BRANCH   1  23
ATOM     23  O   UNL     1       2.138   8.138  18.031  0.00  0.00    +0.000 OA
BRANCH  23  25
ATOM     24  C   UNL     1       2.202   5.790  18.202  0.00  0.00    +0.000 C 
ATOM     25  C   UNL     1       3.021   7.072  18.387  0.00  0.00    +0.000 C 
ATOM     26  C   UNL     1       4.245   7.006  17.473  0.00  0.00    +0.000 C 
ENDBRANCH  23  25
ENDBRANCH   1  23
BRANCH   3  27
ATOM     27  O   UNL     1       0.989  12.583  19.103  0.00  0.00    +0.000 OA
BRANCH  27  28
ATOM     28  C   UNL     1       2.284  13.200  19.149  0.00  0.00    +0.000 C 
ATOM     29  C   UNL     1       2.549  13.904  20.474  0.00  0.00    +0.000 C 
ATOM     30  C   UNL     1       3.973  14.472  20.426  0.00  0.00    +0.000 C 
ATOM     31  N   UNL     1       4.124  15.421  19.311  0.00  0.00    +0.000 NA
ATOM     32  C   UNL     1       5.475  15.984  19.299  0.00  0.00    +0.000 C 
ATOM     33  C   UNL     1       3.827  14.804  18.009  0.00  0.00    +0.000 C 
ATOM     34  C   UNL     1       2.438  14.170  17.983  0.00  0.00    +0.000 C 
ENDBRANCH  27  28
ENDBRANCH   3  27
TORSDOF 5
ENDMDL
MODEL 7
REMARK VINA RESULT:      -6.9      1.740      2.252
REMARK  Name = 
REMARK  8 active torsions:
REMARK  status: ('A' for Active; 'I' for Inactive)
REMARK    1  A    between atoms: C_1  and  C_2
REMARK    2  A    between atoms: C_2  and  C_3
REMARK    3  A    between atoms: C_2  and  O_4
REMARK    4  A    between atoms: O_4  and  C_5
REMARK    5  A    between atoms: C_7  and  O_8
REMARK    6  A    between atoms: O_8  and  C_9
REMARK    7  A    between atoms: N_12  and  C_13
REMARK    8  A    between atoms: N_18  and  C_19
REMARK                            x       y       z     vdW  Elec       q    Type
REMARK                         _______ _______ _______ _____ _____    ______ ____
ROOT
ATOM      1  C   UNL     1       1.725   8.328  19.986  0.00  0.00    +0.000 A 
ATOM      2  C   UNL     1       1.363   9.308  19.077  0.00  0.00    +0.000 A 
ATOM      3  C   UNL     1       0.584  10.410  19.439  0.00  0.00    +0.000 A 
ATOM      4  C   UNL     1      -0.025  10.437  20.731  0.00  0.00    +0.000 A 
ATOM      5  C   UNL     1      -0.973  11.368  21.252  0.00  0.00    +0.000 A 
ATOM      6  N   UNL     1      -1.551  12.369  20.425  0.00  0.00    +0.000 N 
ATOM      7  N   UNL     1      -1.421  11.292  22.524  0.00  0.00    +0.000 NA
ATOM      8  C   UNL     1      -1.005  10.267  23.261  0.00  0.00    +0.000 A 
ATOM      9  N   UNL     1      -0.161   9.312  22.872  0.00  0.00    +0.000 NA
ATOM     10  C   UNL     1       0.316   9.400  21.631  0.00  0.00    +0.000 A 
ATOM     11  C   UNL     1       1.193   8.383  21.258  0.00  0.00    +0.000 A 
ATOM     12  H   UNL     1      -0.833  12.898  19.940  0.00  0.00    +0.000 HD
ENDROOT
BRANCH   6  13
ATOM     13  C   UNL     1      -2.727  13.111  20.709  0.00  0.00    +0.000 A 
ATOM     14  C   UNL     1      -3.960  12.845  20.077  0.00  0.00    +0.000 A 
ATOM     15 CL   UNL     1      -4.100  11.556  18.930  0.00  0.00    +0.000 Cl
ATOM     16  C   UNL     1      -5.121  13.609  20.348  0.00  0.00    +0.000 A 
ATOM     17  C   UNL     1      -5.087  14.664  21.255  0.00  0.00    +0.000 A 
ATOM     18  C   UNL     1      -3.886  14.908  21.886  0.00  0.00    +0.000 A 
ATOM     19  C   UNL     1      -2.751  14.156  21.633  0.00  0.00    +0.000 A 
ATOM     20  O   UNL     1      -1.715  14.549  22.435  0.00  0.00    +0.000 OA
ATOM     21  C   UNL     1      -2.312  15.621  23.179  0.00  0.00    +0.000 C 
ATOM     22  O   UNL     1      -3.684  15.874  22.824  0.00  0.00    +0.000 OA
ENDBRANCH   6  13
BRANCH   1  23
ATOM     23  O   UNL     1       2.593   7.414  19.473  0.00  0.00    +0.000 OA
BRANCH  23  25
ATOM     24  C   UNL     1       3.853   7.091  17.510  0.00  0.00    +0.000 C 
ATOM     25  C   UNL     1       2.462   6.935  18.133  0.00  0.00    +0.000 C 
ATOM     26  C   UNL     1       2.067   5.460  18.082  0.00  0.00    +0.000 C 
ENDBRANCH  23  25
ENDBRANCH   1  23
BRANCH   3  27
ATOM     27  O   UNL     1       0.431  11.514  18.613  0.00  0.00    +0.000 OA
BRANCH  27  28
ATOM     28  C   UNL     1       1.287  12.636  18.875  0.00  0.00    +0.000 C 
ATOM     29  C   UNL     1       0.590  13.970  18.635  0.00  0.00    +0.000 C 
ATOM     30  C   UNL     1       1.579  15.085  18.998  0.00  0.00    +0.000 C 
ATOM     31  N   UNL     1       2.797  14.997  18.176  0.00  0.00    +0.000 NA
ATOM     32  C   UNL     1       3.716  16.088  18.506  0.00  0.00    +0.000 C 
ATOM     33  C   UNL     1       3.481  13.703  18.330  0.00  0.00    +0.000 C 
ATOM     34  C   UNL     1       2.552  12.530  18.031  0.00  0.00    +0.000 C 
ENDBRANCH  27  28
ENDBRANCH   3  27
TORSDOF 5
ENDMDL
MODEL 8
REMARK VINA RESULT:      -6.6      1.710      5.162
REMARK  Name = 
REMARK  8 active torsions:
REMARK  status: ('A' for Active; 'I' for Inactive)
REMARK    1  A    between atoms: C_1  and  C_2
REMARK    2  A    between atoms: C_2  and  C_3
REMARK    3  A    between atoms: C_2  and  O_4
REMARK    4  A    between atoms: O_4  and  C_5
REMARK    5  A    between atoms: C_7  and  O_8
REMARK    6  A    between atoms: O_8  and  C_9
REMARK    7  A    between atoms: N_12  and  C_13
REMARK    8  A    between atoms: N_18  and  C_19
REMARK                            x       y       z     vdW  Elec       q    Type
REMARK                         _______ _______ _______ _____ _____    ______ ____
ROOT
ATOM      1  C   UNL     1       2.510  14.277  18.616  0.00  0.00    +0.000 A 
ATOM      2  C   UNL     1       2.017  13.060  19.056  0.00  0.00    +0.000 A 
ATOM      3  C   UNL     1       0.714  12.914  19.539  0.00  0.00    +0.000 A 
ATOM      4  C   UNL     1      -0.076  14.081  19.774  0.00  0.00    +0.000 A 
ATOM      5  C   UNL     1      -1.353  14.184  20.401  0.00  0.00    +0.000 A 
ATOM      6  N   UNL     1      -1.960  13.059  21.022  0.00  0.00    +0.000 N 
ATOM      7  N   UNL     1      -2.005  15.363  20.505  0.00  0.00    +0.000 NA
ATOM      8  C   UNL     1      -1.378  16.450  20.066  0.00  0.00    +0.000 A 
ATOM      9  N   UNL     1      -0.169  16.487  19.506  0.00  0.00    +0.000 NA
ATOM     10  C   UNL     1       0.465  15.324  19.366  0.00  0.00    +0.000 A 
ATOM     11  C   UNL     1       1.726  15.401  18.780  0.00  0.00    +0.000 A 
ATOM     12  H   UNL     1      -1.990  12.266  20.388  0.00  0.00    +0.000 HD
ENDROOT
BRANCH   6  13
ATOM     13  C   UNL     1      -3.027  13.094  21.958  0.00  0.00    +0.000 A 
ATOM     14  C   UNL     1      -2.846  13.507  23.295  0.00  0.00    +0.000 A 
ATOM     15 CL   UNL     1      -1.292  14.028  23.853  0.00  0.00    +0.000 Cl
ATOM     16  C   UNL     1      -3.912  13.512  24.228  0.00  0.00    +0.000 A 
ATOM     17  C   UNL     1      -5.189  13.103  23.856  0.00  0.00    +0.000 A 
ATOM     18  C   UNL     1      -5.367  12.720  22.544  0.00  0.00    +0.000 A 
ATOM     19  C   UNL     1      -4.330  12.724  21.625  0.00  0.00    +0.000 A 
ATOM     20  O   UNL     1      -4.777  12.373  20.381  0.00  0.00    +0.000 OA
ATOM     21  C   UNL     1      -6.170  12.132  20.629  0.00  0.00    +0.000 C 
ATOM     22  O   UNL     1      -6.552  12.327  22.003  0.00  0.00    +0.000 OA
ENDBRANCH   6  13
BRANCH   1  23
ATOM     23  O   UNL     1       3.749  14.185  18.060  0.00  0.00    +0.000 OA
BRANCH  23  25
ATOM     24  C   UNL     1       4.940  14.964  19.935  0.00  0.00    +0.000 C 
ATOM     25  C   UNL     1       4.793  15.094  18.416  0.00  0.00    +0.000 C 
ATOM     26  C   UNL     1       6.125  14.729  17.762  0.00  0.00    +0.000 C 
ENDBRANCH  23  25
ENDBRANCH   1  23
BRANCH   3  27
ATOM     27  O   UNL     1       0.131  11.672  19.739  0.00  0.00    +0.000 OA
BRANCH  27  28
ATOM     28  C   UNL     1       1.007  10.536  19.698  0.00  0.00    +0.000 C 
ATOM     29  C   UNL     1       1.004   9.844  18.341  0.00  0.00    +0.000 C 
ATOM     30  C   UNL     1       2.012   8.689  18.401  0.00  0.00    +0.000 C 
ATOM     31  N   UNL     1       1.651   7.731  19.458  0.00  0.00    +0.000 NA
ATOM     32  C   UNL     1       2.598   6.615  19.481  0.00  0.00    +0.000 C 
ATOM     33  C   UNL     1       1.587   8.361  20.786  0.00  0.00    +0.000 C 
ATOM     34  C   UNL     1       0.637   9.555  20.804  0.00  0.00    +0.000 C 
ENDBRANCH  27  28
ENDBRANCH   3  27
TORSDOF 5
ENDMDL
MODEL 9
REMARK VINA RESULT:      -6.6      2.829      7.166
REMARK  Name = 
REMARK  8 active torsions:
REMARK  status: ('A' for Active; 'I' for Inactive)
REMARK    1  A    between atoms: C_1  and  C_2
REMARK    2  A    between atoms: C_2  and  C_3
REMARK    3  A    between atoms: C_2  and  O_4
REMARK    4  A    between atoms: O_4  and  C_5
REMARK    5  A    between atoms: C_7  and  O_8
REMARK    6  A    between atoms: O_8  and  C_9
REMARK    7  A    between atoms: N_12  and  C_13
REMARK    8  A    between atoms: N_18  and  C_19
REMARK                            x       y       z     vdW  Elec       q    Type
REMARK                         _______ _______ _______ _____ _____    ______ ____
ROOT
ATOM      1  C   UNL     1      -3.115  11.888  19.183  0.00  0.00    +0.000 A 
ATOM      2  C   UNL     1      -1.898  11.579  18.598  0.00  0.00    +0.000 A 
ATOM      3  C   UNL     1      -0.690  12.098  19.070  0.00  0.00    +0.000 A 
ATOM      4  C   UNL     1      -0.715  13.131  20.058  0.00  0.00    +0.000 A 
ATOM      5  C   UNL     1       0.369  13.908  20.565  0.00  0.00    +0.000 A 
ATOM      6  N   UNL     1       1.668  13.815  19.998  0.00  0.00    +0.000 N 
ATOM      7  N   UNL     1       0.194  14.821  21.546  0.00  0.00    +0.000 NA
ATOM      8  C   UNL     1      -1.046  15.028  21.976  0.00  0.00    +0.000 A 
ATOM      9  N   UNL     1      -2.141  14.400  21.548  0.00  0.00    +0.000 NA
ATOM     10  C   UNL     1      -1.973  13.471  20.608  0.00  0.00    +0.000 A 
ATOM     11  C   UNL     1      -3.139  12.838  20.184  0.00  0.00    +0.000 A 
ATOM     12  H   UNL     1       1.976  12.848  19.953  0.00  0.00    +0.000 HD
ENDROOT
BRANCH   6  13
ATOM     13  C   UNL     1       2.722  14.753  20.162  0.00  0.00    +0.000 A 
ATOM     14  C   UNL     1       2.784  15.956  19.427  0.00  0.00    +0.000 A 
ATOM     15 CL   UNL     1       1.539  16.361  18.295  0.00  0.00    +0.000 Cl
ATOM     16  C   UNL     1       3.854  16.871  19.579  0.00  0.00    +0.000 A 
ATOM     17  C   UNL     1       4.894  16.614  20.467  0.00  0.00    +0.000 A 
ATOM     18  C   UNL     1       4.819  15.448  21.198  0.00  0.00    +0.000 A 
ATOM     19  C   UNL     1       3.770  14.555  21.061  0.00  0.00    +0.000 A 
ATOM     20  O   UNL     1       3.890  13.518  21.945  0.00  0.00    +0.000 OA
ATOM     21  C   UNL     1       5.118  13.847  22.614  0.00  0.00    +0.000 C 
ATOM     22  O   UNL     1       5.729  15.058  22.133  0.00  0.00    +0.000 OA
ENDBRANCH   6  13
BRANCH   1  23
ATOM     23  O   UNL     1      -4.155  11.179  18.666  0.00  0.00    +0.000 OA
BRANCH  23  25
ATOM     24  C   UNL     1      -5.493  12.270  17.065  0.00  0.00    +0.000 C 
ATOM     25  C   UNL     1      -5.449  11.765  18.511  0.00  0.00    +0.000 C 
ATOM     26  C   UNL     1      -6.572  10.746  18.707  0.00  0.00    +0.000 C 
ENDBRANCH  23  25
ENDBRANCH   1  23
BRANCH   3  27
ATOM     27  O   UNL     1       0.541  11.605  18.663  0.00  0.00    +0.000 OA
BRANCH  27  28
ATOM     28  C   UNL     1       0.757  10.197  18.837  0.00  0.00    +0.000 C 
ATOM     29  C   UNL     1       1.065   9.827  20.284  0.00  0.00    +0.000 C 
ATOM     30  C   UNL     1       1.221   8.303  20.354  0.00  0.00    +0.000 C 
ATOM     31  N   UNL     1       2.307   7.844  19.474  0.00  0.00    +0.000 NA
ATOM     32  C   UNL     1       2.471   6.393  19.579  0.00  0.00    +0.000 C 
ATOM     33  C   UNL     1       2.086   8.222  18.070  0.00  0.00    +0.000 C 
ATOM     34  C   UNL     1       1.874   9.726  17.912  0.00  0.00    +0.000 C 
ENDBRANCH  27  28
ENDBRANCH   3  27
TORSDOF 5
ENDMDL
