MODEL 1
REMARK VINA RESULT:      -6.9      0.000      0.000
REMARK  Name = 
REMARK  7 active torsions:
REMARK  status: ('A' for Active; 'I' for Inactive)
REMARK    1  A    between atoms: C_2  and  O_3
REMARK    2  A    between atoms: C_2  and  C_4
REMARK    3  A    between atoms: C_4  and  C_5
REMARK    4  A    between atoms: C_8  and  O_9
REMARK    5  A    between atoms: O_9  and  C_10
REMARK    6  A    between atoms: C_10  and  C_11
REMARK    7  A    between atoms: C_11  and  N_12
REMARK                            x       y       z     vdW  Elec       q    Type
REMARK                         _______ _______ _______ _____ _____    ______ ____
ROOT
ATOM      1  O   UNL     1       2.010   7.177  18.773  0.00  0.00    +0.000 OA
ENDROOT
BRANCH   1   5
ATOM      2  C   UNL     1       4.792   5.009  16.503  0.00  0.00    +0.000 A 
ATOM      3  C   UNL     1       4.908   6.395  16.607  0.00  0.00    +0.000 A 
ATOM      4  C   UNL     1       4.025   7.119  17.405  0.00  0.00    +0.000 A 
ATOM      5  C   UNL     1       2.979   6.482  18.087  0.00  0.00    +0.000 A 
ATOM      6  C   UNL     1       2.908   5.084  18.044  0.00  0.00    +0.000 A 
ATOM      7 BR   UNL     1       1.604   4.118  19.029  0.00  0.00    +0.000 Br
ATOM      8  C   UNL     1       3.805   4.350  17.250  0.00  0.00    +0.000 A 
BRANCH   2   9
ATOM      9  C   UNL     1       5.695   4.258  15.556  0.00  0.00    +0.000 C 
BRANCH   9  11
ATOM     10  O   UNL     1       7.616   5.268  14.535  0.00  0.00    +0.000 OA
ATOM     11  C   UNL     1       7.147   4.699  15.511  0.00  0.00    +0.000 C 
BRANCH  11  12
ATOM     12  O   UNL     1       7.904   4.450  16.605  0.00  0.00    +0.000 OA
ATOM     13  H   UNL     1       7.879   5.137  17.295  0.00  0.00    +0.000 HD
ENDBRANCH  11  12
ENDBRANCH   9  11
ENDBRANCH   2   9
ENDBRANCH   1   5
BRANCH   1  14
ATOM     14  C   UNL     1       2.224   8.594  18.836  0.00  0.00    +0.000 C 
BRANCH  14  15
ATOM     15  C   UNL     1       0.910   9.352  18.698  0.00  0.00    +0.000 C 
BRANCH  15  16
ATOM     16  N   UNL     1       0.702  10.327  19.772  0.00  0.00    +0.000 N 
ATOM     17  C   UNL     1       0.084   9.903  20.949  0.00  0.00    +0.000 C 
ATOM     18  O   UNL     1      -0.133   8.718  21.207  0.00  0.00    +0.000 OA
ATOM     19  C   UNL     1      -0.425  11.031  21.868  0.00  0.00    +0.000 C 
ATOM     20  O   UNL     1       0.270  12.266  21.941  0.00  0.00    +0.000 OA
ATOM     21  C   UNL     1       0.928  12.559  20.798  0.00  0.00    +0.000 A 
ATOM     22  C   UNL     1       1.498  13.827  20.517  0.00  0.00    +0.000 A 
ATOM     23  C   UNL     1       2.164  13.822  19.310  0.00  0.00    +0.000 A 
ATOM     24  S   UNL     1       2.063  12.298  18.527  0.00  0.00    +0.000 S 
ATOM     25  C   UNL     1       1.135  11.647  19.790  0.00  0.00    +0.000 A 
ENDBRANCH  15  16
ENDBRANCH  14  15
ENDBRANCH   1  14
TORSDOF 7
ENDMDL
MODEL 2
REMARK VINA RESULT:      -6.9      3.494      8.293
REMARK  Name = 
REMARK  7 active torsions:
REMARK  status: ('A' for Active; 'I' for Inactive)
REMARK    1  A    between atoms: C_2  and  O_3
REMARK    2  A    between atoms: C_2  and  C_4
REMARK    3  A    between atoms: C_4  and  C_5
REMARK    4  A    between atoms: C_8  and  O_9
REMARK    5  A    between atoms: O_9  and  C_10
REMARK    6  A    between atoms: C_10  and  C_11
REMARK    7  A    between atoms: C_11  and  N_12
REMARK                            x       y       z     vdW  Elec       q    Type
REMARK                         _______ _______ _______ _____ _____    ______ ____
ROOT
ATOM      1  O   UNL     1       2.112   7.377  20.689  0.00  0.00    +0.000 OA
ENDROOT
BRANCH   1   5
ATOM      2  C   UNL     1      -0.417  10.625  19.889  0.00  0.00    +0.000 A 
ATOM      3  C   UNL     1      -0.348  10.098  21.179  0.00  0.00    +0.000 A 
ATOM      4  C   UNL     1       0.531   9.058  21.469  0.00  0.00    +0.000 A 
ATOM      5  C   UNL     1       1.334   8.490  20.471  0.00  0.00    +0.000 A 
ATOM      6  C   UNL     1       1.321   9.068  19.195  0.00  0.00    +0.000 A 
ATOM      7 BR   UNL     1       2.459   8.451  17.807  0.00  0.00    +0.000 Br
ATOM      8  C   UNL     1       0.445  10.126  18.903  0.00  0.00    +0.000 A 
BRANCH   2   9
ATOM      9  C   UNL     1      -1.446  11.683  19.574  0.00  0.00    +0.000 C 
BRANCH   9  11
ATOM     10  O   UNL     1      -2.641  11.252  17.540  0.00  0.00    +0.000 OA
ATOM     11  C   UNL     1      -1.769  11.897  18.106  0.00  0.00    +0.000 C 
BRANCH  11  12
ATOM     12  O   UNL     1      -1.061  12.843  17.447  0.00  0.00    +0.000 OA
ATOM     13  H   UNL     1      -1.220  13.760  17.736  0.00  0.00    +0.000 HD
ENDBRANCH  11  12
ENDBRANCH   9  11
ENDBRANCH   2   9
ENDBRANCH   1   5
BRANCH   1  14
ATOM     14  C   UNL     1       1.395   6.134  20.664  0.00  0.00    +0.000 C 
BRANCH  14  15
ATOM     15  C   UNL     1       2.335   4.956  20.893  0.00  0.00    +0.000 C 
BRANCH  15  16
ATOM     16  N   UNL     1       2.492   4.117  19.702  0.00  0.00    +0.000 N 
ATOM     17  C   UNL     1       1.512   3.166  19.421  0.00  0.00    +0.000 C 
ATOM     18  O   UNL     1       0.433   3.112  20.015  0.00  0.00    +0.000 OA
ATOM     19  C   UNL     1       1.913   2.093  18.388  0.00  0.00    +0.000 C 
ATOM     20  O   UNL     1       2.788   2.418  17.319  0.00  0.00    +0.000 OA
ATOM     21  C   UNL     1       3.640   3.419  17.633  0.00  0.00    +0.000 A 
ATOM     22  C   UNL     1       4.764   3.775  16.845  0.00  0.00    +0.000 A 
ATOM     23  C   UNL     1       5.416   4.872  17.368  0.00  0.00    +0.000 A 
ATOM     24  S   UNL     1       4.677   5.431  18.813  0.00  0.00    +0.000 S 
ATOM     25  C   UNL     1       3.493   4.216  18.743  0.00  0.00    +0.000 A 
ENDBRANCH  15  16
ENDBRANCH  14  15
ENDBRANCH   1  14
TORSDOF 7
ENDMDL
MODEL 3
REMARK VINA RESULT:      -6.9      1.928      2.170
REMARK  Name = 
REMARK  7 active torsions:
REMARK  status: ('A' for Active; 'I' for Inactive)
REMARK    1  A    between atoms: C_2  and  O_3
REMARK    2  A    between atoms: C_2  and  C_4
REMARK    3  A    between atoms: C_4  and  C_5
REMARK    4  A    between atoms: C_8  and  O_9
REMARK    5  A    between atoms: O_9  and  C_10
REMARK    6  A    between atoms: C_10  and  C_11
REMARK    7  A    between atoms: C_11  and  N_12
REMARK                            x       y       z     vdW  Elec       q    Type
REMARK                         _______ _______ _______ _____ _____    ______ ____
ROOT
ATOM      1  O   UNL     1       1.447   6.829  20.594  0.00  0.00    +0.000 OA
ENDROOT
BRANCH   1   5
ATOM      2  C   UNL     1       4.166   5.808  17.569  0.00  0.00    +0.000 A 
ATOM      3  C   UNL     1       3.700   7.118  17.672  0.00  0.00    +0.000 A 
ATOM      4  C   UNL     1       2.843   7.482  18.708  0.00  0.00    +0.000 A 
ATOM      5  C   UNL     1       2.397   6.538  19.642  0.00  0.00    +0.000 A 
ATOM      6  C   UNL     1       2.922   5.241  19.584  0.00  0.00    +0.000 A 
ATOM      7 BR   UNL     1       2.475   3.923  20.874  0.00  0.00    +0.000 Br
ATOM      8  C   UNL     1       3.797   4.875  18.548  0.00  0.00    +0.000 A 
BRANCH   2   9
ATOM      9  C   UNL     1       5.013   5.412  16.384  0.00  0.00    +0.000 C 
BRANCH   9  11
ATOM     10  O   UNL     1       7.261   6.246  16.380  0.00  0.00    +0.000 OA
ATOM     11  C   UNL     1       6.508   5.313  16.624  0.00  0.00    +0.000 C 
BRANCH  11  12
ATOM     12  O   UNL     1       6.979   4.150  17.133  0.00  0.00    +0.000 OA
ATOM     13  H   UNL     1       7.906   4.170  17.430  0.00  0.00    +0.000 HD
ENDBRANCH  11  12
ENDBRANCH   9  11
ENDBRANCH   2   9
ENDBRANCH   1   5
BRANCH   1  14
ATOM     14  C   UNL     1       1.231   8.231  20.813  0.00  0.00    +0.000 C 
BRANCH  14  15
ATOM     15  C   UNL     1      -0.188   8.496  21.301  0.00  0.00    +0.000 C 
BRANCH  15  16
ATOM     16  N   UNL     1      -0.472   9.924  21.465  0.00  0.00    +0.000 N 
ATOM     17  C   UNL     1      -0.377  10.482  22.739  0.00  0.00    +0.000 C 
ATOM     18  O   UNL     1       0.107   9.886  23.702  0.00  0.00    +0.000 OA
ATOM     19  C   UNL     1      -1.032  11.869  22.900  0.00  0.00    +0.000 C 
ATOM     20  O   UNL     1      -1.045  12.787  21.819  0.00  0.00    +0.000 OA
ATOM     21  C   UNL     1      -1.032  12.172  20.616  0.00  0.00    +0.000 A 
ATOM     22  C   UNL     1      -1.279  12.835  19.387  0.00  0.00    +0.000 A 
ATOM     23  C   UNL     1      -1.137  11.977  18.316  0.00  0.00    +0.000 A 
ATOM     24  S   UNL     1      -0.739  10.384  18.817  0.00  0.00    +0.000 S 
ATOM     25  C   UNL     1      -0.757  10.835  20.454  0.00  0.00    +0.000 A 
ENDBRANCH  15  16
ENDBRANCH  14  15
ENDBRANCH   1  14
TORSDOF 7
ENDMDL
MODEL 4
REMARK VINA RESULT:      -6.9      3.475      8.066
REMARK  Name = 
REMARK  7 active torsions:
REMARK  status: ('A' for Active; 'I' for Inactive)
REMARK    1  A    between atoms: C_2  and  O_3
REMARK    2  A    between atoms: C_2  and  C_4
REMARK    3  A    between atoms: C_4  and  C_5
REMARK    4  A    between atoms: C_8  and  O_9
REMARK    5  A    between atoms: O_9  and  C_10
REMARK    6  A    between atoms: C_10  and  C_11
REMARK    7  A    between atoms: C_11  and  N_12
REMARK                            x       y       z     vdW  Elec       q    Type
REMARK                         _______ _______ _______ _____ _____    ______ ____
ROOT
ATOM      1  O   UNL     1       2.539   3.689  18.322  0.00  0.00    +0.000 OA
ENDROOT
BRANCH   1   5
ATOM      2  C   UNL     1       1.853   7.384  20.184  0.00  0.00    +0.000 A 
ATOM      3  C   UNL     1       2.192   7.339  18.832  0.00  0.00    +0.000 A 
ATOM      4  C   UNL     1       2.365   6.115  18.189  0.00  0.00    +0.000 A 
ATOM      5  C   UNL     1       2.243   4.908  18.889  0.00  0.00    +0.000 A 
ATOM      6  C   UNL     1       1.829   4.950  20.226  0.00  0.00    +0.000 A 
ATOM      7 BR   UNL     1       1.518   3.367  21.227  0.00  0.00    +0.000 Br
ATOM      8  C   UNL     1       1.641   6.182  20.874  0.00  0.00    +0.000 A 
BRANCH   2   9
ATOM      9  C   UNL     1       1.768   8.718  20.884  0.00  0.00    +0.000 C 
BRANCH   9  11
ATOM     10  O   UNL     1       0.855   9.432  22.983  0.00  0.00    +0.000 OA
ATOM     11  C   UNL     1       0.662   8.875  21.911  0.00  0.00    +0.000 C 
BRANCH  11  12
ATOM     12  O   UNL     1      -0.558   8.384  21.590  0.00  0.00    +0.000 OA
ATOM     13  H   UNL     1      -1.219   8.407  22.304  0.00  0.00    +0.000 HD
ENDBRANCH  11  12
ENDBRANCH   9  11
ENDBRANCH   2   9
ENDBRANCH   1   5
BRANCH   1  14
ATOM     14  C   UNL     1       3.023   3.761  16.973  0.00  0.00    +0.000 C 
BRANCH  14  15
ATOM     15  C   UNL     1       4.394   3.106  16.850  0.00  0.00    +0.000 C 
BRANCH  15  16
ATOM     16  N   UNL     1       5.454   4.067  16.534  0.00  0.00    +0.000 N 
ATOM     17  C   UNL     1       5.701   4.374  15.196  0.00  0.00    +0.000 C 
ATOM     18  O   UNL     1       4.962   4.021  14.275  0.00  0.00    +0.000 OA
ATOM     19  C   UNL     1       7.039   5.091  14.921  0.00  0.00    +0.000 C 
ATOM     20  O   UNL     1       7.580   5.990  15.875  0.00  0.00    +0.000 OA
ATOM     21  C   UNL     1       7.212   5.689  17.139  0.00  0.00    +0.000 A 
ATOM     22  C   UNL     1       7.796   6.272  18.293  0.00  0.00    +0.000 A 
ATOM     23  C   UNL     1       7.182   5.829  19.446  0.00  0.00    +0.000 A 
ATOM     24  S   UNL     1       5.935   4.697  19.115  0.00  0.00    +0.000 S 
ATOM     25  C   UNL     1       6.212   4.795  17.443  0.00  0.00    +0.000 A 
ENDBRANCH  15  16
ENDBRANCH  14  15
ENDBRANCH   1  14
TORSDOF 7
ENDMDL
MODEL 5
REMARK VINA RESULT:      -6.8      3.091      3.587
REMARK  Name = 
REMARK  7 active torsions:
REMARK  status: ('A' for Active; 'I' for Inactive)
REMARK    1  A    between atoms: C_2  and  O_3
REMARK    2  A    between atoms: C_2  and  C_4
REMARK    3  A    between atoms: C_4  and  C_5
REMARK    4  A    between atoms: C_8  and  O_9
REMARK    5  A    between atoms: O_9  and  C_10
REMARK    6  A    between atoms: C_10  and  C_11
REMARK    7  A    between atoms: C_11  and  N_12
REMARK                            x       y       z     vdW  Elec       q    Type
REMARK                         _______ _______ _______ _____ _____    ______ ____
ROOT
ATOM      1  O   UNL     1       2.051   7.911  20.146  0.00  0.00    +0.000 OA
ENDROOT
BRANCH   1   5
ATOM      2  C   UNL     1       2.332   3.780  19.476  0.00  0.00    +0.000 A 
ATOM      3  C   UNL     1       1.594   4.261  20.557  0.00  0.00    +0.000 A 
ATOM      4  C   UNL     1       1.445   5.632  20.756  0.00  0.00    +0.000 A 
ATOM      5  C   UNL     1       2.063   6.556  19.904  0.00  0.00    +0.000 A 
ATOM      6  C   UNL     1       2.741   6.076  18.776  0.00  0.00    +0.000 A 
ATOM      7 BR   UNL     1       3.509   7.249  17.497  0.00  0.00    +0.000 Br
ATOM      8  C   UNL     1       2.882   4.694  18.566  0.00  0.00    +0.000 A 
BRANCH   2   9
ATOM      9  C   UNL     1       2.564   2.295  19.337  0.00  0.00    +0.000 C 
BRANCH   9  11
ATOM     10  O   UNL     1       4.832   2.327  20.116  0.00  0.00    +0.000 OA
ATOM     11  C   UNL     1       4.008   1.830  19.359  0.00  0.00    +0.000 C 
BRANCH  11  12
ATOM     12  O   UNL     1       4.350   0.829  18.514  0.00  0.00    +0.000 OA
ATOM     13  H   UNL     1       3.686   0.611  17.836  0.00  0.00    +0.000 HD
ENDBRANCH  11  12
ENDBRANCH   9  11
ENDBRANCH   2   9
ENDBRANCH   1   5
BRANCH   1  14
ATOM     14  C   UNL     1       1.487   8.285  21.412  0.00  0.00    +0.000 C 
BRANCH  14  15
ATOM     15  C   UNL     1      -0.013   8.523  21.292  0.00  0.00    +0.000 C 
BRANCH  15  16
ATOM     16  N   UNL     1      -0.379   9.930  21.474  0.00  0.00    +0.000 N 
ATOM     17  C   UNL     1      -0.402  10.454  22.766  0.00  0.00    +0.000 C 
ATOM     18  O   UNL     1       0.043   9.852  23.745  0.00  0.00    +0.000 OA
ATOM     19  C   UNL     1      -1.135  11.802  22.917  0.00  0.00    +0.000 C 
ATOM     20  O   UNL     1      -1.117  12.751  21.862  0.00  0.00    +0.000 OA
ATOM     21  C   UNL     1      -0.989  12.174  20.648  0.00  0.00    +0.000 A 
ATOM     22  C   UNL     1      -1.181  12.861  19.423  0.00  0.00    +0.000 A 
ATOM     23  C   UNL     1      -0.923  12.044  18.342  0.00  0.00    +0.000 A 
ATOM     24  S   UNL     1      -0.482  10.457  18.827  0.00  0.00    +0.000 S 
ATOM     25  C   UNL     1      -0.637  10.857  20.470  0.00  0.00    +0.000 A 
ENDBRANCH  15  16
ENDBRANCH  14  15
ENDBRANCH   1  14
TORSDOF 7
ENDMDL
MODEL 6
REMARK VINA RESULT:      -6.8      2.236      2.958
REMARK  Name = 
REMARK  7 active torsions:
REMARK  status: ('A' for Active; 'I' for Inactive)
REMARK    1  A    between atoms: C_2  and  O_3
REMARK    2  A    between atoms: C_2  and  C_4
REMARK    3  A    between atoms: C_4  and  C_5
REMARK    4  A    between atoms: C_8  and  O_9
REMARK    5  A    between atoms: O_9  and  C_10
REMARK    6  A    between atoms: C_10  and  C_11
REMARK    7  A    between atoms: C_11  and  N_12
REMARK                            x       y       z     vdW  Elec       q    Type
REMARK                         _______ _______ _______ _____ _____    ______ ____
ROOT
ATOM      1  O   UNL     1       2.267   4.771  20.665  0.00  0.00    +0.000 OA
ENDROOT
BRANCH   1   5
ATOM      2  C   UNL     1       4.897   4.164  17.454  0.00  0.00    +0.000 A 
ATOM      3  C   UNL     1       5.258   5.016  18.498  0.00  0.00    +0.000 A 
ATOM      4  C   UNL     1       4.418   5.180  19.597  0.00  0.00    +0.000 A 
ATOM      5  C   UNL     1       3.179   4.529  19.663  0.00  0.00    +0.000 A 
ATOM      6  C   UNL     1       2.850   3.617  18.654  0.00  0.00    +0.000 A 
ATOM      7 BR   UNL     1       1.251   2.595  18.712  0.00  0.00    +0.000 Br
ATOM      8  C   UNL     1       3.701   3.439  17.550  0.00  0.00    +0.000 A 
BRANCH   2   9
ATOM      9  C   UNL     1       5.774   4.078  16.229  0.00  0.00    +0.000 C 
BRANCH   9  11
ATOM     10  O   UNL     1       8.055   4.193  16.960  0.00  0.00    +0.000 OA
ATOM     11  C   UNL     1       7.146   4.719  16.332  0.00  0.00    +0.000 C 
BRANCH  11  12
ATOM     12  O   UNL     1       7.331   5.895  15.688  0.00  0.00    +0.000 OA
ATOM     13  H   UNL     1       6.521   6.319  15.353  0.00  0.00    +0.000 HD
ENDBRANCH  11  12
ENDBRANCH   9  11
ENDBRANCH   2   9
ENDBRANCH   1   5
BRANCH   1  14
ATOM     14  C   UNL     1       1.415   5.903  20.435  0.00  0.00    +0.000 C 
BRANCH  14  15
ATOM     15  C   UNL     1       2.128   7.203  20.785  0.00  0.00    +0.000 C 
BRANCH  15  16
ATOM     16  N   UNL     1       1.607   8.352  20.040  0.00  0.00    +0.000 N 
ATOM     17  C   UNL     1       1.881   8.445  18.676  0.00  0.00    +0.000 C 
ATOM     18  O   UNL     1       2.382   7.526  18.025  0.00  0.00    +0.000 OA
ATOM     19  C   UNL     1       1.626   9.829  18.045  0.00  0.00    +0.000 C 
ATOM     20  O   UNL     1       0.576  10.653  18.525  0.00  0.00    +0.000 OA
ATOM     21  C   UNL     1       0.298  10.434  19.829  0.00  0.00    +0.000 A 
ATOM     22  C   UNL     1      -0.531  11.275  20.613  0.00  0.00    +0.000 A 
ATOM     23  C   UNL     1      -0.692  10.775  21.888  0.00  0.00    +0.000 A 
ATOM     24  S   UNL     1       0.183   9.317  22.122  0.00  0.00    +0.000 S 
ATOM     25  C   UNL     1       0.776   9.353  20.531  0.00  0.00    +0.000 A 
ENDBRANCH  15  16
ENDBRANCH  14  15
ENDBRANCH   1  14
TORSDOF 7
ENDMDL
MODEL 7
REMARK VINA RESULT:      -6.8      3.635      8.187
REMARK  Name = 
REMARK  7 active torsions:
REMARK  status: ('A' for Active; 'I' for Inactive)
REMARK    1  A    between atoms: C_2  and  O_3
REMARK    2  A    between atoms: C_2  and  C_4
REMARK    3  A    between atoms: C_4  and  C_5
REMARK    4  A    between atoms: C_8  and  O_9
REMARK    5  A    between atoms: O_9  and  C_10
REMARK    6  A    between atoms: C_10  and  C_11
REMARK    7  A    between atoms: C_11  and  N_12
REMARK                            x       y       z     vdW  Elec       q    Type
REMARK                         _______ _______ _______ _____ _____    ______ ____
ROOT
ATOM      1  O   UNL     1       3.353   4.849  17.989  0.00  0.00    +0.000 OA
ENDROOT
BRANCH   1   5
ATOM      2  C   UNL     1       1.350   7.360  20.685  0.00  0.00    +0.000 A 
ATOM      3  C   UNL     1       1.438   5.993  20.943  0.00  0.00    +0.000 A 
ATOM      4  C   UNL     1       2.151   5.158  20.085  0.00  0.00    +0.000 A 
ATOM      5  C   UNL     1       2.758   5.661  18.927  0.00  0.00    +0.000 A 
ATOM      6  C   UNL     1       2.734   7.044  18.707  0.00  0.00    +0.000 A 
ATOM      7 BR   UNL     1       3.628   7.838  17.233  0.00  0.00    +0.000 Br
ATOM      8  C   UNL     1       2.027   7.890  19.578  0.00  0.00    +0.000 A 
BRANCH   2   9
ATOM      9  C   UNL     1       0.491   8.229  21.572  0.00  0.00    +0.000 C 
BRANCH   9  11
ATOM     10  O   UNL     1       0.752  10.587  21.920  0.00  0.00    +0.000 OA
ATOM     11  C   UNL     1       1.156   9.458  22.164  0.00  0.00    +0.000 C 
BRANCH  11  12
ATOM     12  O   UNL     1       2.212   9.256  22.987  0.00  0.00    +0.000 OA
ATOM     13  H   UNL     1       2.447   8.324  23.143  0.00  0.00    +0.000 HD
ENDBRANCH  11  12
ENDBRANCH   9  11
ENDBRANCH   2   9
ENDBRANCH   1   5
BRANCH   1  14
ATOM     14  C   UNL     1       3.709   3.544  18.470  0.00  0.00    +0.000 C 
BRANCH  14  15
ATOM     15  C   UNL     1       5.211   3.440  18.703  0.00  0.00    +0.000 C 
BRANCH  15  16
ATOM     16  N   UNL     1       5.971   4.444  17.954  0.00  0.00    +0.000 N 
ATOM     17  C   UNL     1       6.646   5.437  18.663  0.00  0.00    +0.000 C 
ATOM     18  O   UNL     1       6.788   5.414  19.887  0.00  0.00    +0.000 OA
ATOM     19  C   UNL     1       7.108   6.646  17.823  0.00  0.00    +0.000 C 
ATOM     20  O   UNL     1       7.500   6.472  16.471  0.00  0.00    +0.000 OA
ATOM     21  C   UNL     1       6.880   5.427  15.881  0.00  0.00    +0.000 A 
ATOM     22  C   UNL     1       6.905   5.178  14.486  0.00  0.00    +0.000 A 
ATOM     23  C   UNL     1       6.245   4.008  14.172  0.00  0.00    +0.000 A 
ATOM     24  S   UNL     1       5.584   3.251  15.562  0.00  0.00    +0.000 S 
ATOM     25  C   UNL     1       6.173   4.476  16.579  0.00  0.00    +0.000 A 
ENDBRANCH  15  16
ENDBRANCH  14  15
ENDBRANCH   1  14
TORSDOF 7
ENDMDL
MODEL 8
REMARK VINA RESULT:      -6.7      3.356      8.855
REMARK  Name = 
REMARK  7 active torsions:
REMARK  status: ('A' for Active; 'I' for Inactive)
REMARK    1  A    between atoms: C_2  and  O_3
REMARK    2  A    between atoms: C_2  and  C_4
REMARK    3  A    between atoms: C_4  and  C_5
REMARK    4  A    between atoms: C_8  and  O_9
REMARK    5  A    between atoms: O_9  and  C_10
REMARK    6  A    between atoms: C_10  and  C_11
REMARK    7  A    between atoms: C_11  and  N_12
REMARK                            x       y       z     vdW  Elec       q    Type
REMARK                         _______ _______ _______ _____ _____    ______ ____
ROOT
ATOM      1  O   UNL     1       2.124   7.511  20.465  0.00  0.00    +0.000 OA
ENDROOT
BRANCH   1   5
ATOM      2  C   UNL     1      -0.475  10.721  21.197  0.00  0.00    +0.000 A 
ATOM      3  C   UNL     1      -0.050   9.915  22.253  0.00  0.00    +0.000 A 
ATOM      4  C   UNL     1       0.859   8.882  22.031  0.00  0.00    +0.000 A 
ATOM      5  C   UNL     1       1.334   8.603  20.743  0.00  0.00    +0.000 A 
ATOM      6  C   UNL     1       0.968   9.458  19.696  0.00  0.00    +0.000 A 
ATOM      7 BR   UNL     1       1.653   9.238  17.939  0.00  0.00    +0.000 Br
ATOM      8  C   UNL     1       0.062  10.508  19.919  0.00  0.00    +0.000 A 
BRANCH   2   9
ATOM      9  C   UNL     1      -1.533  11.768  21.442  0.00  0.00    +0.000 C 
BRANCH   9  11
ATOM     10  O   UNL     1      -0.913  13.045  23.375  0.00  0.00    +0.000 OA
ATOM     11  C   UNL     1      -1.693  12.247  22.874  0.00  0.00    +0.000 C 
BRANCH  11  12
ATOM     12  O   UNL     1      -2.747  11.765  23.575  0.00  0.00    +0.000 OA
ATOM     13  H   UNL     1      -2.518  11.218  24.347  0.00  0.00    +0.000 HD
ENDBRANCH  11  12
ENDBRANCH   9  11
ENDBRANCH   2   9
ENDBRANCH   1   5
BRANCH   1  14
ATOM     14  C   UNL     1       1.449   6.248  20.555  0.00  0.00    +0.000 C 
BRANCH  14  15
ATOM     15  C   UNL     1       2.434   5.121  20.835  0.00  0.00    +0.000 C 
BRANCH  15  16
ATOM     16  N   UNL     1       2.558   4.185  19.714  0.00  0.00    +0.000 N 
ATOM     17  C   UNL     1       1.726   3.066  19.682  0.00  0.00    +0.000 C 
ATOM     18  O   UNL     1       0.771   2.913  20.446  0.00  0.00    +0.000 OA
ATOM     19  C   UNL     1       2.150   1.959  18.696  0.00  0.00    +0.000 C 
ATOM     20  O   UNL     1       2.791   2.292  17.475  0.00  0.00    +0.000 OA
ATOM     21  C   UNL     1       3.494   3.443  17.555  0.00  0.00    +0.000 A 
ATOM     22  C   UNL     1       4.412   3.878  16.566  0.00  0.00    +0.000 A 
ATOM     23  C   UNL     1       4.935   5.116  16.876  0.00  0.00    +0.000 A 
ATOM     24  S   UNL     1       4.329   5.714  18.366  0.00  0.00    +0.000 S 
ATOM     25  C   UNL     1       3.376   4.329  18.599  0.00  0.00    +0.000 A 
ENDBRANCH  15  16
ENDBRANCH  14  15
ENDBRANCH   1  14
TORSDOF 7
ENDMDL
MODEL 9
REMARK VINA RESULT:      -6.6      1.024      1.258
REMARK  Name = 
REMARK  7 active torsions:
REMARK  status: ('A' for Active; 'I' for Inactive)
REMARK    1  A    between atoms: C_2  and  O_3
REMARK    2  A    between atoms: C_2  and  C_4
REMARK    3  A    between atoms: C_4  and  C_5
REMARK    4  A    between atoms: C_8  and  O_9
REMARK    5  A    between atoms: O_9  and  C_10
REMARK    6  A    between atoms: C_10  and  C_11
REMARK    7  A    between atoms: C_11  and  N_12
REMARK                            x       y       z     vdW  Elec       q    Type
REMARK                         _______ _______ _______ _____ _____    ______ ____
ROOT
ATOM      1  O   UNL     1       1.872   8.146  18.783  0.00  0.00    +0.000 OA
ENDROOT
BRANCH   1   5
ATOM      2  C   UNL     1       4.673   5.314  17.469  0.00  0.00    +0.000 A 
ATOM      3  C   UNL     1       4.638   6.581  16.886  0.00  0.00    +0.000 A 
ATOM      4  C   UNL     1       3.751   7.548  17.354  0.00  0.00    +0.000 A 
ATOM      5  C   UNL     1       2.850   7.263  18.388  0.00  0.00    +0.000 A 
ATOM      6  C   UNL     1       2.936   6.018  19.023  0.00  0.00    +0.000 A 
ATOM      7 BR   UNL     1       1.842   5.578  20.511  0.00  0.00    +0.000 Br
ATOM      8  C   UNL     1       3.838   5.045  18.562  0.00  0.00    +0.000 A 
BRANCH   2   9
ATOM      9  C   UNL     1       5.569   4.252  16.882  0.00  0.00    +0.000 C 
BRANCH   9  11
ATOM     10  O   UNL     1       7.572   4.381  18.195  0.00  0.00    +0.000 OA
ATOM     11  C   UNL     1       7.062   4.438  17.084  0.00  0.00    +0.000 C 
BRANCH  11  12
ATOM     12  O   UNL     1       7.815   4.658  15.980  0.00  0.00    +0.000 OA
ATOM     13  H   UNL     1       7.430   5.271  15.329  0.00  0.00    +0.000 HD
ENDBRANCH  11  12
ENDBRANCH   9  11
ENDBRANCH   2   9
ENDBRANCH   1   5
BRANCH   1  14
ATOM     14  C   UNL     1       1.587   9.184  17.834  0.00  0.00    +0.000 C 
BRANCH  14  15
ATOM     15  C   UNL     1       0.335   9.957  18.230  0.00  0.00    +0.000 C 
BRANCH  15  16
ATOM     16  N   UNL     1       0.545  10.814  19.400  0.00  0.00    +0.000 N 
ATOM     17  C   UNL     1      -0.017  10.432  20.618  0.00  0.00    +0.000 C 
ATOM     18  O   UNL     1      -0.528   9.327  20.808  0.00  0.00    +0.000 OA
ATOM     19  C   UNL     1      -0.069  11.536  21.694  0.00  0.00    +0.000 C 
ATOM     20  O   UNL     1       0.951  12.521  21.761  0.00  0.00    +0.000 OA
ATOM     21  C   UNL     1       1.519  12.762  20.560  0.00  0.00    +0.000 A 
ATOM     22  C   UNL     1       2.385  13.854  20.301  0.00  0.00    +0.000 A 
ATOM     23  C   UNL     1       2.868  13.817  19.010  0.00  0.00    +0.000 A 
ATOM     24  S   UNL     1       2.245  12.483  18.128  0.00  0.00    +0.000 S 
ATOM     25  C   UNL     1       1.333  11.957  19.461  0.00  0.00    +0.000 A 
ENDBRANCH  15  16
ENDBRANCH  14  15
ENDBRANCH   1  14
TORSDOF 7
ENDMDL
