MODEL 1
REMARK VINA RESULT:      -9.3      0.000      0.000
REMARK  Name = 
REMARK  7 active torsions:
REMARK  status: ('A' for Active; 'I' for Inactive)
REMARK    1  A    between atoms: C_1  and  C_2
REMARK    2  A    between atoms: N_6  and  C_7
REMARK    3  A    between atoms: C_7  and  C_8
REMARK    4  A    between atoms: C_7  and  C_21
REMARK    5  A    between atoms: N_10  and  C_11
REMARK    6  A    between atoms: C_11  and  C_12
REMARK    7  A    between atoms: C_14  and  C_15
REMARK                            x       y       z     vdW  Elec       q    Type
REMARK                         _______ _______ _______ _____ _____    ______ ____
ROOT
ATOM      1  C   UNL     1       4.764   5.763  18.243  0.00  0.00    +0.000 C 
ATOM      2  O   UNL     1       5.243   6.770  17.719  0.00  0.00    +0.000 OA
ATOM      3  N   UNL     1       5.490   4.587  18.285  0.00  0.00    +0.000 N 
ATOM      4  H   UNL     1       5.076   3.701  18.575  0.00  0.00    +0.000 HD
ENDROOT
BRANCH   1   5
ATOM      5  C   UNL     1       3.393   5.736  18.931  0.00  0.00    +0.000 C 
BRANCH   5  11
ATOM      6  C   UNL     1       1.050   4.075  20.409  0.00  0.00    +0.000 C 
ATOM      7  C   UNL     1       1.592   3.885  19.047  0.00  0.00    +0.000 A 
ATOM      8  N   UNL     1       1.210   2.960  18.188  0.00  0.00    +0.000 NA
ATOM      9  N   UNL     1       1.985   3.118  17.071  0.00  0.00    +0.000 NA
ATOM     10  N   UNL     1       2.833   4.120  17.223  0.00  0.00    +0.000 NA
ATOM     11  N   UNL     1       2.609   4.600  18.465  0.00  0.00    +0.000 N 
ENDBRANCH   5  11
BRANCH   5  12
ATOM     12  C   UNL     1       2.639   7.074  18.931  0.00  0.00    +0.000 A 
ATOM     13  C   UNL     1       2.433   7.861  17.785  0.00  0.00    +0.000 A 
ATOM     14  C   UNL     1       1.701   9.052  17.847  0.00  0.00    +0.000 A 
ATOM     15  C   UNL     1       1.135   9.468  19.046  0.00  0.00    +0.000 A 
ATOM     16  C   UNL     1       1.304   8.696  20.191  0.00  0.00    +0.000 A 
ATOM     17  C   UNL     1       2.048   7.513  20.134  0.00  0.00    +0.000 A 
ENDBRANCH   5  12
ENDBRANCH   1   5
BRANCH   3  18
ATOM     18  C   UNL     1       6.846   4.557  17.781  0.00  0.00    +0.000 C 
BRANCH  18  19
ATOM     19  C   UNL     1       6.854   4.593  16.297  0.00  0.00    +0.000 A 
ATOM     20  N   UNL     1       6.268   3.782  15.440  0.00  0.00    +0.000 NA
ATOM     21  C   UNL     1       6.600   4.309  14.195  0.00  0.00    +0.000 A 
ATOM     22  N   UNL     1       7.379   5.409  14.280  0.00  0.00    +0.000 NA
ATOM     23  N   UNL     1       7.519   5.561  15.603  0.00  0.00    +0.000 N 
ATOM     24  H   UNL     1       8.064   6.339  15.957  0.00  0.00    +0.000 HD
BRANCH  21  25
ATOM     25  C   UNL     1       6.122   3.719  12.882  0.00  0.00    +0.000 C 
ATOM     26  F   UNL     1       4.804   3.960  12.650  0.00  0.00    +0.000 F 
ATOM     27  F   UNL     1       6.801   4.225  11.814  0.00  0.00    +0.000 F 
ATOM     28  F   UNL     1       6.277   2.366  12.835  0.00  0.00    +0.000 F 
ENDBRANCH  21  25
ENDBRANCH  18  19
ENDBRANCH   3  18
TORSDOF 6
ENDMDL
MODEL 2
REMARK VINA RESULT:      -9.3      0.927      1.317
REMARK  Name = 
REMARK  7 active torsions:
REMARK  status: ('A' for Active; 'I' for Inactive)
REMARK    1  A    between atoms: C_1  and  C_2
REMARK    2  A    between atoms: N_6  and  C_7
REMARK    3  A    between atoms: C_7  and  C_8
REMARK    4  A    between atoms: C_7  and  C_21
REMARK    5  A    between atoms: N_10  and  C_11
REMARK    6  A    between atoms: C_11  and  C_12
REMARK    7  A    between atoms: C_14  and  C_15
REMARK                            x       y       z     vdW  Elec       q    Type
REMARK                         _______ _______ _______ _____ _____    ______ ____
ROOT
ATOM      1  C   UNL     1       5.051   5.185  19.073  0.00  0.00    +0.000 C 
ATOM      2  O   UNL     1       5.983   5.623  19.749  0.00  0.00    +0.000 OA
ATOM      3  N   UNL     1       5.301   4.542  17.875  0.00  0.00    +0.000 N 
ATOM      4  H   UNL     1       4.557   4.299  17.221  0.00  0.00    +0.000 HD
ENDROOT
BRANCH   1   5
ATOM      5  C   UNL     1       3.582   5.252  19.511  0.00  0.00    +0.000 C 
BRANCH   5  11
ATOM      6  C   UNL     1       2.614   2.664  21.184  0.00  0.00    +0.000 C 
ATOM      7  C   UNL     1       2.411   2.959  19.750  0.00  0.00    +0.000 A 
ATOM      8  N   UNL     1       1.799   2.178  18.881  0.00  0.00    +0.000 NA
ATOM      9  N   UNL     1       1.862   2.812  17.670  0.00  0.00    +0.000 NA
ATOM     10  N   UNL     1       2.499   3.966  17.775  0.00  0.00    +0.000 NA
ATOM     11  N   UNL     1       2.863   4.063  19.071  0.00  0.00    +0.000 N 
ENDBRANCH   5  11
BRANCH   5  12
ATOM     12  C   UNL     1       2.871   6.578  19.204  0.00  0.00    +0.000 A 
ATOM     13  C   UNL     1       2.031   7.248  20.109  0.00  0.00    +0.000 A 
ATOM     14  C   UNL     1       1.445   8.475  19.782  0.00  0.00    +0.000 A 
ATOM     15  C   UNL     1       1.708   9.074  18.555  0.00  0.00    +0.000 A 
ATOM     16  C   UNL     1       2.553   8.443  17.648  0.00  0.00    +0.000 A 
ATOM     17  C   UNL     1       3.127   7.209  17.968  0.00  0.00    +0.000 A 
ENDBRANCH   5  12
ENDBRANCH   1   5
BRANCH   3  18
ATOM     18  C   UNL     1       6.665   4.315  17.449  0.00  0.00    +0.000 C 
BRANCH  18  19
ATOM     19  C   UNL     1       6.778   4.422  15.972  0.00  0.00    +0.000 A 
ATOM     20  N   UNL     1       6.255   3.653  15.038  0.00  0.00    +0.000 NA
ATOM     21  C   UNL     1       6.674   4.239  13.847  0.00  0.00    +0.000 A 
ATOM     22  N   UNL     1       7.443   5.332  14.039  0.00  0.00    +0.000 NA
ATOM     23  N   UNL     1       7.489   5.420  15.374  0.00  0.00    +0.000 N 
ATOM     24  H   UNL     1       8.006   6.180  15.803  0.00  0.00    +0.000 HD
BRANCH  21  25
ATOM     25  C   UNL     1       6.291   3.713  12.476  0.00  0.00    +0.000 C 
ATOM     26  F   UNL     1       4.950   3.757  12.256  0.00  0.00    +0.000 F 
ATOM     27  F   UNL     1       6.870   4.429  11.471  0.00  0.00    +0.000 F 
ATOM     28  F   UNL     1       6.665   2.415  12.296  0.00  0.00    +0.000 F 
ENDBRANCH  21  25
ENDBRANCH  18  19
ENDBRANCH   3  18
TORSDOF 6
ENDMDL
MODEL 3
REMARK VINA RESULT:      -9.2      0.123      1.205
REMARK  Name = 
REMARK  7 active torsions:
REMARK  status: ('A' for Active; 'I' for Inactive)
REMARK    1  A    between atoms: C_1  and  C_2
REMARK    2  A    between atoms: N_6  and  C_7
REMARK    3  A    between atoms: C_7  and  C_8
REMARK    4  A    between atoms: C_7  and  C_21
REMARK    5  A    between atoms: N_10  and  C_11
REMARK    6  A    between atoms: C_11  and  C_12
REMARK    7  A    between atoms: C_14  and  C_15
REMARK                            x       y       z     vdW  Elec       q    Type
REMARK                         _______ _______ _______ _____ _____    ______ ____
ROOT
ATOM      1  C   UNL     1       4.741   5.681  18.235  0.00  0.00    +0.000 C 
ATOM      2  O   UNL     1       5.141   6.688  17.648  0.00  0.00    +0.000 OA
ATOM      3  N   UNL     1       5.546   4.560  18.326  0.00  0.00    +0.000 N 
ATOM      4  H   UNL     1       5.198   3.666  18.671  0.00  0.00    +0.000 HD
ENDROOT
BRANCH   1   5
ATOM      5  C   UNL     1       3.386   5.600  18.953  0.00  0.00    +0.000 C 
BRANCH   5  11
ATOM      6  C   UNL     1       0.951   3.998  20.345  0.00  0.00    +0.000 C 
ATOM      7  C   UNL     1       1.571   3.761  19.025  0.00  0.00    +0.000 A 
ATOM      8  N   UNL     1       1.235   2.809  18.175  0.00  0.00    +0.000 NA
ATOM      9  N   UNL     1       2.075   2.926  17.102  0.00  0.00    +0.000 NA
ATOM     10  N   UNL     1       2.919   3.930  17.270  0.00  0.00    +0.000 NA
ATOM     11  N   UNL     1       2.625   4.451  18.480  0.00  0.00    +0.000 N 
ENDBRANCH   5  11
BRANCH   5  12
ATOM     12  C   UNL     1       2.595   6.915  18.999  0.00  0.00    +0.000 A 
ATOM     13  C   UNL     1       2.023   7.448  20.167  0.00  0.00    +0.000 A 
ATOM     14  C   UNL     1       1.348   8.673  20.149  0.00  0.00    +0.000 A 
ATOM     15  C   UNL     1       1.254   9.406  18.972  0.00  0.00    +0.000 A 
ATOM     16  C   UNL     1       1.830   8.912  17.806  0.00  0.00    +0.000 A 
ATOM     17  C   UNL     1       2.492   7.681  17.819  0.00  0.00    +0.000 A 
ENDBRANCH   5  12
ENDBRANCH   1   5
BRANCH   3  18
ATOM     18  C   UNL     1       6.891   4.594  17.795  0.00  0.00    +0.000 C 
BRANCH  18  19
ATOM     19  C   UNL     1       6.868   4.624  16.311  0.00  0.00    +0.000 A 
ATOM     20  N   UNL     1       6.282   3.797  15.469  0.00  0.00    +0.000 NA
ATOM     21  C   UNL     1       6.579   4.327  14.215  0.00  0.00    +0.000 A 
ATOM     22  N   UNL     1       7.336   5.442  14.280  0.00  0.00    +0.000 NA
ATOM     23  N   UNL     1       7.499   5.602  15.600  0.00  0.00    +0.000 N 
ATOM     24  H   UNL     1       8.035   6.394  15.940  0.00  0.00    +0.000 HD
BRANCH  21  25
ATOM     25  C   UNL     1       6.086   3.721  12.914  0.00  0.00    +0.000 C 
ATOM     26  F   UNL     1       6.745   4.209  11.829  0.00  0.00    +0.000 F 
ATOM     27  F   UNL     1       6.243   2.367  12.886  0.00  0.00    +0.000 F 
ATOM     28  F   UNL     1       4.763   3.964  12.698  0.00  0.00    +0.000 F 
ENDBRANCH  21  25
ENDBRANCH  18  19
ENDBRANCH   3  18
TORSDOF 6
ENDMDL
MODEL 4
REMARK VINA RESULT:      -9.2      0.971      1.258
REMARK  Name = 
REMARK  7 active torsions:
REMARK  status: ('A' for Active; 'I' for Inactive)
REMARK    1  A    between atoms: C_1  and  C_2
REMARK    2  A    between atoms: N_6  and  C_7
REMARK    3  A    between atoms: C_7  and  C_8
REMARK    4  A    between atoms: C_7  and  C_21
REMARK    5  A    between atoms: N_10  and  C_11
REMARK    6  A    between atoms: C_11  and  C_12
REMARK    7  A    between atoms: C_14  and  C_15
REMARK                            x       y       z     vdW  Elec       q    Type
REMARK                         _______ _______ _______ _____ _____    ______ ____
ROOT
ATOM      1  C   UNL     1       5.032   4.736  19.179  0.00  0.00    +0.000 C 
ATOM      2  O   UNL     1       5.862   4.319  19.989  0.00  0.00    +0.000 OA
ATOM      3  N   UNL     1       5.406   5.010  17.876  0.00  0.00    +0.000 N 
ATOM      4  H   UNL     1       4.789   5.492  17.222  0.00  0.00    +0.000 HD
ENDROOT
BRANCH   1   5
ATOM      5  C   UNL     1       3.545   4.921  19.509  0.00  0.00    +0.000 C 
BRANCH   5  11
ATOM      6  C   UNL     1       1.131   3.239  20.842  0.00  0.00    +0.000 C 
ATOM      7  C   UNL     1       1.714   3.097  19.491  0.00  0.00    +0.000 A 
ATOM      8  N   UNL     1       1.347   2.213  18.582  0.00  0.00    +0.000 NA
ATOM      9  N   UNL     1       2.161   2.404  17.499  0.00  0.00    +0.000 NA
ATOM     10  N   UNL     1       3.018   3.386  17.719  0.00  0.00    +0.000 NA
ATOM     11  N   UNL     1       2.761   3.818  18.972  0.00  0.00    +0.000 N 
ENDBRANCH   5  11
BRANCH   5  12
ATOM     12  C   UNL     1       2.980   6.315  19.201  0.00  0.00    +0.000 A 
ATOM     13  C   UNL     1       3.148   6.980  17.974  0.00  0.00    +0.000 A 
ATOM     14  C   UNL     1       2.572   8.233  17.744  0.00  0.00    +0.000 A 
ATOM     15  C   UNL     1       1.791   8.838  18.723  0.00  0.00    +0.000 A 
ATOM     16  C   UNL     1       1.590   8.193  19.938  0.00  0.00    +0.000 A 
ATOM     17  C   UNL     1       2.178   6.947  20.175  0.00  0.00    +0.000 A 
ENDBRANCH   5  12
ENDBRANCH   1   5
BRANCH   3  18
ATOM     18  C   UNL     1       6.758   4.737  17.441  0.00  0.00    +0.000 C 
BRANCH  18  19
ATOM     19  C   UNL     1       6.830   4.675  15.960  0.00  0.00    +0.000 A 
ATOM     20  N   UNL     1       6.205   3.866  15.128  0.00  0.00    +0.000 NA
ATOM     21  C   UNL     1       6.636   4.279  13.870  0.00  0.00    +0.000 A 
ATOM     22  N   UNL     1       7.511   5.305  13.923  0.00  0.00    +0.000 NA
ATOM     23  N   UNL     1       7.611   5.530  15.240  0.00  0.00    +0.000 N 
ATOM     24  H   UNL     1       8.213   6.276  15.570  0.00  0.00    +0.000 HD
BRANCH  21  25
ATOM     25  C   UNL     1       6.158   3.651  12.574  0.00  0.00    +0.000 C 
ATOM     26  F   UNL     1       6.419   2.317  12.512  0.00  0.00    +0.000 F 
ATOM     27  F   UNL     1       4.813   3.789  12.402  0.00  0.00    +0.000 F 
ATOM     28  F   UNL     1       6.750   4.207  11.480  0.00  0.00    +0.000 F 
ENDBRANCH  21  25
ENDBRANCH  18  19
ENDBRANCH   3  18
TORSDOF 6
ENDMDL
MODEL 5
REMARK VINA RESULT:      -8.8      1.025      1.612
REMARK  Name = 
REMARK  7 active torsions:
REMARK  status: ('A' for Active; 'I' for Inactive)
REMARK    1  A    between atoms: C_1  and  C_2
REMARK    2  A    between atoms: N_6  and  C_7
REMARK    3  A    between atoms: C_7  and  C_8
REMARK    4  A    between atoms: C_7  and  C_21
REMARK    5  A    between atoms: N_10  and  C_11
REMARK    6  A    between atoms: C_11  and  C_12
REMARK    7  A    between atoms: C_14  and  C_15
REMARK                            x       y       z     vdW  Elec       q    Type
REMARK                         _______ _______ _______ _____ _____    ______ ____
ROOT
ATOM      1  C   UNL     1       5.076   4.818  19.051  0.00  0.00    +0.000 C 
ATOM      2  O   UNL     1       5.975   4.605  19.865  0.00  0.00    +0.000 OA
ATOM      3  N   UNL     1       5.366   4.923  17.703  0.00  0.00    +0.000 N 
ATOM      4  H   UNL     1       4.679   5.243  17.020  0.00  0.00    +0.000 HD
ENDROOT
BRANCH   1   5
ATOM      5  C   UNL     1       3.593   4.920  19.432  0.00  0.00    +0.000 C 
BRANCH   5  11
ATOM      6  C   UNL     1       1.180   3.209  20.730  0.00  0.00    +0.000 C 
ATOM      7  C   UNL     1       1.804   3.054  19.399  0.00  0.00    +0.000 A 
ATOM      8  N   UNL     1       1.482   2.146  18.498  0.00  0.00    +0.000 NA
ATOM      9  N   UNL     1       2.321   2.335  17.433  0.00  0.00    +0.000 NA
ATOM     10  N   UNL     1       3.150   3.340  17.659  0.00  0.00    +0.000 NA
ATOM     11  N   UNL     1       2.848   3.789  18.895  0.00  0.00    +0.000 N 
ENDBRANCH   5  11
BRANCH   5  12
ATOM     12  C   UNL     1       2.947   6.289  19.175  0.00  0.00    +0.000 A 
ATOM     13  C   UNL     1       2.141   6.966  20.107  0.00  0.00    +0.000 A 
ATOM     14  C   UNL     1       1.616   8.231  19.825  0.00  0.00    +0.000 A 
ATOM     15  C   UNL     1       1.906   8.861  18.620  0.00  0.00    +0.000 A 
ATOM     16  C   UNL     1       2.719   8.222  17.689  0.00  0.00    +0.000 A 
ATOM     17  C   UNL     1       3.233   6.951  17.963  0.00  0.00    +0.000 A 
ENDBRANCH   5  12
ENDBRANCH   1   5
BRANCH   3  18
ATOM     18  C   UNL     1       6.719   4.707  17.238  0.00  0.00    +0.000 C 
BRANCH  18  19
ATOM     19  C   UNL     1       6.755   4.606  15.757  0.00  0.00    +0.000 A 
ATOM     20  N   UNL     1       6.211   3.700  14.970  0.00  0.00    +0.000 NA
ATOM     21  C   UNL     1       6.551   4.122  13.687  0.00  0.00    +0.000 A 
ATOM     22  N   UNL     1       7.293   5.250  13.681  0.00  0.00    +0.000 NA
ATOM     23  N   UNL     1       7.402   5.527  14.987  0.00  0.00    +0.000 N 
ATOM     24  H   UNL     1       7.916   6.352  15.276  0.00  0.00    +0.000 HD
BRANCH  21  25
ATOM     25  C   UNL     1       6.117   3.398  12.426  0.00  0.00    +0.000 C 
ATOM     26  F   UNL     1       7.165   3.075  11.622  0.00  0.00    +0.000 F 
ATOM     27  F   UNL     1       5.467   2.232  12.701  0.00  0.00    +0.000 F 
ATOM     28  F   UNL     1       5.268   4.145  11.666  0.00  0.00    +0.000 F 
ENDBRANCH  21  25
ENDBRANCH  18  19
ENDBRANCH   3  18
TORSDOF 6
ENDMDL
MODEL 6
REMARK VINA RESULT:      -8.7      1.245      1.818
REMARK  Name = 
REMARK  7 active torsions:
REMARK  status: ('A' for Active; 'I' for Inactive)
REMARK    1  A    between atoms: C_1  and  C_2
REMARK    2  A    between atoms: N_6  and  C_7
REMARK    3  A    between atoms: C_7  and  C_8
REMARK    4  A    between atoms: C_7  and  C_21
REMARK    5  A    between atoms: N_10  and  C_11
REMARK    6  A    between atoms: C_11  and  C_12
REMARK    7  A    between atoms: C_14  and  C_15
REMARK                            x       y       z     vdW  Elec       q    Type
REMARK                         _______ _______ _______ _____ _____    ______ ____
ROOT
ATOM      1  C   UNL     1       5.489   4.975  18.993  0.00  0.00    +0.000 C 
ATOM      2  O   UNL     1       6.448   5.272  19.707  0.00  0.00    +0.000 OA
ATOM      3  N   UNL     1       5.686   4.636  17.667  0.00  0.00    +0.000 N 
ATOM      4  H   UNL     1       4.912   4.529  17.011  0.00  0.00    +0.000 HD
ENDROOT
BRANCH   1   5
ATOM      5  C   UNL     1       4.045   4.891  19.505  0.00  0.00    +0.000 C 
BRANCH   5  11
ATOM      6  C   UNL     1       1.421   4.469  17.669  0.00  0.00    +0.000 C 
ATOM      7  C   UNL     1       2.315   3.442  18.244  0.00  0.00    +0.000 A 
ATOM      8  N   UNL     1       2.172   2.137  18.116  0.00  0.00    +0.000 NA
ATOM      9  N   UNL     1       3.190   1.559  18.825  0.00  0.00    +0.000 NA
ATOM     10  N   UNL     1       3.956   2.479  19.385  0.00  0.00    +0.000 NA
ATOM     11  N   UNL     1       3.409   3.664  19.043  0.00  0.00    +0.000 N 
ENDBRANCH   5  11
BRANCH   5  12
ATOM     12  C   UNL     1       3.207   6.161  19.299  0.00  0.00    +0.000 A 
ATOM     13  C   UNL     1       2.303   6.669  20.247  0.00  0.00    +0.000 A 
ATOM     14  C   UNL     1       1.599   7.855  20.013  0.00  0.00    +0.000 A 
ATOM     15  C   UNL     1       1.804   8.575  18.842  0.00  0.00    +0.000 A 
ATOM     16  C   UNL     1       2.709   8.106  17.896  0.00  0.00    +0.000 A 
ATOM     17  C   UNL     1       3.402   6.912  18.121  0.00  0.00    +0.000 A 
ENDBRANCH   5  12
ENDBRANCH   1   5
BRANCH   3  18
ATOM     18  C   UNL     1       7.029   4.558  17.134  0.00  0.00    +0.000 C 
BRANCH  18  19
ATOM     19  C   UNL     1       7.004   4.548  15.650  0.00  0.00    +0.000 A 
ATOM     20  N   UNL     1       6.364   3.736  14.832  0.00  0.00    +0.000 NA
ATOM     21  C   UNL     1       6.690   4.211  13.564  0.00  0.00    +0.000 A 
ATOM     22  N   UNL     1       7.516   5.278  13.596  0.00  0.00    +0.000 NA
ATOM     23  N   UNL     1       7.693   5.464  14.911  0.00  0.00    +0.000 N 
ATOM     24  H   UNL     1       8.279   6.229  15.228  0.00  0.00    +0.000 HD
BRANCH  21  25
ATOM     25  C   UNL     1       6.157   3.602  12.281  0.00  0.00    +0.000 C 
ATOM     26  F   UNL     1       6.576   4.268  11.172  0.00  0.00    +0.000 F 
ATOM     27  F   UNL     1       6.551   2.306  12.124  0.00  0.00    +0.000 F 
ATOM     28  F   UNL     1       4.795   3.602  12.234  0.00  0.00    +0.000 F 
ENDBRANCH  21  25
ENDBRANCH  18  19
ENDBRANCH   3  18
TORSDOF 6
ENDMDL
MODEL 7
REMARK VINA RESULT:      -8.7      0.925      1.375
REMARK  Name = 
REMARK  7 active torsions:
REMARK  status: ('A' for Active; 'I' for Inactive)
REMARK    1  A    between atoms: C_1  and  C_2
REMARK    2  A    between atoms: N_6  and  C_7
REMARK    3  A    between atoms: C_7  and  C_8
REMARK    4  A    between atoms: C_7  and  C_21
REMARK    5  A    between atoms: N_10  and  C_11
REMARK    6  A    between atoms: C_11  and  C_12
REMARK    7  A    between atoms: C_14  and  C_15
REMARK                            x       y       z     vdW  Elec       q    Type
REMARK                         _______ _______ _______ _____ _____    ______ ____
ROOT
ATOM      1  C   UNL     1       4.765   5.696  18.699  0.00  0.00    +0.000 C 
ATOM      2  O   UNL     1       5.716   5.238  19.335  0.00  0.00    +0.000 OA
ATOM      3  N   UNL     1       4.957   6.215  17.432  0.00  0.00    +0.000 N 
ATOM      4  H   UNL     1       4.230   6.732  16.938  0.00  0.00    +0.000 HD
ENDROOT
BRANCH   1   5
ATOM      5  C   UNL     1       3.317   5.674  19.207  0.00  0.00    +0.000 C 
BRANCH   5  11
ATOM      6  C   UNL     1       0.868   3.931  20.390  0.00  0.00    +0.000 C 
ATOM      7  C   UNL     1       1.525   3.815  19.071  0.00  0.00    +0.000 A 
ATOM      8  N   UNL     1       1.225   2.937  18.133  0.00  0.00    +0.000 NA
ATOM      9  N   UNL     1       2.091   3.156  17.097  0.00  0.00    +0.000 NA
ATOM     10  N   UNL     1       2.916   4.151  17.375  0.00  0.00    +0.000 NA
ATOM     11  N   UNL     1       2.584   4.562  18.616  0.00  0.00    +0.000 N 
ENDBRANCH   5  11
BRANCH   5  12
ATOM     12  C   UNL     1       2.586   7.024  19.148  0.00  0.00    +0.000 A 
ATOM     13  C   UNL     1       2.412   7.773  17.972  0.00  0.00    +0.000 A 
ATOM     14  C   UNL     1       1.701   8.977  17.979  0.00  0.00    +0.000 A 
ATOM     15  C   UNL     1       1.123   9.445  19.154  0.00  0.00    +0.000 A 
ATOM     16  C   UNL     1       1.262   8.712  20.328  0.00  0.00    +0.000 A 
ATOM     17  C   UNL     1       1.986   7.516  20.326  0.00  0.00    +0.000 A 
ENDBRANCH   5  12
ENDBRANCH   1   5
BRANCH   3  18
ATOM     18  C   UNL     1       6.267   6.153  16.819  0.00  0.00    +0.000 C 
BRANCH  18  19
ATOM     19  C   UNL     1       6.272   5.190  15.689  0.00  0.00    +0.000 A 
ATOM     20  N   UNL     1       6.500   5.407  14.410  0.00  0.00    +0.000 NA
ATOM     21  C   UNL     1       6.394   4.145  13.830  0.00  0.00    +0.000 A 
ATOM     22  N   UNL     1       6.098   3.178  14.724  0.00  0.00    +0.000 NA
ATOM     23  N   UNL     1       6.029   3.861  15.874  0.00  0.00    +0.000 N 
ATOM     24  H   UNL     1       5.824   3.364  16.734  0.00  0.00    +0.000 HD
BRANCH  21  25
ATOM     25  C   UNL     1       6.608   3.884  12.351  0.00  0.00    +0.000 C 
ATOM     26  F   UNL     1       7.228   2.697  12.115  0.00  0.00    +0.000 F 
ATOM     27  F   UNL     1       5.433   3.850  11.661  0.00  0.00    +0.000 F 
ATOM     28  F   UNL     1       7.378   4.841  11.762  0.00  0.00    +0.000 F 
ENDBRANCH  21  25
ENDBRANCH  18  19
ENDBRANCH   3  18
TORSDOF 6
ENDMDL
MODEL 8
REMARK VINA RESULT:      -8.6      0.939      1.480
REMARK  Name = 
REMARK  7 active torsions:
REMARK  status: ('A' for Active; 'I' for Inactive)
REMARK    1  A    between atoms: C_1  and  C_2
REMARK    2  A    between atoms: N_6  and  C_7
REMARK    3  A    between atoms: C_7  and  C_8
REMARK    4  A    between atoms: C_7  and  C_21
REMARK    5  A    between atoms: N_10  and  C_11
REMARK    6  A    between atoms: C_11  and  C_12
REMARK    7  A    between atoms: C_14  and  C_15
REMARK                            x       y       z     vdW  Elec       q    Type
REMARK                         _______ _______ _______ _____ _____    ______ ____
ROOT
ATOM      1  C   UNL     1       4.707   5.654  18.696  0.00  0.00    +0.000 C 
ATOM      2  O   UNL     1       5.665   5.092  19.230  0.00  0.00    +0.000 OA
ATOM      3  N   UNL     1       4.875   6.338  17.506  0.00  0.00    +0.000 N 
ATOM      4  H   UNL     1       4.147   6.934  17.112  0.00  0.00    +0.000 HD
ENDROOT
BRANCH   1   5
ATOM      5  C   UNL     1       3.276   5.596  19.245  0.00  0.00    +0.000 C 
BRANCH   5  11
ATOM      6  C   UNL     1       0.807   3.884  20.433  0.00  0.00    +0.000 C 
ATOM      7  C   UNL     1       1.487   3.733  19.129  0.00  0.00    +0.000 A 
ATOM      8  N   UNL     1       1.203   2.829  18.211  0.00  0.00    +0.000 NA
ATOM      9  N   UNL     1       2.087   3.020  17.184  0.00  0.00    +0.000 NA
ATOM     10  N   UNL     1       2.907   4.023  17.449  0.00  0.00    +0.000 NA
ATOM     11  N   UNL     1       2.553   4.468  18.672  0.00  0.00    +0.000 N 
ENDBRANCH   5  11
BRANCH   5  12
ATOM     12  C   UNL     1       2.511   6.927  19.211  0.00  0.00    +0.000 A 
ATOM     13  C   UNL     1       1.941   7.536  20.342  0.00  0.00    +0.000 A 
ATOM     14  C   UNL     1       1.292   8.771  20.249  0.00  0.00    +0.000 A 
ATOM     15  C   UNL     1       1.223   9.439  19.032  0.00  0.00    +0.000 A 
ATOM     16  C   UNL     1       1.798   8.870  17.901  0.00  0.00    +0.000 A 
ATOM     17  C   UNL     1       2.434   7.628  17.989  0.00  0.00    +0.000 A 
ENDBRANCH   5  12
ENDBRANCH   1   5
BRANCH   3  18
ATOM     18  C   UNL     1       6.163   6.331  16.846  0.00  0.00    +0.000 C 
BRANCH  18  19
ATOM     19  C   UNL     1       6.198   5.303  15.776  0.00  0.00    +0.000 A 
ATOM     20  N   UNL     1       6.347   5.458  14.475  0.00  0.00    +0.000 NA
ATOM     21  C   UNL     1       6.323   4.157  13.977  0.00  0.00    +0.000 A 
ATOM     22  N   UNL     1       6.153   3.227  14.940  0.00  0.00    +0.000 NA
ATOM     23  N   UNL     1       6.079   3.973  16.050  0.00  0.00    +0.000 N 
ATOM     24  H   UNL     1       5.959   3.514  16.947  0.00  0.00    +0.000 HD
BRANCH  21  25
ATOM     25  C   UNL     1       6.490   3.822  12.507  0.00  0.00    +0.000 C 
ATOM     26  F   UNL     1       5.316   3.880  11.822  0.00  0.00    +0.000 F 
ATOM     27  F   UNL     1       7.346   4.677  11.879  0.00  0.00    +0.000 F 
ATOM     28  F   UNL     1       6.983   2.566  12.314  0.00  0.00    +0.000 F 
ENDBRANCH  21  25
ENDBRANCH  18  19
ENDBRANCH   3  18
TORSDOF 6
ENDMDL
MODEL 9
REMARK VINA RESULT:      -8.5      1.326      1.850
REMARK  Name = 
REMARK  7 active torsions:
REMARK  status: ('A' for Active; 'I' for Inactive)
REMARK    1  A    between atoms: C_1  and  C_2
REMARK    2  A    between atoms: N_6  and  C_7
REMARK    3  A    between atoms: C_7  and  C_8
REMARK    4  A    between atoms: C_7  and  C_21
REMARK    5  A    between atoms: N_10  and  C_11
REMARK    6  A    between atoms: C_11  and  C_12
REMARK    7  A    between atoms: C_14  and  C_15
REMARK                            x       y       z     vdW  Elec       q    Type
REMARK                         _______ _______ _______ _____ _____    ______ ____
ROOT
ATOM      1  C   UNL     1       4.877   4.342  19.283  0.00  0.00    +0.000 C 
ATOM      2  O   UNL     1       5.355   3.305  19.746  0.00  0.00    +0.000 OA
ATOM      3  N   UNL     1       5.569   5.062  18.326  0.00  0.00    +0.000 N 
ATOM      4  H   UNL     1       5.279   5.994  18.030  0.00  0.00    +0.000 HD
ENDROOT
BRANCH   1   5
ATOM      5  C   UNL     1       3.490   4.879  19.661  0.00  0.00    +0.000 C 
BRANCH   5  11
ATOM      6  C   UNL     1       2.692   3.194  17.023  0.00  0.00    +0.000 C 
ATOM      7  C   UNL     1       2.123   3.095  18.383  0.00  0.00    +0.000 A 
ATOM      8  N   UNL     1       1.146   2.289  18.754  0.00  0.00    +0.000 NA
ATOM      9  N   UNL     1       0.911   2.541  20.078  0.00  0.00    +0.000 NA
ATOM     10  N   UNL     1       1.721   3.483  20.531  0.00  0.00    +0.000 NA
ATOM     11  N   UNL     1       2.475   3.851  19.474  0.00  0.00    +0.000 N 
ENDBRANCH   5  11
BRANCH   5  12
ATOM     12  C   UNL     1       3.134   6.244  19.055  0.00  0.00    +0.000 A 
ATOM     13  C   UNL     1       3.551   6.673  17.783  0.00  0.00    +0.000 A 
ATOM     14  C   UNL     1       3.157   7.915  17.273  0.00  0.00    +0.000 A 
ATOM     15  C   UNL     1       2.317   8.743  18.008  0.00  0.00    +0.000 A 
ATOM     16  C   UNL     1       1.872   8.333  19.261  0.00  0.00    +0.000 A 
ATOM     17  C   UNL     1       2.277   7.099  19.779  0.00  0.00    +0.000 A 
ENDBRANCH   5  12
ENDBRANCH   1   5
BRANCH   3  18
ATOM     18  C   UNL     1       6.824   4.559  17.812  0.00  0.00    +0.000 C 
BRANCH  18  19
ATOM     19  C   UNL     1       6.832   4.588  16.328  0.00  0.00    +0.000 A 
ATOM     20  N   UNL     1       6.215   3.796  15.475  0.00  0.00    +0.000 NA
ATOM     21  C   UNL     1       6.567   4.306  14.228  0.00  0.00    +0.000 A 
ATOM     22  N   UNL     1       7.387   5.375  14.307  0.00  0.00    +0.000 NA
ATOM     23  N   UNL     1       7.533   5.526  15.630  0.00  0.00    +0.000 N 
ATOM     24  H   UNL     1       8.108   6.285  15.980  0.00  0.00    +0.000 HD
BRANCH  21  25
ATOM     25  C   UNL     1       6.065   3.729  12.917  0.00  0.00    +0.000 C 
ATOM     26  F   UNL     1       6.225   2.381  12.844  0.00  0.00    +0.000 F 
ATOM     27  F   UNL     1       4.738   3.972  12.724  0.00  0.00    +0.000 F 
ATOM     28  F   UNL     1       6.716   4.250  11.839  0.00  0.00    +0.000 F 
ENDBRANCH  21  25
ENDBRANCH  18  19
ENDBRANCH   3  18
TORSDOF 6
ENDMDL
