MODEL 1
REMARK VINA RESULT:      -5.7      0.000      0.000
REMARK  Name = 
REMARK  7 active torsions:
REMARK  status: ('A' for Active; 'I' for Inactive)
REMARK    1  A    between atoms: C_1  and  N_2
REMARK    2  A    between atoms: N_2  and  C_3
REMARK    3  A    between atoms: C_3  and  C_4
REMARK    4  A    between atoms: C_3  and  C_5
REMARK    5  A    between atoms: C_5  and  C_6
REMARK    6  A    between atoms: C_9  and  S_10
REMARK    7  A    between atoms: S_10  and  C_11
REMARK                            x       y       z     vdW  Elec       q    Type
REMARK                         _______ _______ _______ _____ _____    ______ ____
ROOT
ATOM      1  C   UNL     1       4.214   5.203  17.120  0.00  0.00    +0.000 A 
ATOM      2  C   UNL     1       4.088   3.823  16.923  0.00  0.00    +0.000 A 
ATOM      3  C   UNL     1       3.056   3.109  17.544  0.00  0.00    +0.000 A 
ATOM      4  C   UNL     1       2.139   3.755  18.382  0.00  0.00    +0.000 A 
ATOM      5  C   UNL     1       2.245   5.136  18.546  0.00  0.00    +0.000 A 
ATOM      6  C   UNL     1       3.273   5.853  17.927  0.00  0.00    +0.000 A 
ENDROOT
BRANCH   4   7
ATOM      7  S   UNL     1       0.871   2.773  19.168  0.00  0.00    +0.000 S 
ATOM      8  C   UNL     1       1.373   2.846  20.910  0.00  0.00    +0.000 C 
ENDBRANCH   4   7
BRANCH   1   9
ATOM      9  C   UNL     1       5.366   5.983  16.523  0.00  0.00    +0.000 C 
BRANCH   9  10
ATOM     10  C   UNL     1       6.763   5.706  17.134  0.00  0.00    +0.000 C 
ATOM     11  C   UNL     1       7.439   7.053  17.424  0.00  0.00    +0.000 C 
BRANCH  10  13
ATOM     12  C   UNL     1       7.033   4.850  14.858  0.00  0.00    +0.000 C 
ATOM     13  N   UNL     1       7.566   4.878  16.214  0.00  0.00    +0.000 NA
ATOM     14  H   UNL     1       8.511   5.266  16.180  0.00  0.00    +0.000 HD
ENDBRANCH  10  13
ENDBRANCH   9  10
ENDBRANCH   1   9
TORSDOF 4
ENDMDL
MODEL 2
REMARK VINA RESULT:      -5.6      0.740      1.523
REMARK  Name = 
REMARK  7 active torsions:
REMARK  status: ('A' for Active; 'I' for Inactive)
REMARK    1  A    between atoms: C_1  and  N_2
REMARK    2  A    between atoms: N_2  and  C_3
REMARK    3  A    between atoms: C_3  and  C_4
REMARK    4  A    between atoms: C_3  and  C_5
REMARK    5  A    between atoms: C_5  and  C_6
REMARK    6  A    between atoms: C_9  and  S_10
REMARK    7  A    between atoms: S_10  and  C_11
REMARK                            x       y       z     vdW  Elec       q    Type
REMARK                         _______ _______ _______ _____ _____    ______ ____
ROOT
ATOM      1  C   UNL     1       4.257   5.700  17.359  0.00  0.00    +0.000 A 
ATOM      2  C   UNL     1       3.487   6.418  18.281  0.00  0.00    +0.000 A 
ATOM      3  C   UNL     1       2.513   5.769  19.050  0.00  0.00    +0.000 A 
ATOM      4  C   UNL     1       2.280   4.396  18.905  0.00  0.00    +0.000 A 
ATOM      5  C   UNL     1       3.075   3.676  18.011  0.00  0.00    +0.000 A 
ATOM      6  C   UNL     1       4.049   4.320  17.243  0.00  0.00    +0.000 A 
ENDROOT
BRANCH   4   7
ATOM      7  S   UNL     1       0.996   3.644  19.893  0.00  0.00    +0.000 S 
ATOM      8  C   UNL     1       1.890   3.250  21.423  0.00  0.00    +0.000 C 
ENDBRANCH   4   7
BRANCH   1   9
ATOM      9  C   UNL     1       5.260   6.391  16.462  0.00  0.00    +0.000 C 
BRANCH   9  10
ATOM     10  C   UNL     1       6.746   6.014  16.686  0.00  0.00    +0.000 C 
ATOM     11  C   UNL     1       7.435   7.173  17.418  0.00  0.00    +0.000 C 
BRANCH  10  13
ATOM     12  C   UNL     1       6.844   4.544  14.733  0.00  0.00    +0.000 C 
ATOM     13  N   UNL     1       7.397   5.718  15.395  0.00  0.00    +0.000 NA
ATOM     14  H   UNL     1       7.265   6.525  14.781  0.00  0.00    +0.000 HD
ENDBRANCH  10  13
ENDBRANCH   9  10
ENDBRANCH   1   9
TORSDOF 4
ENDMDL
MODEL 3
REMARK VINA RESULT:      -5.4      1.321      1.321
REMARK  Name = 
REMARK  7 active torsions:
REMARK  status: ('A' for Active; 'I' for Inactive)
REMARK    1  A    between atoms: C_1  and  N_2
REMARK    2  A    between atoms: N_2  and  C_3
REMARK    3  A    between atoms: C_3  and  C_4
REMARK    4  A    between atoms: C_3  and  C_5
REMARK    5  A    between atoms: C_5  and  C_6
REMARK    6  A    between atoms: C_9  and  S_10
REMARK    7  A    between atoms: S_10  and  C_11
REMARK                            x       y       z     vdW  Elec       q    Type
REMARK                         _______ _______ _______ _____ _____    ______ ____
ROOT
ATOM      1  C   UNL     1       4.444   6.033  17.967  0.00  0.00    +0.000 A 
ATOM      2  C   UNL     1       4.792   4.910  18.726  0.00  0.00    +0.000 A 
ATOM      3  C   UNL     1       3.817   4.218  19.456  0.00  0.00    +0.000 A 
ATOM      4  C   UNL     1       2.482   4.638  19.451  0.00  0.00    +0.000 A 
ATOM      5  C   UNL     1       2.132   5.735  18.663  0.00  0.00    +0.000 A 
ATOM      6  C   UNL     1       3.101   6.429  17.933  0.00  0.00    +0.000 A 
ENDROOT
BRANCH   4   7
ATOM      7  S   UNL     1       1.302   3.726  20.435  0.00  0.00    +0.000 S 
ATOM      8  C   UNL     1       2.390   2.802  21.555  0.00  0.00    +0.000 C 
ENDBRANCH   4   7
BRANCH   1   9
ATOM      9  C   UNL     1       5.490   6.844  17.233  0.00  0.00    +0.000 C 
BRANCH   9  10
ATOM     10  C   UNL     1       6.940   6.300  17.297  0.00  0.00    +0.000 C 
ATOM     11  C   UNL     1       7.833   7.378  17.925  0.00  0.00    +0.000 C 
BRANCH  10  13
ATOM     12  C   UNL     1       6.958   4.597  15.540  0.00  0.00    +0.000 C 
ATOM     13  N   UNL     1       7.402   5.925  15.947  0.00  0.00    +0.000 NA
ATOM     14  H   UNL     1       7.028   6.606  15.282  0.00  0.00    +0.000 HD
ENDBRANCH  10  13
ENDBRANCH   9  10
ENDBRANCH   1   9
TORSDOF 4
ENDMDL
MODEL 4
REMARK VINA RESULT:      -5.4      1.360      1.748
REMARK  Name = 
REMARK  7 active torsions:
REMARK  status: ('A' for Active; 'I' for Inactive)
REMARK    1  A    between atoms: C_1  and  N_2
REMARK    2  A    between atoms: N_2  and  C_3
REMARK    3  A    between atoms: C_3  and  C_4
REMARK    4  A    between atoms: C_3  and  C_5
REMARK    5  A    between atoms: C_5  and  C_6
REMARK    6  A    between atoms: C_9  and  S_10
REMARK    7  A    between atoms: S_10  and  C_11
REMARK                            x       y       z     vdW  Elec       q    Type
REMARK                         _______ _______ _______ _____ _____    ______ ____
ROOT
ATOM      1  C   UNL     1       4.408   3.884  17.288  0.00  0.00    +0.000 A 
ATOM      2  C   UNL     1       4.656   4.130  18.643  0.00  0.00    +0.000 A 
ATOM      3  C   UNL     1       3.609   4.100  19.572  0.00  0.00    +0.000 A 
ATOM      4  C   UNL     1       2.295   3.836  19.167  0.00  0.00    +0.000 A 
ATOM      5  C   UNL     1       2.058   3.555  17.821  0.00  0.00    +0.000 A 
ATOM      6  C   UNL     1       3.100   3.582  16.890  0.00  0.00    +0.000 A 
ENDROOT
BRANCH   4   7
ATOM      7  S   UNL     1       1.006   3.850  20.403  0.00  0.00    +0.000 S 
ATOM      8  C   UNL     1       1.676   2.713  21.648  0.00  0.00    +0.000 C 
ENDBRANCH   4   7
BRANCH   1   9
ATOM      9  C   UNL     1       5.508   3.987  16.254  0.00  0.00    +0.000 C 
BRANCH   9  10
ATOM     10  C   UNL     1       6.230   5.355  16.163  0.00  0.00    +0.000 C 
ATOM     11  C   UNL     1       5.227   6.399  15.656  0.00  0.00    +0.000 C 
BRANCH  10  13
ATOM     12  C   UNL     1       7.068   4.851  13.920  0.00  0.00    +0.000 C 
ATOM     13  N   UNL     1       7.407   5.252  15.279  0.00  0.00    +0.000 NA
ATOM     14  H   UNL     1       7.857   6.170  15.240  0.00  0.00    +0.000 HD
ENDBRANCH  10  13
ENDBRANCH   9  10
ENDBRANCH   1   9
TORSDOF 4
ENDMDL
MODEL 5
REMARK VINA RESULT:      -5.3      1.306      2.028
REMARK  Name = 
REMARK  7 active torsions:
REMARK  status: ('A' for Active; 'I' for Inactive)
REMARK    1  A    between atoms: C_1  and  N_2
REMARK    2  A    between atoms: N_2  and  C_3
REMARK    3  A    between atoms: C_3  and  C_4
REMARK    4  A    between atoms: C_3  and  C_5
REMARK    5  A    between atoms: C_5  and  C_6
REMARK    6  A    between atoms: C_9  and  S_10
REMARK    7  A    between atoms: S_10  and  C_11
REMARK                            x       y       z     vdW  Elec       q    Type
REMARK                         _______ _______ _______ _____ _____    ______ ____
ROOT
ATOM      1  C   UNL     1       5.057   4.205  17.910  0.00  0.00    +0.000 A 
ATOM      2  C   UNL     1       4.945   3.614  19.173  0.00  0.00    +0.000 A 
ATOM      3  C   UNL     1       3.689   3.449  19.770  0.00  0.00    +0.000 A 
ATOM      4  C   UNL     1       2.524   3.881  19.125  0.00  0.00    +0.000 A 
ATOM      5  C   UNL     1       2.636   4.436  17.849  0.00  0.00    +0.000 A 
ATOM      6  C   UNL     1       3.887   4.601  17.249  0.00  0.00    +0.000 A 
ENDROOT
BRANCH   4   7
ATOM      7  S   UNL     1       0.961   3.669  19.963  0.00  0.00    +0.000 S 
ATOM      8  C   UNL     1       1.463   2.778  21.462  0.00  0.00    +0.000 C 
ENDBRANCH   4   7
BRANCH   1   9
ATOM      9  C   UNL     1       6.408   4.465  17.278  0.00  0.00    +0.000 C 
BRANCH   9  10
ATOM     10  C   UNL     1       6.421   5.457  16.087  0.00  0.00    +0.000 C 
ATOM     11  C   UNL     1       6.701   4.665  14.802  0.00  0.00    +0.000 C 
BRANCH  10  13
ATOM     12  C   UNL     1       7.460   6.987  17.689  0.00  0.00    +0.000 C 
ATOM     13  N   UNL     1       7.430   6.509  16.312  0.00  0.00    +0.000 NA
ATOM     14  H   UNL     1       8.350   6.122  16.087  0.00  0.00    +0.000 HD
ENDBRANCH  10  13
ENDBRANCH   9  10
ENDBRANCH   1   9
TORSDOF 4
ENDMDL
MODEL 6
REMARK VINA RESULT:      -5.3      3.418      5.785
REMARK  Name = 
REMARK  7 active torsions:
REMARK  status: ('A' for Active; 'I' for Inactive)
REMARK    1  A    between atoms: C_1  and  N_2
REMARK    2  A    between atoms: N_2  and  C_3
REMARK    3  A    between atoms: C_3  and  C_4
REMARK    4  A    between atoms: C_3  and  C_5
REMARK    5  A    between atoms: C_5  and  C_6
REMARK    6  A    between atoms: C_9  and  S_10
REMARK    7  A    between atoms: S_10  and  C_11
REMARK                            x       y       z     vdW  Elec       q    Type
REMARK                         _______ _______ _______ _____ _____    ______ ____
ROOT
ATOM      1  C   UNL     1       4.094   4.056  18.821  0.00  0.00    +0.000 A 
ATOM      2  C   UNL     1       5.396   4.523  19.033  0.00  0.00    +0.000 A 
ATOM      3  C   UNL     1       6.254   4.748  17.948  0.00  0.00    +0.000 A 
ATOM      4  C   UNL     1       5.834   4.499  16.636  0.00  0.00    +0.000 A 
ATOM      5  C   UNL     1       4.523   4.069  16.427  0.00  0.00    +0.000 A 
ATOM      6  C   UNL     1       3.664   3.844  17.505  0.00  0.00    +0.000 A 
ENDROOT
BRANCH   4   7
ATOM      7  S   UNL     1       6.995   4.774  15.307  0.00  0.00    +0.000 S 
ATOM      8  C   UNL     1       6.150   3.986  13.908  0.00  0.00    +0.000 C 
ENDBRANCH   4   7
BRANCH   1   9
ATOM      9  C   UNL     1       3.175   3.731  19.979  0.00  0.00    +0.000 C 
BRANCH   9  10
ATOM     10  C   UNL     1       1.749   4.334  19.905  0.00  0.00    +0.000 C 
ATOM     11  C   UNL     1       1.791   5.749  20.498  0.00  0.00    +0.000 C 
BRANCH  10  13
ATOM     12  C   UNL     1       1.427   2.628  21.630  0.00  0.00    +0.000 C 
ATOM     13  N   UNL     1       0.793   3.468  20.622  0.00  0.00    +0.000 NA
ATOM     14  H   UNL     1       0.109   4.068  21.088  0.00  0.00    +0.000 HD
ENDBRANCH  10  13
ENDBRANCH   9  10
ENDBRANCH   1   9
TORSDOF 4
ENDMDL
MODEL 7
REMARK VINA RESULT:      -5.3      1.239      1.925
REMARK  Name = 
REMARK  7 active torsions:
REMARK  status: ('A' for Active; 'I' for Inactive)
REMARK    1  A    between atoms: C_1  and  N_2
REMARK    2  A    between atoms: N_2  and  C_3
REMARK    3  A    between atoms: C_3  and  C_4
REMARK    4  A    between atoms: C_3  and  C_5
REMARK    5  A    between atoms: C_5  and  C_6
REMARK    6  A    between atoms: C_9  and  S_10
REMARK    7  A    between atoms: S_10  and  C_11
REMARK                            x       y       z     vdW  Elec       q    Type
REMARK                         _______ _______ _______ _____ _____    ______ ____
ROOT
ATOM      1  C   UNL     1       4.768   4.217  17.579  0.00  0.00    +0.000 A 
ATOM      2  C   UNL     1       3.574   3.639  17.135  0.00  0.00    +0.000 A 
ATOM      3  C   UNL     1       2.448   3.610  17.967  0.00  0.00    +0.000 A 
ATOM      4  C   UNL     1       2.496   4.145  19.260  0.00  0.00    +0.000 A 
ATOM      5  C   UNL     1       3.677   4.753  19.686  0.00  0.00    +0.000 A 
ATOM      6  C   UNL     1       4.803   4.786  18.858  0.00  0.00    +0.000 A 
ENDROOT
BRANCH   4   7
ATOM      7  S   UNL     1       1.031   4.039  20.277  0.00  0.00    +0.000 S 
ATOM      8  C   UNL     1       1.486   2.729  21.447  0.00  0.00    +0.000 C 
ENDBRANCH   4   7
BRANCH   1   9
ATOM      9  C   UNL     1       6.020   4.191  16.729  0.00  0.00    +0.000 C 
BRANCH   9  10
ATOM     10  C   UNL     1       6.261   5.434  15.835  0.00  0.00    +0.000 C 
ATOM     11  C   UNL     1       6.404   4.963  14.381  0.00  0.00    +0.000 C 
BRANCH  10  13
ATOM     12  C   UNL     1       7.159   7.163  17.314  0.00  0.00    +0.000 C 
ATOM     13  N   UNL     1       7.457   6.167  16.293  0.00  0.00    +0.000 NA
ATOM     14  H   UNL     1       8.113   5.489  16.687  0.00  0.00    +0.000 HD
ENDBRANCH  10  13
ENDBRANCH   9  10
ENDBRANCH   1   9
TORSDOF 4
ENDMDL
MODEL 8
REMARK VINA RESULT:      -5.3      1.142      1.585
REMARK  Name = 
REMARK  7 active torsions:
REMARK  status: ('A' for Active; 'I' for Inactive)
REMARK    1  A    between atoms: C_1  and  N_2
REMARK    2  A    between atoms: N_2  and  C_3
REMARK    3  A    between atoms: C_3  and  C_4
REMARK    4  A    between atoms: C_3  and  C_5
REMARK    5  A    between atoms: C_5  and  C_6
REMARK    6  A    between atoms: C_9  and  S_10
REMARK    7  A    between atoms: S_10  and  C_11
REMARK                            x       y       z     vdW  Elec       q    Type
REMARK                         _______ _______ _______ _____ _____    ______ ____
ROOT
ATOM      1  C   UNL     1       4.371   5.544  17.283  0.00  0.00    +0.000 A 
ATOM      2  C   UNL     1       4.316   4.260  16.728  0.00  0.00    +0.000 A 
ATOM      3  C   UNL     1       3.381   3.327  17.194  0.00  0.00    +0.000 A 
ATOM      4  C   UNL     1       2.493   3.651  18.227  0.00  0.00    +0.000 A 
ATOM      5  C   UNL     1       2.526   4.944  18.751  0.00  0.00    +0.000 A 
ATOM      6  C   UNL     1       3.456   5.879  18.289  0.00  0.00    +0.000 A 
ENDROOT
BRANCH   4   7
ATOM      7  S   UNL     1       1.354   2.397  18.792  0.00  0.00    +0.000 S 
ATOM      8  C   UNL     1       0.814   3.079  20.385  0.00  0.00    +0.000 C 
ENDBRANCH   4   7
BRANCH   1   9
ATOM      9  C   UNL     1       5.422   6.544  16.852  0.00  0.00    +0.000 C 
BRANCH   9  10
ATOM     10  C   UNL     1       6.893   6.148  17.134  0.00  0.00    +0.000 C 
ATOM     11  C   UNL     1       7.031   5.834  18.630  0.00  0.00    +0.000 C 
BRANCH  10  13
ATOM     12  C   UNL     1       7.837   8.344  17.660  0.00  0.00    +0.000 C 
ATOM     13  N   UNL     1       7.801   7.234  16.717  0.00  0.00    +0.000 NA
ATOM     14  H   UNL     1       8.745   6.847  16.640  0.00  0.00    +0.000 HD
ENDBRANCH  10  13
ENDBRANCH   9  10
ENDBRANCH   1   9
TORSDOF 4
ENDMDL
MODEL 9
REMARK VINA RESULT:      -5.3      3.278      5.773
REMARK  Name = 
REMARK  7 active torsions:
REMARK  status: ('A' for Active; 'I' for Inactive)
REMARK    1  A    between atoms: C_1  and  N_2
REMARK    2  A    between atoms: N_2  and  C_3
REMARK    3  A    between atoms: C_3  and  C_4
REMARK    4  A    between atoms: C_3  and  C_5
REMARK    5  A    between atoms: C_5  and  C_6
REMARK    6  A    between atoms: C_9  and  S_10
REMARK    7  A    between atoms: S_10  and  C_11
REMARK                            x       y       z     vdW  Elec       q    Type
REMARK                         _______ _______ _______ _____ _____    ______ ____
ROOT
ATOM      1  C   UNL     1       3.090   4.747  17.751  0.00  0.00    +0.000 A 
ATOM      2  C   UNL     1       3.612   3.629  17.092  0.00  0.00    +0.000 A 
ATOM      3  C   UNL     1       4.752   3.748  16.288  0.00  0.00    +0.000 A 
ATOM      4  C   UNL     1       5.384   4.985  16.115  0.00  0.00    +0.000 A 
ATOM      5  C   UNL     1       4.882   6.091  16.803  0.00  0.00    +0.000 A 
ATOM      6  C   UNL     1       3.746   5.976  17.608  0.00  0.00    +0.000 A 
ENDROOT
BRANCH   4   7
ATOM      7  S   UNL     1       6.812   5.067  15.045  0.00  0.00    +0.000 S 
ATOM      8  C   UNL     1       6.332   3.945  13.702  0.00  0.00    +0.000 C 
ENDBRANCH   4   7
BRANCH   1   9
ATOM      9  C   UNL     1       1.815   4.661  18.563  0.00  0.00    +0.000 C 
BRANCH   9  10
ATOM     10  C   UNL     1       1.651   3.392  19.438  0.00  0.00    +0.000 C 
ATOM     11  C   UNL     1       0.637   2.463  18.757  0.00  0.00    +0.000 C 
BRANCH  10  13
ATOM     12  C   UNL     1       2.108   3.249  21.837  0.00  0.00    +0.000 C 
ATOM     13  N   UNL     1       1.224   3.765  20.800  0.00  0.00    +0.000 NA
ATOM     14  H   UNL     1       1.218   4.786  20.862  0.00  0.00    +0.000 HD
ENDBRANCH  10  13
ENDBRANCH   9  10
ENDBRANCH   1   9
TORSDOF 4
ENDMDL
