MODEL 1
REMARK VINA RESULT:      -8.8      0.000      0.000
REMARK  Name = 
REMARK  7 active torsions:
REMARK  status: ('A' for Active; 'I' for Inactive)
REMARK    1  A    between atoms: C_1  and  C_2
REMARK    2  A    between atoms: C_3  and  C_4
REMARK    3  A    between atoms: N_9  and  C_10
REMARK    4  A    between atoms: C_10  and  C_11
REMARK    5  A    between atoms: N_22  and  C_23
REMARK    6  A    between atoms: C_23  and  C_24
REMARK    7  A    between atoms: C_24  and  O_26
REMARK                            x       y       z     vdW  Elec       q    Type
REMARK                         _______ _______ _______ _____ _____    ______ ____
ROOT
ATOM      1  C   UNL     1       1.263   4.840  20.371  0.00  0.00    +0.000 C 
ATOM      2  C   UNL     1       2.290   5.071  19.313  0.00  0.00    +0.000 A 
ATOM      3  C   UNL     1       2.669   6.252  18.703  0.00  0.00    +0.000 A 
ATOM      4  C   UNL     1       3.679   5.966  17.751  0.00  0.00    +0.000 A 
ATOM      5  C   UNL     1       4.405   6.767  16.844  0.00  0.00    +0.000 A 
ATOM      6  C   UNL     1       5.354   6.181  16.009  0.00  0.00    +0.000 A 
ATOM      7  C   UNL     1       5.595   4.811  16.083  0.00  0.00    +0.000 A 
ATOM      8  C   UNL     1       4.890   3.993  16.978  0.00  0.00    +0.000 A 
ATOM      9  C   UNL     1       3.921   4.588  17.805  0.00  0.00    +0.000 A 
ATOM     10  N   UNL     1       3.063   4.060  18.763  0.00  0.00    +0.000 N 
ENDROOT
BRANCH   3  11
ATOM     11  C   UNL     1       2.090   7.534  18.962  0.00  0.00    +0.000 A 
ATOM     12  C   UNL     1       1.730   8.426  17.875  0.00  0.00    +0.000 A 
ATOM     13  C   UNL     1       1.199   9.633  18.112  0.00  0.00    +0.000 A 
ATOM     14  C   UNL     1       0.969  10.088  19.508  0.00  0.00    +0.000 A 
ATOM     15  O   UNL     1       0.479  11.191  19.727  0.00  0.00    +0.000 OA
ATOM     16  N   UNL     1       1.339   9.192  20.507  0.00  0.00    +0.000 N 
ATOM     17  C   UNL     1       1.871   7.947  20.224  0.00  0.00    +0.000 A 
BRANCH  16  18
ATOM     18  C   UNL     1       1.170   9.617  21.902  0.00  0.00    +0.000 C 
BRANCH  18  19
ATOM     19  C   UNL     1      -0.219   9.368  22.504  0.00  0.00    +0.000 C 
ATOM     20  F   UNL     1      -1.075  10.399  22.338  0.00  0.00    +0.000 F 
ATOM     21  F   UNL     1      -0.789   8.257  21.987  0.00  0.00    +0.000 F 
ATOM     22  F   UNL     1      -0.108   9.167  23.843  0.00  0.00    +0.000 F 
ENDBRANCH  18  19
ENDBRANCH  16  18
ENDBRANCH   3  11
BRANCH  10  23
ATOM     23  C   UNL     1       3.017   2.658  19.183  0.00  0.00    +0.000 C 
BRANCH  23  24
ATOM     24  C   UNL     1       3.913   2.260  20.331  0.00  0.00    +0.000 C 
ATOM     25  O   UNL     1       3.515   2.277  21.488  0.00  0.00    +0.000 OA
BRANCH  24  26
ATOM     26  O   UNL     1       5.179   1.894  20.047  0.00  0.00    +0.000 OA
ATOM     27  H   UNL     1       5.283   1.030  19.601  0.00  0.00    +0.000 HD
ENDBRANCH  24  26
ENDBRANCH  23  24
ENDBRANCH  10  23
TORSDOF 6
ENDMDL
MODEL 2
REMARK VINA RESULT:      -8.8      1.371      2.995
REMARK  Name = 
REMARK  7 active torsions:
REMARK  status: ('A' for Active; 'I' for Inactive)
REMARK    1  A    between atoms: C_1  and  C_2
REMARK    2  A    between atoms: C_3  and  C_4
REMARK    3  A    between atoms: N_9  and  C_10
REMARK    4  A    between atoms: C_10  and  C_11
REMARK    5  A    between atoms: N_22  and  C_23
REMARK    6  A    between atoms: C_23  and  C_24
REMARK    7  A    between atoms: C_24  and  O_26
REMARK                            x       y       z     vdW  Elec       q    Type
REMARK                         _______ _______ _______ _____ _____    ______ ____
ROOT
ATOM      1  C   UNL     1       4.674   7.070  17.116  0.00  0.00    +0.000 C 
ATOM      2  C   UNL     1       3.867   6.059  17.862  0.00  0.00    +0.000 A 
ATOM      3  C   UNL     1       2.734   6.238  18.632  0.00  0.00    +0.000 A 
ATOM      4  C   UNL     1       2.331   4.980  19.146  0.00  0.00    +0.000 A 
ATOM      5  C   UNL     1       1.276   4.575  19.990  0.00  0.00    +0.000 A 
ATOM      6  C   UNL     1       1.141   3.231  20.332  0.00  0.00    +0.000 A 
ATOM      7  C   UNL     1       2.036   2.290  19.829  0.00  0.00    +0.000 A 
ATOM      8  C   UNL     1       3.092   2.666  18.985  0.00  0.00    +0.000 A 
ATOM      9  C   UNL     1       3.234   4.027  18.658  0.00  0.00    +0.000 A 
ATOM     10  N   UNL     1       4.163   4.705  17.877  0.00  0.00    +0.000 N 
ENDROOT
BRANCH   3  11
ATOM     11  C   UNL     1       2.113   7.498  18.901  0.00  0.00    +0.000 A 
ATOM     12  C   UNL     1       1.697   8.374  17.820  0.00  0.00    +0.000 A 
ATOM     13  C   UNL     1       1.126   9.561  18.066  0.00  0.00    +0.000 A 
ATOM     14  C   UNL     1       0.906  10.009  19.466  0.00  0.00    +0.000 A 
ATOM     15  O   UNL     1       0.378  11.093  19.693  0.00  0.00    +0.000 OA
ATOM     16  N   UNL     1       1.329   9.129  20.459  0.00  0.00    +0.000 N 
ATOM     17  C   UNL     1       1.902   7.904  20.166  0.00  0.00    +0.000 A 
BRANCH  16  18
ATOM     18  C   UNL     1       1.172   9.550  21.856  0.00  0.00    +0.000 C 
BRANCH  18  19
ATOM     19  C   UNL     1      -0.216   9.311  22.465  0.00  0.00    +0.000 C 
ATOM     20  F   UNL     1      -1.061  10.352  22.313  0.00  0.00    +0.000 F 
ATOM     21  F   UNL     1      -0.801   8.210  21.942  0.00  0.00    +0.000 F 
ATOM     22  F   UNL     1      -0.099   9.098  23.802  0.00  0.00    +0.000 F 
ENDBRANCH  18  19
ENDBRANCH  16  18
ENDBRANCH   3  11
BRANCH  10  23
ATOM     23  C   UNL     1       5.258   4.085  17.128  0.00  0.00    +0.000 C 
BRANCH  23  24
ATOM     24  C   UNL     1       6.662   4.408  17.582  0.00  0.00    +0.000 C 
ATOM     25  O   UNL     1       6.948   4.485  18.769  0.00  0.00    +0.000 OA
BRANCH  24  26
ATOM     26  O   UNL     1       7.598   4.622  16.635  0.00  0.00    +0.000 OA
ATOM     27  H   UNL     1       8.359   4.009  16.642  0.00  0.00    +0.000 HD
ENDBRANCH  24  26
ENDBRANCH  23  24
ENDBRANCH  10  23
TORSDOF 6
ENDMDL
MODEL 3
REMARK VINA RESULT:      -8.6      0.995      1.280
REMARK  Name = 
REMARK  7 active torsions:
REMARK  status: ('A' for Active; 'I' for Inactive)
REMARK    1  A    between atoms: C_1  and  C_2
REMARK    2  A    between atoms: C_3  and  C_4
REMARK    3  A    between atoms: N_9  and  C_10
REMARK    4  A    between atoms: C_10  and  C_11
REMARK    5  A    between atoms: N_22  and  C_23
REMARK    6  A    between atoms: C_23  and  C_24
REMARK    7  A    between atoms: C_24  and  O_26
REMARK                            x       y       z     vdW  Elec       q    Type
REMARK                         _______ _______ _______ _____ _____    ______ ____
ROOT
ATOM      1  C   UNL     1       1.529   4.872  20.516  0.00  0.00    +0.000 C 
ATOM      2  C   UNL     1       2.637   5.182  19.565  0.00  0.00    +0.000 A 
ATOM      3  C   UNL     1       2.947   6.376  18.941  0.00  0.00    +0.000 A 
ATOM      4  C   UNL     1       4.085   6.176  18.119  0.00  0.00    +0.000 A 
ATOM      5  C   UNL     1       4.813   7.021  17.256  0.00  0.00    +0.000 A 
ATOM      6  C   UNL     1       5.911   6.520  16.559  0.00  0.00    +0.000 A 
ATOM      7  C   UNL     1       6.295   5.192  16.728  0.00  0.00    +0.000 A 
ATOM      8  C   UNL     1       5.590   4.331  17.582  0.00  0.00    +0.000 A 
ATOM      9  C   UNL     1       4.472   4.839  18.268  0.00  0.00    +0.000 A 
ATOM     10  N   UNL     1       3.577   4.250  19.154  0.00  0.00    +0.000 N 
ENDROOT
BRANCH   3  11
ATOM     11  C   UNL     1       2.202   7.590  19.071  0.00  0.00    +0.000 A 
ATOM     12  C   UNL     1       1.714   8.298  17.901  0.00  0.00    +0.000 A 
ATOM     13  C   UNL     1       1.027   9.442  18.016  0.00  0.00    +0.000 A 
ATOM     14  C   UNL     1       0.750  10.016  19.359  0.00  0.00    +0.000 A 
ATOM     15  O   UNL     1       0.116  11.061  19.466  0.00  0.00    +0.000 OA
ATOM     16  N   UNL     1       1.246   9.295  20.441  0.00  0.00    +0.000 N 
ATOM     17  C   UNL     1       1.940   8.109  20.284  0.00  0.00    +0.000 A 
BRANCH  16  18
ATOM     18  C   UNL     1       1.033   9.849  21.784  0.00  0.00    +0.000 C 
BRANCH  18  19
ATOM     19  C   UNL     1      -0.266   9.418  22.477  0.00  0.00    +0.000 C 
ATOM     20  F   UNL     1      -0.113   9.134  23.788  0.00  0.00    +0.000 F 
ATOM     21  F   UNL     1      -1.225  10.363  22.358  0.00  0.00    +0.000 F 
ATOM     22  F   UNL     1      -0.748   8.292  21.889  0.00  0.00    +0.000 F 
ENDBRANCH  18  19
ENDBRANCH  16  18
ENDBRANCH   3  11
BRANCH  10  23
ATOM     23  C   UNL     1       3.641   2.868  19.636  0.00  0.00    +0.000 C 
BRANCH  23  24
ATOM     24  C   UNL     1       3.126   1.797  18.706  0.00  0.00    +0.000 C 
ATOM     25  O   UNL     1       2.004   1.856  18.222  0.00  0.00    +0.000 OA
BRANCH  24  26
ATOM     26  O   UNL     1       3.938   0.757  18.429  0.00  0.00    +0.000 OA
ATOM     27  H   UNL     1       4.374   0.339  19.198  0.00  0.00    +0.000 HD
ENDBRANCH  24  26
ENDBRANCH  23  24
ENDBRANCH  10  23
TORSDOF 6
ENDMDL
MODEL 4
REMARK VINA RESULT:      -8.5      1.542      3.028
REMARK  Name = 
REMARK  7 active torsions:
REMARK  status: ('A' for Active; 'I' for Inactive)
REMARK    1  A    between atoms: C_1  and  C_2
REMARK    2  A    between atoms: C_3  and  C_4
REMARK    3  A    between atoms: N_9  and  C_10
REMARK    4  A    between atoms: C_10  and  C_11
REMARK    5  A    between atoms: N_22  and  C_23
REMARK    6  A    between atoms: C_23  and  C_24
REMARK    7  A    between atoms: C_24  and  O_26
REMARK                            x       y       z     vdW  Elec       q    Type
REMARK                         _______ _______ _______ _____ _____    ______ ____
ROOT
ATOM      1  C   UNL     1       5.189   7.486  17.334  0.00  0.00    +0.000 C 
ATOM      2  C   UNL     1       4.281   6.342  17.645  0.00  0.00    +0.000 A 
ATOM      3  C   UNL     1       3.001   6.357  18.166  0.00  0.00    +0.000 A 
ATOM      4  C   UNL     1       2.549   5.019  18.294  0.00  0.00    +0.000 A 
ATOM      5  C   UNL     1       1.353   4.447  18.776  0.00  0.00    +0.000 A 
ATOM      6  C   UNL     1       1.201   3.061  18.780  0.00  0.00    +0.000 A 
ATOM      7  C   UNL     1       2.222   2.248  18.296  0.00  0.00    +0.000 A 
ATOM      8  C   UNL     1       3.420   2.792  17.808  0.00  0.00    +0.000 A 
ATOM      9  C   UNL     1       3.573   4.190  17.823  0.00  0.00    +0.000 A 
ATOM     10  N   UNL     1       4.621   5.015  17.432  0.00  0.00    +0.000 N 
ENDROOT
BRANCH   3  11
ATOM     11  C   UNL     1       2.286   7.531  18.558  0.00  0.00    +0.000 A 
ATOM     12  C   UNL     1       1.784   8.467  17.568  0.00  0.00    +0.000 A 
ATOM     13  C   UNL     1       1.123   9.576  17.930  0.00  0.00    +0.000 A 
ATOM     14  C   UNL     1       0.891   9.873  19.367  0.00  0.00    +0.000 A 
ATOM     15  O   UNL     1       0.282  10.884  19.700  0.00  0.00    +0.000 OA
ATOM     16  N   UNL     1       1.399   8.941  20.269  0.00  0.00    +0.000 N 
ATOM     17  C   UNL     1       2.063   7.800  19.858  0.00  0.00    +0.000 A 
BRANCH  16  18
ATOM     18  C   UNL     1       1.230   9.216  21.701  0.00  0.00    +0.000 C 
BRANCH  18  19
ATOM     19  C   UNL     1      -0.189   9.020  22.248  0.00  0.00    +0.000 C 
ATOM     20  F   UNL     1      -0.845   7.978  21.694  0.00  0.00    +0.000 F 
ATOM     21  F   UNL     1      -0.182   8.850  23.589  0.00  0.00    +0.000 F 
ATOM     22  F   UNL     1      -0.935  10.127  21.996  0.00  0.00    +0.000 F 
ENDBRANCH  18  19
ENDBRANCH  16  18
ENDBRANCH   3  11
BRANCH  10  23
ATOM     23  C   UNL     1       5.877   4.567  16.827  0.00  0.00    +0.000 C 
BRANCH  23  24
ATOM     24  C   UNL     1       7.080   4.482  17.737  0.00  0.00    +0.000 C 
ATOM     25  O   UNL     1       8.192   4.212  17.303  0.00  0.00    +0.000 OA
BRANCH  24  26
ATOM     26  O   UNL     1       6.892   4.703  19.053  0.00  0.00    +0.000 OA
ATOM     27  H   UNL     1       6.916   5.638  19.336  0.00  0.00    +0.000 HD
ENDBRANCH  24  26
ENDBRANCH  23  24
ENDBRANCH  10  23
TORSDOF 6
ENDMDL
MODEL 5
REMARK VINA RESULT:      -8.4      2.125      3.355
REMARK  Name = 
REMARK  7 active torsions:
REMARK  status: ('A' for Active; 'I' for Inactive)
REMARK    1  A    between atoms: C_1  and  C_2
REMARK    2  A    between atoms: C_3  and  C_4
REMARK    3  A    between atoms: N_9  and  C_10
REMARK    4  A    between atoms: C_10  and  C_11
REMARK    5  A    between atoms: N_22  and  C_23
REMARK    6  A    between atoms: C_23  and  C_24
REMARK    7  A    between atoms: C_24  and  O_26
REMARK                            x       y       z     vdW  Elec       q    Type
REMARK                         _______ _______ _______ _____ _____    ______ ____
ROOT
ATOM      1  C   UNL     1       5.454   7.305  17.450  0.00  0.00    +0.000 C 
ATOM      2  C   UNL     1       4.503   6.176  17.668  0.00  0.00    +0.000 A 
ATOM      3  C   UNL     1       3.191   6.208  18.104  0.00  0.00    +0.000 A 
ATOM      4  C   UNL     1       2.701   4.879  18.163  0.00  0.00    +0.000 A 
ATOM      5  C   UNL     1       1.463   4.323  18.548  0.00  0.00    +0.000 A 
ATOM      6  C   UNL     1       1.281   2.942  18.503  0.00  0.00    +0.000 A 
ATOM      7  C   UNL     1       2.313   2.117  18.063  0.00  0.00    +0.000 A 
ATOM      8  C   UNL     1       3.552   2.644  17.671  0.00  0.00    +0.000 A 
ATOM      9  C   UNL     1       3.736   4.037  17.736  0.00  0.00    +0.000 A 
ATOM     10  N   UNL     1       4.826   4.848  17.439  0.00  0.00    +0.000 N 
ENDROOT
BRANCH   3  11
ATOM     11  C   UNL     1       2.478   7.388  18.481  0.00  0.00    +0.000 A 
ATOM     12  C   UNL     1       2.043   8.350  17.485  0.00  0.00    +0.000 A 
ATOM     13  C   UNL     1       1.385   9.465  17.834  0.00  0.00    +0.000 A 
ATOM     14  C   UNL     1       1.086   9.740  19.264  0.00  0.00    +0.000 A 
ATOM     15  O   UNL     1       0.479  10.756  19.584  0.00  0.00    +0.000 OA
ATOM     16  N   UNL     1       1.532   8.784  20.172  0.00  0.00    +0.000 N 
ATOM     17  C   UNL     1       2.196   7.638  19.773  0.00  0.00    +0.000 A 
BRANCH  16  18
ATOM     18  C   UNL     1       1.297   9.037  21.598  0.00  0.00    +0.000 C 
BRANCH  18  19
ATOM     19  C   UNL     1      -0.158   8.892  22.064  0.00  0.00    +0.000 C 
ATOM     20  F   UNL     1      -0.792   7.824  21.536  0.00  0.00    +0.000 F 
ATOM     21  F   UNL     1      -0.239   8.810  23.411  0.00  0.00    +0.000 F 
ATOM     22  F   UNL     1      -0.869   9.989  21.693  0.00  0.00    +0.000 F 
ENDBRANCH  18  19
ENDBRANCH  16  18
ENDBRANCH   3  11
BRANCH  10  23
ATOM     23  C   UNL     1       6.109   4.385  16.906  0.00  0.00    +0.000 C 
BRANCH  23  24
ATOM     24  C   UNL     1       6.280   4.431  15.406  0.00  0.00    +0.000 C 
ATOM     25  O   UNL     1       6.574   5.469  14.828  0.00  0.00    +0.000 OA
BRANCH  24  26
ATOM     26  O   UNL     1       6.087   3.290  14.714  0.00  0.00    +0.000 OA
ATOM     27  H   UNL     1       5.454   2.656  15.104  0.00  0.00    +0.000 HD
ENDBRANCH  24  26
ENDBRANCH  23  24
ENDBRANCH  10  23
TORSDOF 6
ENDMDL
MODEL 6
REMARK VINA RESULT:      -8.2      2.266      3.825
REMARK  Name = 
REMARK  7 active torsions:
REMARK  status: ('A' for Active; 'I' for Inactive)
REMARK    1  A    between atoms: C_1  and  C_2
REMARK    2  A    between atoms: C_3  and  C_4
REMARK    3  A    between atoms: N_9  and  C_10
REMARK    4  A    between atoms: C_10  and  C_11
REMARK    5  A    between atoms: N_22  and  C_23
REMARK    6  A    between atoms: C_23  and  C_24
REMARK    7  A    between atoms: C_24  and  O_26
REMARK                            x       y       z     vdW  Elec       q    Type
REMARK                         _______ _______ _______ _____ _____    ______ ____
ROOT
ATOM      1  C   UNL     1       4.554   7.418  17.357  0.00  0.00    +0.000 C 
ATOM      2  C   UNL     1       3.743   6.231  17.761  0.00  0.00    +0.000 A 
ATOM      3  C   UNL     1       2.643   6.165  18.594  0.00  0.00    +0.000 A 
ATOM      4  C   UNL     1       2.220   4.814  18.681  0.00  0.00    +0.000 A 
ATOM      5  C   UNL     1       1.183   4.171  19.388  0.00  0.00    +0.000 A 
ATOM      6  C   UNL     1       1.018   2.792  19.272  0.00  0.00    +0.000 A 
ATOM      7  C   UNL     1       1.867   2.056  18.449  0.00  0.00    +0.000 A 
ATOM      8  C   UNL     1       2.904   2.672  17.733  0.00  0.00    +0.000 A 
ATOM      9  C   UNL     1       3.076   4.061  17.868  0.00  0.00    +0.000 A 
ATOM     10  N   UNL     1       3.997   4.943  17.316  0.00  0.00    +0.000 N 
ENDROOT
BRANCH   3  11
ATOM     11  C   UNL     1       2.069   7.275  19.290  0.00  0.00    +0.000 A 
ATOM     12  C   UNL     1       1.946   7.269  20.737  0.00  0.00    +0.000 A 
ATOM     13  C   UNL     1       1.399   8.301  21.394  0.00  0.00    +0.000 A 
ATOM     14  C   UNL     1       0.900   9.484  20.645  0.00  0.00    +0.000 A 
ATOM     15  O   UNL     1       0.404  10.431  21.245  0.00  0.00    +0.000 OA
ATOM     16  N   UNL     1       1.041   9.430  19.261  0.00  0.00    +0.000 N 
ATOM     17  C   UNL     1       1.626   8.353  18.618  0.00  0.00    +0.000 A 
BRANCH  16  18
ATOM     18  C   UNL     1       0.523  10.558  18.478  0.00  0.00    +0.000 C 
BRANCH  18  19
ATOM     19  C   UNL     1      -0.928  10.417  18.000  0.00  0.00    +0.000 C 
ATOM     20  F   UNL     1      -1.477  11.578  17.583  0.00  0.00    +0.000 F 
ATOM     21  F   UNL     1      -1.032   9.516  16.997  0.00  0.00    +0.000 F 
ATOM     22  F   UNL     1      -1.705   9.964  19.018  0.00  0.00    +0.000 F 
ENDBRANCH  18  19
ENDBRANCH  16  18
ENDBRANCH   3  11
BRANCH  10  23
ATOM     23  C   UNL     1       5.047   4.588  16.358  0.00  0.00    +0.000 C 
BRANCH  23  24
ATOM     24  C   UNL     1       6.445   4.430  16.907  0.00  0.00    +0.000 C 
ATOM     25  O   UNL     1       7.431   4.598  16.202  0.00  0.00    +0.000 OA
BRANCH  24  26
ATOM     26  O   UNL     1       6.579   4.083  18.203  0.00  0.00    +0.000 OA
ATOM     27  H   UNL     1       7.305   3.461  18.405  0.00  0.00    +0.000 HD
ENDBRANCH  24  26
ENDBRANCH  23  24
ENDBRANCH  10  23
TORSDOF 6
ENDMDL
MODEL 7
REMARK VINA RESULT:      -8.2      1.819      2.548
REMARK  Name = 
REMARK  7 active torsions:
REMARK  status: ('A' for Active; 'I' for Inactive)
REMARK    1  A    between atoms: C_1  and  C_2
REMARK    2  A    between atoms: C_3  and  C_4
REMARK    3  A    between atoms: N_9  and  C_10
REMARK    4  A    between atoms: C_10  and  C_11
REMARK    5  A    between atoms: N_22  and  C_23
REMARK    6  A    between atoms: C_23  and  C_24
REMARK    7  A    between atoms: C_24  and  O_26
REMARK                            x       y       z     vdW  Elec       q    Type
REMARK                         _______ _______ _______ _____ _____    ______ ____
ROOT
ATOM      1  C   UNL     1       1.144   4.391  20.395  0.00  0.00    +0.000 C 
ATOM      2  C   UNL     1       2.130   4.859  19.377  0.00  0.00    +0.000 A 
ATOM      3  C   UNL     1       2.511   6.148  19.056  0.00  0.00    +0.000 A 
ATOM      4  C   UNL     1       3.473   6.091  18.015  0.00  0.00    +0.000 A 
ATOM      5  C   UNL     1       4.178   7.079  17.297  0.00  0.00    +0.000 A 
ATOM      6  C   UNL     1       5.076   6.702  16.301  0.00  0.00    +0.000 A 
ATOM      7  C   UNL     1       5.287   5.353  16.028  0.00  0.00    +0.000 A 
ATOM      8  C   UNL     1       4.601   4.350  16.729  0.00  0.00    +0.000 A 
ATOM      9  C   UNL     1       3.682   4.738  17.721  0.00  0.00    +0.000 A 
ATOM     10  N   UNL     1       2.854   4.003  18.562  0.00  0.00    +0.000 N 
ENDROOT
BRANCH   3  11
ATOM     11  C   UNL     1       1.976   7.336  19.646  0.00  0.00    +0.000 A 
ATOM     12  C   UNL     1       1.847   7.463  21.087  0.00  0.00    +0.000 A 
ATOM     13  C   UNL     1       1.335   8.569  21.645  0.00  0.00    +0.000 A 
ATOM     14  C   UNL     1       0.883   9.698  20.790  0.00  0.00    +0.000 A 
ATOM     15  O   UNL     1       0.420  10.712  21.300  0.00  0.00    +0.000 OA
ATOM     16  N   UNL     1       1.028   9.516  19.417  0.00  0.00    +0.000 N 
ATOM     17  C   UNL     1       1.575   8.365  18.878  0.00  0.00    +0.000 A 
BRANCH  16  18
ATOM     18  C   UNL     1       0.554  10.587  18.534  0.00  0.00    +0.000 C 
BRANCH  18  19
ATOM     19  C   UNL     1      -0.908  10.473  18.083  0.00  0.00    +0.000 C 
ATOM     20  F   UNL     1      -1.739  10.027  19.048  0.00  0.00    +0.000 F 
ATOM     21  F   UNL     1      -1.379  11.657  17.632  0.00  0.00    +0.000 F 
ATOM     22  F   UNL     1      -1.002   9.594  17.052  0.00  0.00    +0.000 F 
ENDBRANCH  18  19
ENDBRANCH  16  18
ENDBRANCH   3  11
BRANCH  10  23
ATOM     23  C   UNL     1       2.791   2.542  18.629  0.00  0.00    +0.000 C 
BRANCH  23  24
ATOM     24  C   UNL     1       4.023   1.829  19.133  0.00  0.00    +0.000 C 
ATOM     25  O   UNL     1       4.697   2.286  20.048  0.00  0.00    +0.000 OA
BRANCH  24  26
ATOM     26  O   UNL     1       4.372   0.672  18.536  0.00  0.00    +0.000 OA
ATOM     27  H   UNL     1       3.635   0.128  18.196  0.00  0.00    +0.000 HD
ENDBRANCH  24  26
ENDBRANCH  23  24
ENDBRANCH  10  23
TORSDOF 6
ENDMDL
MODEL 8
REMARK VINA RESULT:      -8.2      1.134      1.391
REMARK  Name = 
REMARK  7 active torsions:
REMARK  status: ('A' for Active; 'I' for Inactive)
REMARK    1  A    between atoms: C_1  and  C_2
REMARK    2  A    between atoms: C_3  and  C_4
REMARK    3  A    between atoms: N_9  and  C_10
REMARK    4  A    between atoms: C_10  and  C_11
REMARK    5  A    between atoms: N_22  and  C_23
REMARK    6  A    between atoms: C_23  and  C_24
REMARK    7  A    between atoms: C_24  and  O_26
REMARK                            x       y       z     vdW  Elec       q    Type
REMARK                         _______ _______ _______ _____ _____    ______ ____
ROOT
ATOM      1  C   UNL     1       1.246   4.461  18.432  0.00  0.00    +0.000 C 
ATOM      2  C   UNL     1       2.636   4.895  18.103  0.00  0.00    +0.000 A 
ATOM      3  C   UNL     1       3.193   6.159  18.152  0.00  0.00    +0.000 A 
ATOM      4  C   UNL     1       4.546   6.074  17.737  0.00  0.00    +0.000 A 
ATOM      5  C   UNL     1       5.569   7.033  17.577  0.00  0.00    +0.000 A 
ATOM      6  C   UNL     1       6.829   6.633  17.135  0.00  0.00    +0.000 A 
ATOM      7  C   UNL     1       7.079   5.290  16.868  0.00  0.00    +0.000 A 
ATOM      8  C   UNL     1       6.081   4.317  17.021  0.00  0.00    +0.000 A 
ATOM      9  C   UNL     1       4.806   4.729  17.451  0.00  0.00    +0.000 A 
ATOM     10  N   UNL     1       3.629   4.026  17.680  0.00  0.00    +0.000 N 
ENDROOT
BRANCH   3  11
ATOM     11  C   UNL     1       2.494   7.354  18.512  0.00  0.00    +0.000 A 
ATOM     12  C   UNL     1       2.096   8.321  17.505  0.00  0.00    +0.000 A 
ATOM     13  C   UNL     1       1.452   9.448  17.838  0.00  0.00    +0.000 A 
ATOM     14  C   UNL     1       1.130   9.733  19.261  0.00  0.00    +0.000 A 
ATOM     15  O   UNL     1       0.536  10.761  19.567  0.00  0.00    +0.000 OA
ATOM     16  N   UNL     1       1.541   8.771  20.181  0.00  0.00    +0.000 N 
ATOM     17  C   UNL     1       2.191   7.612  19.798  0.00  0.00    +0.000 A 
BRANCH  16  18
ATOM     18  C   UNL     1       1.283   9.033  21.601  0.00  0.00    +0.000 C 
BRANCH  18  19
ATOM     19  C   UNL     1      -0.187   8.941  22.033  0.00  0.00    +0.000 C 
ATOM     20  F   UNL     1      -0.353   8.819  23.367  0.00  0.00    +0.000 F 
ATOM     21  F   UNL     1      -0.891  10.017  21.615  0.00  0.00    +0.000 F 
ATOM     22  F   UNL     1      -0.764   7.849  21.468  0.00  0.00    +0.000 F 
ENDBRANCH  18  19
ENDBRANCH  16  18
ENDBRANCH   3  11
BRANCH  10  23
ATOM     23  C   UNL     1       3.465   2.576  17.555  0.00  0.00    +0.000 C 
BRANCH  23  24
ATOM     24  C   UNL     1       3.841   1.742  18.757  0.00  0.00    +0.000 C 
ATOM     25  O   UNL     1       3.653   2.144  19.898  0.00  0.00    +0.000 OA
BRANCH  24  26
ATOM     26  O   UNL     1       4.405   0.538  18.538  0.00  0.00    +0.000 OA
ATOM     27  H   UNL     1       5.193   0.534  17.960  0.00  0.00    +0.000 HD
ENDBRANCH  24  26
ENDBRANCH  23  24
ENDBRANCH  10  23
TORSDOF 6
ENDMDL
MODEL 9
REMARK VINA RESULT:      -8.1      1.697      3.206
REMARK  Name = 
REMARK  7 active torsions:
REMARK  status: ('A' for Active; 'I' for Inactive)
REMARK    1  A    between atoms: C_1  and  C_2
REMARK    2  A    between atoms: C_3  and  C_4
REMARK    3  A    between atoms: N_9  and  C_10
REMARK    4  A    between atoms: C_10  and  C_11
REMARK    5  A    between atoms: N_22  and  C_23
REMARK    6  A    between atoms: C_23  and  C_24
REMARK    7  A    between atoms: C_24  and  O_26
REMARK                            x       y       z     vdW  Elec       q    Type
REMARK                         _______ _______ _______ _____ _____    ______ ____
ROOT
ATOM      1  C   UNL     1       4.869   7.239  17.534  0.00  0.00    +0.000 C 
ATOM      2  C   UNL     1       4.009   6.202  18.177  0.00  0.00    +0.000 A 
ATOM      3  C   UNL     1       2.788   6.346  18.809  0.00  0.00    +0.000 A 
ATOM      4  C   UNL     1       2.363   5.074  19.269  0.00  0.00    +0.000 A 
ATOM      5  C   UNL     1       1.228   4.636  19.982  0.00  0.00    +0.000 A 
ATOM      6  C   UNL     1       1.090   3.286  20.302  0.00  0.00    +0.000 A 
ATOM      7  C   UNL     1       2.064   2.374  19.905  0.00  0.00    +0.000 A 
ATOM      8  C   UNL     1       3.201   2.783  19.192  0.00  0.00    +0.000 A 
ATOM      9  C   UNL     1       3.343   4.149  18.888  0.00  0.00    +0.000 A 
ATOM     10  N   UNL     1       4.338   4.856  18.223  0.00  0.00    +0.000 N 
ENDROOT
BRANCH   3  11
ATOM     11  C   UNL     1       2.105   7.587  19.006  0.00  0.00    +0.000 A 
ATOM     12  C   UNL     1       1.646   8.377  17.878  0.00  0.00    +0.000 A 
ATOM     13  C   UNL     1       1.017   9.546  18.057  0.00  0.00    +0.000 A 
ATOM     14  C   UNL     1       0.775  10.063  19.429  0.00  0.00    +0.000 A 
ATOM     15  O   UNL     1       0.194  11.131  19.595  0.00  0.00    +0.000 OA
ATOM     16  N   UNL     1       1.241   9.264  20.470  0.00  0.00    +0.000 N 
ATOM     17  C   UNL     1       1.875   8.055  20.247  0.00  0.00    +0.000 A 
BRANCH  16  18
ATOM     18  C   UNL     1       1.063   9.758  21.840  0.00  0.00    +0.000 C 
BRANCH  18  19
ATOM     19  C   UNL     1      -0.254   9.361  22.519  0.00  0.00    +0.000 C 
ATOM     20  F   UNL     1      -0.828   8.261  21.987  0.00  0.00    +0.000 F 
ATOM     21  F   UNL     1      -0.083   9.151  23.843  0.00  0.00    +0.000 F 
ATOM     22  F   UNL     1      -1.157  10.369  22.393  0.00  0.00    +0.000 F 
ENDBRANCH  18  19
ENDBRANCH  16  18
ENDBRANCH   3  11
BRANCH  10  23
ATOM     23  C   UNL     1       5.530   4.271  17.607  0.00  0.00    +0.000 C 
BRANCH  23  24
ATOM     24  C   UNL     1       5.446   3.945  16.135  0.00  0.00    +0.000 C 
ATOM     25  O   UNL     1       4.796   4.638  15.363  0.00  0.00    +0.000 OA
BRANCH  24  26
ATOM     26  O   UNL     1       6.102   2.854  15.691  0.00  0.00    +0.000 OA
ATOM     27  H   UNL     1       5.914   2.590  14.769  0.00  0.00    +0.000 HD
ENDBRANCH  24  26
ENDBRANCH  23  24
ENDBRANCH  10  23
TORSDOF 6
ENDMDL
