MODEL 1
REMARK VINA RESULT:      -8.2      0.000      0.000
REMARK  Name = 
REMARK  4 active torsions:
REMARK  status: ('A' for Active; 'I' for Inactive)
REMARK    1  A    between atoms: C_2  and  C_3
REMARK    2  A    between atoms: C_2  and  C_14
REMARK    3  A    between atoms: C_4  and  C_5
REMARK    4  A    between atoms: C_10  and  N_11
REMARK                            x       y       z     vdW  Elec       q    Type
REMARK                         _______ _______ _______ _____ _____    ______ ____
ROOT
ATOM      1  O   UNL     1       2.146   9.164  17.492  0.00  0.00    +0.000 OA
ATOM      2  C   UNL     1       1.979   8.543  18.533  0.00  0.00    +0.000 C 
ENDROOT
BRANCH   2   3
ATOM      3  C   UNL     1       1.145   9.116  19.643  0.00  0.00    +0.000 A 
ATOM      4  C   UNL     1       1.138   8.428  20.843  0.00  0.00    +0.000 A 
ATOM      5  C   UNL     1       0.386   8.948  21.889  0.00  0.00    +0.000 A 
ATOM      6  C   UNL     1      -0.304  10.171  21.833  0.00  0.00    +0.000 A 
ATOM      7  C   UNL     1      -0.841  10.719  22.991  0.00  0.00    +0.000 A 
ATOM      8  C   UNL     1      -1.436  12.004  22.985  0.00  0.00    +0.000 A 
ATOM      9  C   UNL     1      -2.262  12.409  21.967  0.00  0.00    +0.000 A 
ATOM     10  C   UNL     1      -1.538  11.938  20.830  0.00  0.00    +0.000 A 
ATOM     11  C   UNL     1      -0.459  10.861  20.660  0.00  0.00    +0.000 A 
ATOM     12  C   UNL     1       0.410  10.352  19.550  0.00  0.00    +0.000 A 
ENDBRANCH   2   3
BRANCH   2  13
ATOM     13  C   UNL     1       2.537   7.166  18.729  0.00  0.00    +0.000 C 
ATOM     14  C   UNL     1       2.485   6.223  17.770  0.00  0.00    +0.000 C 
BRANCH  14  15
ATOM     15  C   UNL     1       2.692   4.752  18.077  0.00  0.00    +0.000 A 
ATOM     16  C   UNL     1       1.550   3.907  18.021  0.00  0.00    +0.000 A 
ATOM     17  C   UNL     1       1.601   2.562  18.428  0.00  0.00    +0.000 A 
ATOM     18  C   UNL     1       2.807   1.972  18.760  0.00  0.00    +0.000 A 
ATOM     19  C   UNL     1       3.944   2.772  18.796  0.00  0.00    +0.000 A 
ATOM     20  C   UNL     1       3.905   4.154  18.493  0.00  0.00    +0.000 A 
BRANCH  20  21
ATOM     21  N   UNL     1       5.215   4.917  18.575  0.00  0.00    +0.000 N 
ATOM     22  O   UNL     1       5.839   4.949  17.508  0.00  0.00    +0.000 OA
ATOM     23  O   UNL     1       5.673   5.287  19.672  0.00  0.00    +0.000 OA
ENDBRANCH  20  21
ENDBRANCH  14  15
ENDBRANCH   2  13
TORSDOF 4
ENDMDL
MODEL 2
REMARK VINA RESULT:      -8.2      4.501      8.673
REMARK  Name = 
REMARK  4 active torsions:
REMARK  status: ('A' for Active; 'I' for Inactive)
REMARK    1  A    between atoms: C_2  and  C_3
REMARK    2  A    between atoms: C_2  and  C_14
REMARK    3  A    between atoms: C_4  and  C_5
REMARK    4  A    between atoms: C_10  and  N_11
REMARK                            x       y       z     vdW  Elec       q    Type
REMARK                         _______ _______ _______ _____ _____    ______ ____
ROOT
ATOM      1  O   UNL     1       7.201   6.519  17.555  0.00  0.00    +0.000 OA
ATOM      2  C   UNL     1       6.237   5.926  17.088  0.00  0.00    +0.000 C 
ENDROOT
BRANCH   2   3
ATOM      3  C   UNL     1       6.307   5.303  15.723  0.00  0.00    +0.000 A 
ATOM      4  C   UNL     1       7.521   5.370  15.065  0.00  0.00    +0.000 A 
ATOM      5  C   UNL     1       7.615   4.787  13.807  0.00  0.00    +0.000 A 
ATOM      6  C   UNL     1       6.579   4.062  13.194  0.00  0.00    +0.000 A 
ATOM      7  C   UNL     1       6.832   3.327  12.043  0.00  0.00    +0.000 A 
ATOM      8  C   UNL     1       5.839   2.495  11.473  0.00  0.00    +0.000 A 
ATOM      9  C   UNL     1       4.531   2.898  11.373  0.00  0.00    +0.000 A 
ATOM     10  C   UNL     1       4.335   3.490  12.658  0.00  0.00    +0.000 A 
ATOM     11  C   UNL     1       5.308   4.043  13.707  0.00  0.00    +0.000 A 
ATOM     12  C   UNL     1       5.218   4.599  15.095  0.00  0.00    +0.000 A 
ENDBRANCH   2   3
BRANCH   2  13
ATOM     13  C   UNL     1       4.973   5.737  17.870  0.00  0.00    +0.000 C 
ATOM     14  C   UNL     1       4.915   4.970  18.974  0.00  0.00    +0.000 C 
BRANCH  14  15
ATOM     15  C   UNL     1       3.598   4.472  19.540  0.00  0.00    +0.000 A 
ATOM     16  C   UNL     1       2.604   5.446  19.829  0.00  0.00    +0.000 A 
ATOM     17  C   UNL     1       1.408   5.112  20.489  0.00  0.00    +0.000 A 
ATOM     18  C   UNL     1       1.092   3.791  20.749  0.00  0.00    +0.000 A 
ATOM     19  C   UNL     1       2.038   2.817  20.450  0.00  0.00    +0.000 A 
ATOM     20  C   UNL     1       3.295   3.134  19.882  0.00  0.00    +0.000 A 
BRANCH  20  21
ATOM     21  N   UNL     1       4.241   1.978  19.610  0.00  0.00    +0.000 N 
ATOM     22  O   UNL     1       3.891   1.261  18.664  0.00  0.00    +0.000 OA
ATOM     23  O   UNL     1       5.157   1.699  20.405  0.00  0.00    +0.000 OA
ENDBRANCH  20  21
ENDBRANCH  14  15
ENDBRANCH   2  13
TORSDOF 4
ENDMDL
MODEL 3
REMARK VINA RESULT:      -8.1      3.403      4.932
REMARK  Name = 
REMARK  4 active torsions:
REMARK  status: ('A' for Active; 'I' for Inactive)
REMARK    1  A    between atoms: C_2  and  C_3
REMARK    2  A    between atoms: C_2  and  C_14
REMARK    3  A    between atoms: C_4  and  C_5
REMARK    4  A    between atoms: C_10  and  N_11
REMARK                            x       y       z     vdW  Elec       q    Type
REMARK                         _______ _______ _______ _____ _____    ______ ____
ROOT
ATOM      1  O   UNL     1       4.175   3.247  18.587  0.00  0.00    +0.000 OA
ATOM      2  C   UNL     1       3.921   4.319  18.053  0.00  0.00    +0.000 C 
ENDROOT
BRANCH   2   3
ATOM      3  C   UNL     1       3.115   5.362  18.773  0.00  0.00    +0.000 A 
ATOM      4  C   UNL     1       2.553   4.996  19.982  0.00  0.00    +0.000 A 
ATOM      5  C   UNL     1       1.816   5.949  20.674  0.00  0.00    +0.000 A 
ATOM      6  C   UNL     1       1.672   7.286  20.264  0.00  0.00    +0.000 A 
ATOM      7  C   UNL     1       1.109   8.220  21.125  0.00  0.00    +0.000 A 
ATOM      8  C   UNL     1       1.060   9.593  20.784  0.00  0.00    +0.000 A 
ATOM      9  C   UNL     1       0.727  10.009  19.519  0.00  0.00    +0.000 A 
ATOM     10  C   UNL     1       1.480   9.090  18.727  0.00  0.00    +0.000 A 
ATOM     11  C   UNL     1       2.083   7.711  19.028  0.00  0.00    +0.000 A 
ATOM     12  C   UNL     1       2.945   6.716  18.312  0.00  0.00    +0.000 A 
ENDBRANCH   2   3
BRANCH   2  13
ATOM     13  C   UNL     1       4.449   4.668  16.695  0.00  0.00    +0.000 C 
ATOM     14  C   UNL     1       4.917   3.739  15.842  0.00  0.00    +0.000 C 
BRANCH  14  15
ATOM     15  C   UNL     1       5.786   4.106  14.653  0.00  0.00    +0.000 A 
ATOM     16  C   UNL     1       5.361   3.657  13.373  0.00  0.00    +0.000 A 
ATOM     17  C   UNL     1       6.162   3.815  12.227  0.00  0.00    +0.000 A 
ATOM     18  C   UNL     1       7.334   4.546  12.282  0.00  0.00    +0.000 A 
ATOM     19  C   UNL     1       7.758   5.018  13.520  0.00  0.00    +0.000 A 
ATOM     20  C   UNL     1       7.025   4.785  14.708  0.00  0.00    +0.000 A 
BRANCH  20  21
ATOM     21  N   UNL     1       7.600   5.349  15.996  0.00  0.00    +0.000 N 
ATOM     22  O   UNL     1       8.020   4.483  16.773  0.00  0.00    +0.000 OA
ATOM     23  O   UNL     1       7.462   6.551  16.287  0.00  0.00    +0.000 OA
ENDBRANCH  20  21
ENDBRANCH  14  15
ENDBRANCH   2  13
TORSDOF 4
ENDMDL
MODEL 4
REMARK VINA RESULT:      -8.0      3.058      4.361
REMARK  Name = 
REMARK  4 active torsions:
REMARK  status: ('A' for Active; 'I' for Inactive)
REMARK    1  A    between atoms: C_2  and  C_3
REMARK    2  A    between atoms: C_2  and  C_14
REMARK    3  A    between atoms: C_4  and  C_5
REMARK    4  A    between atoms: C_10  and  N_11
REMARK                            x       y       z     vdW  Elec       q    Type
REMARK                         _______ _______ _______ _____ _____    ______ ____
ROOT
ATOM      1  O   UNL     1       3.713   4.441  19.064  0.00  0.00    +0.000 OA
ATOM      2  C   UNL     1       3.554   5.393  18.311  0.00  0.00    +0.000 C 
ENDROOT
BRANCH   2   3
ATOM      3  C   UNL     1       2.820   6.620  18.772  0.00  0.00    +0.000 A 
ATOM      4  C   UNL     1       2.665   7.641  17.852  0.00  0.00    +0.000 A 
ATOM      5  C   UNL     1       1.975   8.779  18.251  0.00  0.00    +0.000 A 
ATOM      6  C   UNL     1       1.354   8.928  19.503  0.00  0.00    +0.000 A 
ATOM      7  C   UNL     1       0.502  10.000  19.733  0.00  0.00    +0.000 A 
ATOM      8  C   UNL     1      -0.228  10.109  20.941  0.00  0.00    +0.000 A 
ATOM      9  C   UNL     1       0.344   9.826  22.156  0.00  0.00    +0.000 A 
ATOM     10  C   UNL     1       1.059   8.630  21.843  0.00  0.00    +0.000 A 
ATOM     11  C   UNL     1       1.554   8.031  20.520  0.00  0.00    +0.000 A 
ATOM     12  C   UNL     1       2.226   6.768  20.076  0.00  0.00    +0.000 A 
ENDBRANCH   2   3
BRANCH   2  13
ATOM     13  C   UNL     1       4.132   5.412  16.929  0.00  0.00    +0.000 C 
ATOM     14  C   UNL     1       4.582   4.300  16.320  0.00  0.00    +0.000 C 
BRANCH  14  15
ATOM     15  C   UNL     1       5.496   4.360  15.111  0.00  0.00    +0.000 A 
ATOM     16  C   UNL     1       5.001   3.823  13.892  0.00  0.00    +0.000 A 
ATOM     17  C   UNL     1       5.815   3.695  12.752  0.00  0.00    +0.000 A 
ATOM     18  C   UNL     1       7.091   4.227  12.734  0.00  0.00    +0.000 A 
ATOM     19  C   UNL     1       7.589   4.782  13.908  0.00  0.00    +0.000 A 
ATOM     20  C   UNL     1       6.831   4.830  15.102  0.00  0.00    +0.000 A 
BRANCH  20  21
ATOM     21  N   UNL     1       7.493   5.457  16.316  0.00  0.00    +0.000 N 
ATOM     22  O   UNL     1       7.868   4.632  17.158  0.00  0.00    +0.000 OA
ATOM     23  O   UNL     1       7.462   6.688  16.498  0.00  0.00    +0.000 OA
ENDBRANCH  20  21
ENDBRANCH  14  15
ENDBRANCH   2  13
TORSDOF 4
ENDMDL
MODEL 5
REMARK VINA RESULT:      -8.0      1.381      2.027
REMARK  Name = 
REMARK  4 active torsions:
REMARK  status: ('A' for Active; 'I' for Inactive)
REMARK    1  A    between atoms: C_2  and  C_3
REMARK    2  A    between atoms: C_2  and  C_14
REMARK    3  A    between atoms: C_4  and  C_5
REMARK    4  A    between atoms: C_10  and  N_11
REMARK                            x       y       z     vdW  Elec       q    Type
REMARK                         _______ _______ _______ _____ _____    ______ ____
ROOT
ATOM      1  O   UNL     1       2.598   8.475  17.121  0.00  0.00    +0.000 OA
ATOM      2  C   UNL     1       2.303   8.265  18.290  0.00  0.00    +0.000 C 
ENDROOT
BRANCH   2   3
ATOM      3  C   UNL     1       1.463   9.247  19.056  0.00  0.00    +0.000 A 
ATOM      4  C   UNL     1       1.184  10.452  18.438  0.00  0.00    +0.000 A 
ATOM      5  C   UNL     1       0.396  11.369  19.120  0.00  0.00    +0.000 A 
ATOM      6  C   UNL     1      -0.205  11.120  20.367  0.00  0.00    +0.000 A 
ATOM      7  C   UNL     1      -1.154  12.002  20.869  0.00  0.00    +0.000 A 
ATOM      8  C   UNL     1      -1.859  11.716  22.062  0.00  0.00    +0.000 A 
ATOM      9  C   UNL     1      -1.231  11.185  23.160  0.00  0.00    +0.000 A 
ATOM     10  C   UNL     1      -0.410  10.191  22.545  0.00  0.00    +0.000 A 
ATOM     11  C   UNL     1       0.108  10.014  21.112  0.00  0.00    +0.000 A 
ATOM     12  C   UNL     1       0.891   8.987  20.353  0.00  0.00    +0.000 A 
ENDBRANCH   2   3
BRANCH   2  13
ATOM     13  C   UNL     1       2.704   7.004  18.991  0.00  0.00    +0.000 C 
ATOM     14  C   UNL     1       2.296   5.789  18.582  0.00  0.00    +0.000 C 
BRANCH  14  15
ATOM     15  C   UNL     1       2.375   4.569  19.480  0.00  0.00    +0.000 A 
ATOM     16  C   UNL     1       1.283   4.334  20.359  0.00  0.00    +0.000 A 
ATOM     17  C   UNL     1       1.318   3.320  21.333  0.00  0.00    +0.000 A 
ATOM     18  C   UNL     1       2.365   2.417  21.372  0.00  0.00    +0.000 A 
ATOM     19  C   UNL     1       3.433   2.610  20.504  0.00  0.00    +0.000 A 
ATOM     20  C   UNL     1       3.474   3.684  19.583  0.00  0.00    +0.000 A 
BRANCH  20  21
ATOM     21  N   UNL     1       4.701   3.787  18.695  0.00  0.00    +0.000 N 
ATOM     22  O   UNL     1       5.689   4.266  19.265  0.00  0.00    +0.000 OA
ATOM     23  O   UNL     1       4.624   3.584  17.469  0.00  0.00    +0.000 OA
ENDBRANCH  20  21
ENDBRANCH  14  15
ENDBRANCH   2  13
TORSDOF 4
ENDMDL
MODEL 6
REMARK VINA RESULT:      -7.9      1.211      1.541
REMARK  Name = 
REMARK  4 active torsions:
REMARK  status: ('A' for Active; 'I' for Inactive)
REMARK    1  A    between atoms: C_2  and  C_3
REMARK    2  A    between atoms: C_2  and  C_14
REMARK    3  A    between atoms: C_4  and  C_5
REMARK    4  A    between atoms: C_10  and  N_11
REMARK                            x       y       z     vdW  Elec       q    Type
REMARK                         _______ _______ _______ _____ _____    ______ ____
ROOT
ATOM      1  O   UNL     1       1.929   9.802  17.516  0.00  0.00    +0.000 OA
ATOM      2  C   UNL     1       1.758   9.097  18.503  0.00  0.00    +0.000 C 
ENDROOT
BRANCH   2   3
ATOM      3  C   UNL     1       0.915   9.576  19.650  0.00  0.00    +0.000 A 
ATOM      4  C   UNL     1       0.975   8.843  20.822  0.00  0.00    +0.000 A 
ATOM      5  C   UNL     1       0.215   9.275  21.901  0.00  0.00    +0.000 A 
ATOM      6  C   UNL     1      -0.548  10.456  21.907  0.00  0.00    +0.000 A 
ATOM      7  C   UNL     1      -1.093  10.925  23.096  0.00  0.00    +0.000 A 
ATOM      8  C   UNL     1      -1.764  12.170  23.152  0.00  0.00    +0.000 A 
ATOM      9  C   UNL     1      -2.634  12.564  22.167  0.00  0.00    +0.000 A 
ATOM     10  C   UNL     1      -1.907  12.182  20.999  0.00  0.00    +0.000 A 
ATOM     11  C   UNL     1      -0.769  11.179  20.765  0.00  0.00    +0.000 A 
ATOM     12  C   UNL     1       0.106  10.768  19.621  0.00  0.00    +0.000 A 
ENDBRANCH   2   3
BRANCH   2  13
ATOM     13  C   UNL     1       2.321   7.712  18.590  0.00  0.00    +0.000 C 
ATOM     14  C   UNL     1       3.223   7.243  17.709  0.00  0.00    +0.000 C 
BRANCH  14  15
ATOM     15  C   UNL     1       3.505   5.759  17.559  0.00  0.00    +0.000 A 
ATOM     16  C   UNL     1       2.560   4.857  18.118  0.00  0.00    +0.000 A 
ATOM     17  C   UNL     1       2.794   3.471  18.164  0.00  0.00    +0.000 A 
ATOM     18  C   UNL     1       3.894   2.921  17.532  0.00  0.00    +0.000 A 
ATOM     19  C   UNL     1       4.820   3.783  16.954  0.00  0.00    +0.000 A 
ATOM     20  C   UNL     1       4.664   5.189  16.983  0.00  0.00    +0.000 A 
BRANCH  20  21
ATOM     21  N   UNL     1       5.750   6.018  16.322  0.00  0.00    +0.000 N 
ATOM     22  O   UNL     1       6.670   6.334  17.087  0.00  0.00    +0.000 OA
ATOM     23  O   UNL     1       5.595   6.481  15.176  0.00  0.00    +0.000 OA
ENDBRANCH  20  21
ENDBRANCH  14  15
ENDBRANCH   2  13
TORSDOF 4
ENDMDL
MODEL 7
REMARK VINA RESULT:      -7.9      2.475      3.603
REMARK  Name = 
REMARK  4 active torsions:
REMARK  status: ('A' for Active; 'I' for Inactive)
REMARK    1  A    between atoms: C_2  and  C_3
REMARK    2  A    between atoms: C_2  and  C_14
REMARK    3  A    between atoms: C_4  and  C_5
REMARK    4  A    between atoms: C_10  and  N_11
REMARK                            x       y       z     vdW  Elec       q    Type
REMARK                         _______ _______ _______ _____ _____    ______ ____
ROOT
ATOM      1  O   UNL     1       2.559   5.359  20.669  0.00  0.00    +0.000 OA
ATOM      2  C   UNL     1       2.670   5.985  19.623  0.00  0.00    +0.000 C 
ENDROOT
BRANCH   2   3
ATOM      3  C   UNL     1       2.125   7.379  19.502  0.00  0.00    +0.000 A 
ATOM      4  C   UNL     1       2.238   7.992  18.268  0.00  0.00    +0.000 A 
ATOM      5  C   UNL     1       1.727   9.277  18.127  0.00  0.00    +0.000 A 
ATOM      6  C   UNL     1       1.030   9.963  19.137  0.00  0.00    +0.000 A 
ATOM      7  C   UNL     1       0.363  11.145  18.840  0.00  0.00    +0.000 A 
ATOM      8  C   UNL     1      -0.443  11.793  19.807  0.00  0.00    +0.000 A 
ATOM      9  C   UNL     1      -0.043  11.914  21.113  0.00  0.00    +0.000 A 
ATOM     10  C   UNL     1       0.475  10.605  21.357  0.00  0.00    +0.000 A 
ATOM     11  C   UNL     1       0.974   9.496  20.423  0.00  0.00    +0.000 A 
ATOM     12  C   UNL     1       1.451   8.082  20.564  0.00  0.00    +0.000 A 
ENDBRANCH   2   3
BRANCH   2  13
ATOM     13  C   UNL     1       3.404   5.425  18.443  0.00  0.00    +0.000 C 
ATOM     14  C   UNL     1       4.748   5.368  18.390  0.00  0.00    +0.000 C 
BRANCH  14  15
ATOM     15  C   UNL     1       5.492   5.166  17.083  0.00  0.00    +0.000 A 
ATOM     16  C   UNL     1       4.937   4.248  16.151  0.00  0.00    +0.000 A 
ATOM     17  C   UNL     1       5.618   3.878  14.978  0.00  0.00    +0.000 A 
ATOM     18  C   UNL     1       6.794   4.510  14.616  0.00  0.00    +0.000 A 
ATOM     19  C   UNL     1       7.343   5.432  15.500  0.00  0.00    +0.000 A 
ATOM     20  C   UNL     1       6.735   5.749  16.738  0.00  0.00    +0.000 A 
BRANCH  20  21
ATOM     21  N   UNL     1       7.440   6.767  17.615  0.00  0.00    +0.000 N 
ATOM     22  O   UNL     1       7.613   7.862  17.065  0.00  0.00    +0.000 OA
ATOM     23  O   UNL     1       7.954   6.434  18.699  0.00  0.00    +0.000 OA
ENDBRANCH  20  21
ENDBRANCH  14  15
ENDBRANCH   2  13
TORSDOF 4
ENDMDL
MODEL 8
REMARK VINA RESULT:      -7.9      2.441      8.011
REMARK  Name = 
REMARK  4 active torsions:
REMARK  status: ('A' for Active; 'I' for Inactive)
REMARK    1  A    between atoms: C_2  and  C_3
REMARK    2  A    between atoms: C_2  and  C_14
REMARK    3  A    between atoms: C_4  and  C_5
REMARK    4  A    between atoms: C_10  and  N_11
REMARK                            x       y       z     vdW  Elec       q    Type
REMARK                         _______ _______ _______ _____ _____    ______ ____
ROOT
ATOM      1  O   UNL     1       2.154   3.942  21.576  0.00  0.00    +0.000 OA
ATOM      2  C   UNL     1       2.216   4.796  20.701  0.00  0.00    +0.000 C 
ENDROOT
BRANCH   2   3
ATOM      3  C   UNL     1       3.040   4.570  19.466  0.00  0.00    +0.000 A 
ATOM      4  C   UNL     1       2.397   4.012  18.376  0.00  0.00    +0.000 A 
ATOM      5  C   UNL     1       3.135   3.808  17.217  0.00  0.00    +0.000 A 
ATOM      6  C   UNL     1       4.473   4.205  17.053  0.00  0.00    +0.000 A 
ATOM      7  C   UNL     1       5.061   4.165  15.795  0.00  0.00    +0.000 A 
ATOM      8  C   UNL     1       6.366   4.670  15.581  0.00  0.00    +0.000 A 
ATOM      9  C   UNL     1       7.383   4.437  16.471  0.00  0.00    +0.000 A 
ATOM     10  C   UNL     1       6.712   4.661  17.711  0.00  0.00    +0.000 A 
ATOM     11  C   UNL     1       5.229   4.650  18.106  0.00  0.00    +0.000 A 
ATOM     12  C   UNL     1       4.424   4.947  19.334  0.00  0.00    +0.000 A 
ENDBRANCH   2   3
BRANCH   2  13
ATOM     13  C   UNL     1       1.430   6.069  20.784  0.00  0.00    +0.000 C 
ATOM     14  C   UNL     1       1.837   7.208  20.195  0.00  0.00    +0.000 C 
BRANCH  14  15
ATOM     15  C   UNL     1       1.267   8.560  20.581  0.00  0.00    +0.000 A 
ATOM     16  C   UNL     1       0.993   8.783  21.957  0.00  0.00    +0.000 A 
ATOM     17  C   UNL     1       0.331   9.941  22.404  0.00  0.00    +0.000 A 
ATOM     18  C   UNL     1       0.054  10.976  21.530  0.00  0.00    +0.000 A 
ATOM     19  C   UNL     1       0.338  10.792  20.181  0.00  0.00    +0.000 A 
ATOM     20  C   UNL     1       0.908   9.595  19.685  0.00  0.00    +0.000 A 
BRANCH  20  21
ATOM     21  N   UNL     1       1.163   9.518  18.191  0.00  0.00    +0.000 N 
ATOM     22  O   UNL     1       0.137   9.347  17.520  0.00  0.00    +0.000 OA
ATOM     23  O   UNL     1       2.321   9.440  17.741  0.00  0.00    +0.000 OA
ENDBRANCH  20  21
ENDBRANCH  14  15
ENDBRANCH   2  13
TORSDOF 4
ENDMDL
MODEL 9
REMARK VINA RESULT:      -7.9      1.483      1.653
REMARK  Name = 
REMARK  4 active torsions:
REMARK  status: ('A' for Active; 'I' for Inactive)
REMARK    1  A    between atoms: C_2  and  C_3
REMARK    2  A    between atoms: C_2  and  C_14
REMARK    3  A    between atoms: C_4  and  C_5
REMARK    4  A    between atoms: C_10  and  N_11
REMARK                            x       y       z     vdW  Elec       q    Type
REMARK                         _______ _______ _______ _____ _____    ______ ____
ROOT
ATOM      1  O   UNL     1       2.608   8.537  17.180  0.00  0.00    +0.000 OA
ATOM      2  C   UNL     1       2.232   8.209  18.298  0.00  0.00    +0.000 C 
ENDROOT
BRANCH   2   3
ATOM      3  C   UNL     1       1.244   9.051  19.052  0.00  0.00    +0.000 A 
ATOM      4  C   UNL     1       1.236   8.927  20.430  0.00  0.00    +0.000 A 
ATOM      5  C   UNL     1       0.341   9.707  21.151  0.00  0.00    +0.000 A 
ATOM      6  C   UNL     1      -0.503  10.674  20.577  0.00  0.00    +0.000 A 
ATOM      7  C   UNL     1      -1.198  11.559  21.390  0.00  0.00    +0.000 A 
ATOM      8  C   UNL     1      -1.960  12.617  20.838  0.00  0.00    +0.000 A 
ATOM      9  C   UNL     1      -2.751  12.433  19.732  0.00  0.00    +0.000 A 
ATOM     10  C   UNL     1      -1.883  11.654  18.908  0.00  0.00    +0.000 A 
ATOM     11  C   UNL     1      -0.658  10.785  19.220  0.00  0.00    +0.000 A 
ATOM     12  C   UNL     1       0.357  10.007  18.440  0.00  0.00    +0.000 A 
ENDBRANCH   2   3
BRANCH   2  13
ATOM     13  C   UNL     1       2.683   6.932  18.938  0.00  0.00    +0.000 C 
ATOM     14  C   UNL     1       2.152   5.737  18.618  0.00  0.00    +0.000 C 
BRANCH  14  15
ATOM     15  C   UNL     1       2.321   4.519  19.507  0.00  0.00    +0.000 A 
ATOM     16  C   UNL     1       1.260   4.211  20.400  0.00  0.00    +0.000 A 
ATOM     17  C   UNL     1       1.373   3.195  21.366  0.00  0.00    +0.000 A 
ATOM     18  C   UNL     1       2.474   2.358  21.382  0.00  0.00    +0.000 A 
ATOM     19  C   UNL     1       3.515   2.623  20.499  0.00  0.00    +0.000 A 
ATOM     20  C   UNL     1       3.475   3.704  19.586  0.00  0.00    +0.000 A 
BRANCH  20  21
ATOM     21  N   UNL     1       4.679   3.888  18.680  0.00  0.00    +0.000 N 
ATOM     22  O   UNL     1       4.494   3.498  17.521  0.00  0.00    +0.000 OA
ATOM     23  O   UNL     1       5.786   4.218  19.145  0.00  0.00    +0.000 OA
ENDBRANCH  20  21
ENDBRANCH  14  15
ENDBRANCH   2  13
TORSDOF 4
ENDMDL
