MODEL 1
REMARK VINA RESULT:      -7.0      0.000      0.000
REMARK  Name = 
REMARK  3 active torsions:
REMARK  status: ('A' for Active; 'I' for Inactive)
REMARK    1  A    between atoms: C_4  and  N_5
REMARK    2  A    between atoms: N_5  and  C_6
REMARK    3  A    between atoms: C_6  and  C_7
REMARK                            x       y       z     vdW  Elec       q    Type
REMARK                         _______ _______ _______ _____ _____    ______ ____
ROOT
ATOM      1  F   UNL     1       1.817   6.532  18.157  0.00  0.00    +0.000 F 
ATOM      2  C   UNL     1       2.829   5.735  18.530  0.00  0.00    +0.000 A 
ATOM      3  C   UNL     1       4.135   6.067  18.168  0.00  0.00    +0.000 A 
ATOM      4  C   UNL     1       5.216   5.247  18.500  0.00  0.00    +0.000 A 
ATOM      5  C   UNL     1       4.967   4.097  19.267  0.00  0.00    +0.000 A 
ATOM      6  C   UNL     1       3.651   3.747  19.662  0.00  0.00    +0.000 A 
ATOM      7  C   UNL     1       3.134   2.655  20.431  0.00  0.00    +0.000 A 
ATOM      8  N   UNL     1       1.820   2.601  20.621  0.00  0.00    +0.000 NA
ATOM      9  S   UNL     1       1.134   3.907  19.865  0.00  0.00    +0.000 S 
ATOM     10  C   UNL     1       2.599   4.577  19.273  0.00  0.00    +0.000 A 
ENDROOT
BRANCH   4  11
ATOM     11  N   UNL     1       6.488   5.649  18.089  0.00  0.00    +0.000 N 
ATOM     12  H   UNL     1       7.013   6.087  18.850  0.00  0.00    +0.000 HD
BRANCH  11  13
ATOM     13  C   UNL     1       7.344   4.728  17.334  0.00  0.00    +0.000 C 
BRANCH  13  14
ATOM     14  C   UNL     1       7.028   4.649  15.858  0.00  0.00    +0.000 A 
ATOM     15  N   UNL     1       7.698   5.284  14.912  0.00  0.00    +0.000 NA
ATOM     16  C   UNL     1       7.180   4.942  13.674  0.00  0.00    +0.000 A 
ATOM     17  C   UNL     1       6.138   4.050  13.711  0.00  0.00    +0.000 A 
ATOM     18 CL   UNL     1       5.265   3.391  12.396  0.00  0.00    +0.000 Cl
ATOM     19  S   UNL     1       5.764   3.613  15.303  0.00  0.00    +0.000 S 
ENDBRANCH  13  14
ENDBRANCH  11  13
ENDBRANCH   4  11
TORSDOF 3
ENDMDL
MODEL 2
REMARK VINA RESULT:      -6.8      1.340      1.349
REMARK  Name = 
REMARK  3 active torsions:
REMARK  status: ('A' for Active; 'I' for Inactive)
REMARK    1  A    between atoms: C_4  and  N_5
REMARK    2  A    between atoms: N_5  and  C_6
REMARK    3  A    between atoms: C_6  and  C_7
REMARK                            x       y       z     vdW  Elec       q    Type
REMARK                         _______ _______ _______ _____ _____    ______ ____
ROOT
ATOM      1  F   UNL     1       1.263   4.288  17.187  0.00  0.00    +0.000 F 
ATOM      2  C   UNL     1       2.328   3.983  17.941  0.00  0.00    +0.000 A 
ATOM      3  C   UNL     1       3.610   4.123  17.409  0.00  0.00    +0.000 A 
ATOM      4  C   UNL     1       4.748   3.780  18.143  0.00  0.00    +0.000 A 
ATOM      5  C   UNL     1       4.578   3.341  19.466  0.00  0.00    +0.000 A 
ATOM      6  C   UNL     1       3.287   3.206  20.036  0.00  0.00    +0.000 A 
ATOM      7  C   UNL     1       2.845   2.792  21.335  0.00  0.00    +0.000 A 
ATOM      8  N   UNL     1       1.536   2.761  21.560  0.00  0.00    +0.000 NA
ATOM      9  S   UNL     1       0.761   3.251  20.179  0.00  0.00    +0.000 S 
ATOM     10  C   UNL     1       2.179   3.524  19.251  0.00  0.00    +0.000 A 
ENDROOT
BRANCH   4  11
ATOM     11  N   UNL     1       5.992   3.942  17.529  0.00  0.00    +0.000 N 
ATOM     12  H   UNL     1       6.248   3.126  16.967  0.00  0.00    +0.000 HD
BRANCH  11  13
ATOM     13  C   UNL     1       6.304   5.182  16.811  0.00  0.00    +0.000 C 
BRANCH  13  14
ATOM     14  C   UNL     1       6.684   4.989  15.362  0.00  0.00    +0.000 A 
ATOM     15  N   UNL     1       7.721   5.561  14.775  0.00  0.00    +0.000 NA
ATOM     16  C   UNL     1       7.808   5.120  13.464  0.00  0.00    +0.000 A 
ATOM     17  C   UNL     1       6.842   4.220  13.094  0.00  0.00    +0.000 A 
ATOM     18 CL   UNL     1       6.641   3.453  11.578  0.00  0.00    +0.000 Cl
ATOM     19  S   UNL     1       5.782   3.897  14.374  0.00  0.00    +0.000 S 
ENDBRANCH  13  14
ENDBRANCH  11  13
ENDBRANCH   4  11
TORSDOF 3
ENDMDL
MODEL 3
REMARK VINA RESULT:      -6.7      1.626      2.084
REMARK  Name = 
REMARK  3 active torsions:
REMARK  status: ('A' for Active; 'I' for Inactive)
REMARK    1  A    between atoms: C_4  and  N_5
REMARK    2  A    between atoms: N_5  and  C_6
REMARK    3  A    between atoms: C_6  and  C_7
REMARK                            x       y       z     vdW  Elec       q    Type
REMARK                         _______ _______ _______ _____ _____    ______ ____
ROOT
ATOM      1  F   UNL     1       4.799   1.729  20.175  0.00  0.00    +0.000 F 
ATOM      2  C   UNL     1       4.467   2.965  19.776  0.00  0.00    +0.000 A 
ATOM      3  C   UNL     1       5.411   3.751  19.114  0.00  0.00    +0.000 A 
ATOM      4  C   UNL     1       5.123   5.058  18.715  0.00  0.00    +0.000 A 
ATOM      5  C   UNL     1       3.828   5.553  18.943  0.00  0.00    +0.000 A 
ATOM      6  C   UNL     1       2.846   4.768  19.597  0.00  0.00    +0.000 A 
ATOM      7  C   UNL     1       1.479   5.025  19.943  0.00  0.00    +0.000 A 
ATOM      8  N   UNL     1       0.812   4.068  20.579  0.00  0.00    +0.000 NA
ATOM      9  S   UNL     1       1.832   2.777  20.786  0.00  0.00    +0.000 S 
ATOM     10  C   UNL     1       3.192   3.482  20.012  0.00  0.00    +0.000 A 
ENDROOT
BRANCH   4  11
ATOM     11  N   UNL     1       6.129   5.777  18.068  0.00  0.00    +0.000 N 
ATOM     12  H   UNL     1       6.502   6.526  18.657  0.00  0.00    +0.000 HD
BRANCH  11  13
ATOM     13  C   UNL     1       7.216   5.071  17.382  0.00  0.00    +0.000 C 
BRANCH  13  14
ATOM     14  C   UNL     1       7.004   4.884  15.897  0.00  0.00    +0.000 A 
ATOM     15  N   UNL     1       7.674   5.527  14.957  0.00  0.00    +0.000 NA
ATOM     16  C   UNL     1       7.268   5.074  13.712  0.00  0.00    +0.000 A 
ATOM     17  C   UNL     1       6.307   4.095  13.741  0.00  0.00    +0.000 A 
ATOM     18 CL   UNL     1       5.581   3.291  12.417  0.00  0.00    +0.000 Cl
ATOM     19  S   UNL     1       5.871   3.711  15.331  0.00  0.00    +0.000 S 
ENDBRANCH  13  14
ENDBRANCH  11  13
ENDBRANCH   4  11
TORSDOF 3
ENDMDL
MODEL 4
REMARK VINA RESULT:      -6.7      1.636      2.023
REMARK  Name = 
REMARK  3 active torsions:
REMARK  status: ('A' for Active; 'I' for Inactive)
REMARK    1  A    between atoms: C_4  and  N_5
REMARK    2  A    between atoms: N_5  and  C_6
REMARK    3  A    between atoms: C_6  and  C_7
REMARK                            x       y       z     vdW  Elec       q    Type
REMARK                         _______ _______ _______ _____ _____    ______ ____
ROOT
ATOM      1  F   UNL     1       2.708   1.471  18.634  0.00  0.00    +0.000 F 
ATOM      2  C   UNL     1       3.284   2.666  18.825  0.00  0.00    +0.000 A 
ATOM      3  C   UNL     1       4.582   2.886  18.361  0.00  0.00    +0.000 A 
ATOM      4  C   UNL     1       5.237   4.101  18.572  0.00  0.00    +0.000 A 
ATOM      5  C   UNL     1       4.536   5.132  19.217  0.00  0.00    +0.000 A 
ATOM      6  C   UNL     1       3.210   4.940  19.682  0.00  0.00    +0.000 A 
ATOM      7  C   UNL     1       2.288   5.808  20.353  0.00  0.00    +0.000 A 
ATOM      8  N   UNL     1       1.097   5.315  20.675  0.00  0.00    +0.000 NA
ATOM      9  S   UNL     1       1.034   3.740  20.158  0.00  0.00    +0.000 S 
ATOM     10  C   UNL     1       2.611   3.696  19.483  0.00  0.00    +0.000 A 
ENDROOT
BRANCH   4  11
ATOM     11  N   UNL     1       6.539   4.231  18.083  0.00  0.00    +0.000 N 
ATOM     12  H   UNL     1       6.896   3.349  17.709  0.00  0.00    +0.000 HD
BRANCH  11  13
ATOM     13  C   UNL     1       6.884   5.347  17.195  0.00  0.00    +0.000 C 
BRANCH  13  14
ATOM     14  C   UNL     1       6.831   5.013  15.722  0.00  0.00    +0.000 A 
ATOM     15  N   UNL     1       7.728   5.402  14.832  0.00  0.00    +0.000 NA
ATOM     16  C   UNL     1       7.405   4.872  13.593  0.00  0.00    +0.000 A 
ATOM     17  C   UNL     1       6.279   4.089  13.577  0.00  0.00    +0.000 A 
ATOM     18 CL   UNL     1       5.587   3.263  12.248  0.00  0.00    +0.000 Cl
ATOM     19  S   UNL     1       5.577   3.994  15.115  0.00  0.00    +0.000 S 
ENDBRANCH  13  14
ENDBRANCH  11  13
ENDBRANCH   4  11
TORSDOF 3
ENDMDL
MODEL 5
REMARK VINA RESULT:      -6.6      2.725      3.126
REMARK  Name = 
REMARK  3 active torsions:
REMARK  status: ('A' for Active; 'I' for Inactive)
REMARK    1  A    between atoms: C_4  and  N_5
REMARK    2  A    between atoms: N_5  and  C_6
REMARK    3  A    between atoms: C_6  and  C_7
REMARK                            x       y       z     vdW  Elec       q    Type
REMARK                         _______ _______ _______ _____ _____    ______ ____
ROOT
ATOM      1  F   UNL     1       0.884   4.754  17.490  0.00  0.00    +0.000 F 
ATOM      2  C   UNL     1       1.970   4.110  17.939  0.00  0.00    +0.000 A 
ATOM      3  C   UNL     1       3.030   3.858  17.066  0.00  0.00    +0.000 A 
ATOM      4  C   UNL     1       4.164   3.156  17.478  0.00  0.00    +0.000 A 
ATOM      5  C   UNL     1       4.247   2.755  18.822  0.00  0.00    +0.000 A 
ATOM      6  C   UNL     1       3.192   3.014  19.732  0.00  0.00    +0.000 A 
ATOM      7  C   UNL     1       3.027   2.723  21.126  0.00  0.00    +0.000 A 
ATOM      8  N   UNL     1       1.890   3.095  21.704  0.00  0.00    +0.000 NA
ATOM      9  S   UNL     1       0.949   3.842  20.562  0.00  0.00    +0.000 S 
ATOM     10  C   UNL     1       2.062   3.685  19.264  0.00  0.00    +0.000 A 
ENDROOT
BRANCH   4  11
ATOM     11  N   UNL     1       5.173   2.938  16.537  0.00  0.00    +0.000 N 
ATOM     12  H   UNL     1       5.024   2.073  16.012  0.00  0.00    +0.000 HD
BRANCH  11  13
ATOM     13  C   UNL     1       5.590   4.021  15.640  0.00  0.00    +0.000 C 
BRANCH  13  14
ATOM     14  C   UNL     1       6.179   5.223  16.341  0.00  0.00    +0.000 A 
ATOM     15  N   UNL     1       5.762   6.467  16.176  0.00  0.00    +0.000 NA
ATOM     16  C   UNL     1       6.481   7.306  17.012  0.00  0.00    +0.000 A 
ATOM     17  C   UNL     1       7.417   6.678  17.793  0.00  0.00    +0.000 A 
ATOM     18 CL   UNL     1       8.471   7.378  18.945  0.00  0.00    +0.000 Cl
ATOM     19  S   UNL     1       7.437   5.010  17.504  0.00  0.00    +0.000 S 
ENDBRANCH  13  14
ENDBRANCH  11  13
ENDBRANCH   4  11
TORSDOF 3
ENDMDL
MODEL 6
REMARK VINA RESULT:      -6.6      2.716      3.257
REMARK  Name = 
REMARK  3 active torsions:
REMARK  status: ('A' for Active; 'I' for Inactive)
REMARK    1  A    between atoms: C_4  and  N_5
REMARK    2  A    between atoms: N_5  and  C_6
REMARK    3  A    between atoms: C_6  and  C_7
REMARK                            x       y       z     vdW  Elec       q    Type
REMARK                         _______ _______ _______ _____ _____    ______ ____
ROOT
ATOM      1  F   UNL     1       1.693   5.919  17.974  0.00  0.00    +0.000 F 
ATOM      2  C   UNL     1       2.518   4.906  18.272  0.00  0.00    +0.000 A 
ATOM      3  C   UNL     1       3.502   4.529  17.358  0.00  0.00    +0.000 A 
ATOM      4  C   UNL     1       4.359   3.454  17.608  0.00  0.00    +0.000 A 
ATOM      5  C   UNL     1       4.248   2.788  18.840  0.00  0.00    +0.000 A 
ATOM      6  C   UNL     1       3.268   3.164  19.793  0.00  0.00    +0.000 A 
ATOM      7  C   UNL     1       2.950   2.665  21.098  0.00  0.00    +0.000 A 
ATOM      8  N   UNL     1       1.943   3.235  21.750  0.00  0.00    +0.000 NA
ATOM      9  S   UNL     1       1.324   4.439  20.793  0.00  0.00    +0.000 S 
ATOM     10  C   UNL     1       2.410   4.219  19.482  0.00  0.00    +0.000 A 
ENDROOT
BRANCH   4  11
ATOM     11  N   UNL     1       5.308   3.138  16.635  0.00  0.00    +0.000 N 
ATOM     12  H   UNL     1       4.917   2.544  15.900  0.00  0.00    +0.000 HD
BRANCH  11  13
ATOM     13  C   UNL     1       6.149   4.191  16.055  0.00  0.00    +0.000 C 
BRANCH  13  14
ATOM     14  C   UNL     1       6.849   5.063  17.071  0.00  0.00    +0.000 A 
ATOM     15  N   UNL     1       7.421   4.617  18.176  0.00  0.00    +0.000 NA
ATOM     16  C   UNL     1       8.016   5.675  18.844  0.00  0.00    +0.000 A 
ATOM     17  C   UNL     1       7.888   6.892  18.226  0.00  0.00    +0.000 A 
ATOM     18 CL   UNL     1       8.499   8.406  18.739  0.00  0.00    +0.000 Cl
ATOM     19  S   UNL     1       7.009   6.758  16.785  0.00  0.00    +0.000 S 
ENDBRANCH  13  14
ENDBRANCH  11  13
ENDBRANCH   4  11
TORSDOF 3
ENDMDL
MODEL 7
REMARK VINA RESULT:      -6.3      1.424      1.503
REMARK  Name = 
REMARK  3 active torsions:
REMARK  status: ('A' for Active; 'I' for Inactive)
REMARK    1  A    between atoms: C_4  and  N_5
REMARK    2  A    between atoms: N_5  and  C_6
REMARK    3  A    between atoms: C_6  and  C_7
REMARK                            x       y       z     vdW  Elec       q    Type
REMARK                         _______ _______ _______ _____ _____    ______ ____
ROOT
ATOM      1  F   UNL     1       1.933   6.413  19.534  0.00  0.00    +0.000 F 
ATOM      2  C   UNL     1       2.869   5.465  19.388  0.00  0.00    +0.000 A 
ATOM      3  C   UNL     1       4.218   5.814  19.463  0.00  0.00    +0.000 A 
ATOM      4  C   UNL     1       5.229   4.868  19.278  0.00  0.00    +0.000 A 
ATOM      5  C   UNL     1       4.858   3.530  19.070  0.00  0.00    +0.000 A 
ATOM      6  C   UNL     1       3.494   3.147  19.007  0.00  0.00    +0.000 A 
ATOM      7  C   UNL     1       2.857   1.878  18.813  0.00  0.00    +0.000 A 
ATOM      8  N   UNL     1       1.529   1.850  18.791  0.00  0.00    +0.000 NA
ATOM      9  S   UNL     1       0.976   3.397  19.018  0.00  0.00    +0.000 S 
ATOM     10  C   UNL     1       2.520   4.133  19.159  0.00  0.00    +0.000 A 
ENDROOT
BRANCH   4  11
ATOM     11  N   UNL     1       6.552   5.306  19.360  0.00  0.00    +0.000 N 
ATOM     12  H   UNL     1       7.179   4.565  19.684  0.00  0.00    +0.000 HD
BRANCH  11  13
ATOM     13  C   UNL     1       7.156   6.041  18.243  0.00  0.00    +0.000 C 
BRANCH  13  14
ATOM     14  C   UNL     1       6.566   5.720  16.889  0.00  0.00    +0.000 A 
ATOM     15  N   UNL     1       5.698   6.484  16.249  0.00  0.00    +0.000 NA
ATOM     16  C   UNL     1       5.413   5.920  15.016  0.00  0.00    +0.000 A 
ATOM     17  C   UNL     1       6.077   4.750  14.750  0.00  0.00    +0.000 A 
ATOM     18 CL   UNL     1       5.992   3.786  13.338  0.00  0.00    +0.000 Cl
ATOM     19  S   UNL     1       7.080   4.308  16.040  0.00  0.00    +0.000 S 
ENDBRANCH  13  14
ENDBRANCH  11  13
ENDBRANCH   4  11
TORSDOF 3
ENDMDL
MODEL 8
REMARK VINA RESULT:      -6.3      3.285      4.284
REMARK  Name = 
REMARK  3 active torsions:
REMARK  status: ('A' for Active; 'I' for Inactive)
REMARK    1  A    between atoms: C_4  and  N_5
REMARK    2  A    between atoms: N_5  and  C_6
REMARK    3  A    between atoms: C_6  and  C_7
REMARK                            x       y       z     vdW  Elec       q    Type
REMARK                         _______ _______ _______ _____ _____    ______ ____
ROOT
ATOM      1  F   UNL     1       2.236   5.102  21.527  0.00  0.00    +0.000 F 
ATOM      2  C   UNL     1       2.512   5.431  20.258  0.00  0.00    +0.000 A 
ATOM      3  C   UNL     1       3.111   4.491  19.418  0.00  0.00    +0.000 A 
ATOM      4  C   UNL     1       3.453   4.802  18.100  0.00  0.00    +0.000 A 
ATOM      5  C   UNL     1       3.126   6.078  17.611  0.00  0.00    +0.000 A 
ATOM      6  C   UNL     1       2.502   7.045  18.439  0.00  0.00    +0.000 A 
ATOM      7  C   UNL     1       2.068   8.388  18.194  0.00  0.00    +0.000 A 
ATOM      8  N   UNL     1       1.517   9.053  19.204  0.00  0.00    +0.000 NA
ATOM      9  S   UNL     1       1.490   8.054  20.527  0.00  0.00    +0.000 S 
ATOM     10  C   UNL     1       2.215   6.701  19.759  0.00  0.00    +0.000 A 
ENDROOT
BRANCH   4  11
ATOM     11  N   UNL     1       4.058   3.805  17.332  0.00  0.00    +0.000 N 
ATOM     12  H   UNL     1       3.409   3.401  16.653  0.00  0.00    +0.000 HD
BRANCH  11  13
ATOM     13  C   UNL     1       5.369   4.042  16.716  0.00  0.00    +0.000 C 
BRANCH  13  14
ATOM     14  C   UNL     1       6.280   4.947  17.513  0.00  0.00    +0.000 A 
ATOM     15  N   UNL     1       6.917   4.589  18.614  0.00  0.00    +0.000 NA
ATOM     16  C   UNL     1       7.708   5.640  19.049  0.00  0.00    +0.000 A 
ATOM     17  C   UNL     1       7.657   6.763  18.264  0.00  0.00    +0.000 A 
ATOM     18 CL   UNL     1       8.500   8.237  18.475  0.00  0.00    +0.000 Cl
ATOM     19  S   UNL     1       6.609   6.546  16.952  0.00  0.00    +0.000 S 
ENDBRANCH  13  14
ENDBRANCH  11  13
ENDBRANCH   4  11
TORSDOF 3
ENDMDL
MODEL 9
REMARK VINA RESULT:      -6.3      3.520      5.977
REMARK  Name = 
REMARK  3 active torsions:
REMARK  status: ('A' for Active; 'I' for Inactive)
REMARK    1  A    between atoms: C_4  and  N_5
REMARK    2  A    between atoms: N_5  and  C_6
REMARK    3  A    between atoms: C_6  and  C_7
REMARK                            x       y       z     vdW  Elec       q    Type
REMARK                         _______ _______ _______ _____ _____    ______ ____
ROOT
ATOM      1  F   UNL     1       5.045   6.942  15.372  0.00  0.00    +0.000 F 
ATOM      2  C   UNL     1       5.391   6.088  16.345  0.00  0.00    +0.000 A 
ATOM      3  C   UNL     1       4.723   4.868  16.460  0.00  0.00    +0.000 A 
ATOM      4  C   UNL     1       5.022   3.964  17.481  0.00  0.00    +0.000 A 
ATOM      5  C   UNL     1       6.063   4.283  18.368  0.00  0.00    +0.000 A 
ATOM      6  C   UNL     1       6.769   5.508  18.263  0.00  0.00    +0.000 A 
ATOM      7  C   UNL     1       7.851   6.066  19.019  0.00  0.00    +0.000 A 
ATOM      8  N   UNL     1       8.293   7.270  18.670  0.00  0.00    +0.000 NA
ATOM      9  S   UNL     1       7.403   7.790  17.371  0.00  0.00    +0.000 S 
ATOM     10  C   UNL     1       6.408   6.397  17.250  0.00  0.00    +0.000 A 
ENDROOT
BRANCH   4  11
ATOM     11  N   UNL     1       4.298   2.771  17.528  0.00  0.00    +0.000 N 
ATOM     12  H   UNL     1       4.785   2.050  18.064  0.00  0.00    +0.000 HD
BRANCH  11  13
ATOM     13  C   UNL     1       2.870   2.789  17.864  0.00  0.00    +0.000 C 
BRANCH  13  14
ATOM     14  C   UNL     1       2.510   3.693  19.020  0.00  0.00    +0.000 A 
ATOM     15  N   UNL     1       2.630   3.365  20.295  0.00  0.00    +0.000 NA
ATOM     16  C   UNL     1       2.268   4.445  21.083  0.00  0.00    +0.000 A 
ATOM     17  C   UNL     1       1.891   5.565  20.388  0.00  0.00    +0.000 A 
ATOM     18 CL   UNL     1       1.399   7.080  21.013  0.00  0.00    +0.000 Cl
ATOM     19  S   UNL     1       1.970   5.304  18.717  0.00  0.00    +0.000 S 
ENDBRANCH  13  14
ENDBRANCH  11  13
ENDBRANCH   4  11
TORSDOF 3
ENDMDL
