MODEL 1
REMARK VINA RESULT:      -7.1      0.000      0.000
REMARK  Name = 
REMARK  6 active torsions:
REMARK  status: ('A' for Active; 'I' for Inactive)
REMARK    1  A    between atoms: C_1  and  N_2
REMARK    2  A    between atoms: N_2  and  C_3
REMARK    3  A    between atoms: N_13  and  C_14
REMARK    4  A    between atoms: C_14  and  C_15
REMARK    5  A    between atoms: C_15  and  O_16
REMARK    6  A    between atoms: O_16  and  C_17
REMARK                            x       y       z     vdW  Elec       q    Type
REMARK                         _______ _______ _______ _____ _____    ______ ____
ROOT
ATOM      1  C   UNL     1      -0.795  10.923  20.443  0.00  0.00    +0.000 C 
ATOM      2  N   UNL     1       0.161   9.861  20.732  0.00  0.00    +0.000 N 
ATOM      3  C   UNL     1       0.358   9.559  22.138  0.00  0.00    +0.000 C 
ATOM      4  C   UNL     1       0.844   9.346  19.651  0.00  0.00    +0.000 C 
ATOM      5  O   UNL     1       0.729   9.885  18.543  0.00  0.00    +0.000 OA
ATOM      6  N   UNL     1       1.626   8.221  19.772  0.00  0.00    +0.000 N 
ATOM      7  C   UNL     1       1.866   7.337  20.889  0.00  0.00    +0.000 C 
ATOM      8  C   UNL     1       1.970   5.968  20.255  0.00  0.00    +0.000 C 
ATOM      9  C   UNL     1       2.633   6.218  18.885  0.00  0.00    +0.000 C 
ATOM     10  C   UNL     1       2.048   5.275  17.823  0.00  0.00    +0.000 C 
ATOM     11  C   UNL     1       2.424   3.828  18.128  0.00  0.00    +0.000 C 
ATOM     12  C   UNL     1       3.939   3.671  18.282  0.00  0.00    +0.000 C 
ATOM     13  N   UNL     1       4.491   4.599  19.286  0.00  0.00    +0.000 NA
ATOM     14  C   UNL     1       4.157   5.999  18.958  0.00  0.00    +0.000 C 
ATOM     15  C   UNL     1       2.292   7.695  18.582  0.00  0.00    +0.000 C 
ENDROOT
BRANCH  13  16
ATOM     16  C   UNL     1       5.946   4.379  19.434  0.00  0.00    +0.000 C 
BRANCH  16  17
ATOM     17  C   UNL     1       6.786   5.645  19.185  0.00  0.00    +0.000 C 
BRANCH  17  18
ATOM     18  O   UNL     1       7.588   5.483  18.013  0.00  0.00    +0.000 OA
BRANCH  18  19
ATOM     19  C   UNL     1       6.878   5.343  16.848  0.00  0.00    +0.000 A 
ATOM     20  C   UNL     1       7.108   4.156  16.154  0.00  0.00    +0.000 A 
ATOM     21  C   UNL     1       6.451   3.899  14.946  0.00  0.00    +0.000 A 
ATOM     22  C   UNL     1       5.545   4.827  14.438  0.00  0.00    +0.000 A 
ATOM     23  C   UNL     1       5.290   6.004  15.138  0.00  0.00    +0.000 A 
ATOM     24  C   UNL     1       5.953   6.261  16.342  0.00  0.00    +0.000 A 
ENDBRANCH  18  19
ENDBRANCH  17  18
ENDBRANCH  16  17
ENDBRANCH  13  16
TORSDOF 4
ENDMDL
MODEL 2
REMARK VINA RESULT:      -7.1      0.412      1.057
REMARK  Name = 
REMARK  6 active torsions:
REMARK  status: ('A' for Active; 'I' for Inactive)
REMARK    1  A    between atoms: C_1  and  N_2
REMARK    2  A    between atoms: N_2  and  C_3
REMARK    3  A    between atoms: N_13  and  C_14
REMARK    4  A    between atoms: C_14  and  C_15
REMARK    5  A    between atoms: C_15  and  O_16
REMARK    6  A    between atoms: O_16  and  C_17
REMARK                            x       y       z     vdW  Elec       q    Type
REMARK                         _______ _______ _______ _____ _____    ______ ____
ROOT
ATOM      1  C   UNL     1      -0.458  11.242  19.848  0.00  0.00    +0.000 C 
ATOM      2  N   UNL     1       0.429  10.150  20.229  0.00  0.00    +0.000 N 
ATOM      3  C   UNL     1       0.667  10.003  21.654  0.00  0.00    +0.000 C 
ATOM      4  C   UNL     1       1.024   9.458  19.195  0.00  0.00    +0.000 C 
ATOM      5  O   UNL     1       0.898   9.869  18.034  0.00  0.00    +0.000 OA
ATOM      6  N   UNL     1       1.726   8.299  19.424  0.00  0.00    +0.000 N 
ATOM      7  C   UNL     1       1.951   7.537  20.631  0.00  0.00    +0.000 C 
ATOM      8  C   UNL     1       1.927   6.099  20.166  0.00  0.00    +0.000 C 
ATOM      9  C   UNL     1       2.544   6.132  18.753  0.00  0.00    +0.000 C 
ATOM     10  C   UNL     1       1.844   5.118  17.836  0.00  0.00    +0.000 C 
ATOM     11  C   UNL     1       2.127   3.692  18.301  0.00  0.00    +0.000 C 
ATOM     12  C   UNL     1       3.632   3.438  18.418  0.00  0.00    +0.000 C 
ATOM     13  N   UNL     1       4.295   4.433  19.281  0.00  0.00    +0.000 NA
ATOM     14  C   UNL     1       4.049   5.806  18.796  0.00  0.00    +0.000 C 
ATOM     15  C   UNL     1       2.297   7.584  18.284  0.00  0.00    +0.000 C 
ENDROOT
BRANCH  13  16
ATOM     16  C   UNL     1       5.735   4.120  19.402  0.00  0.00    +0.000 C 
BRANCH  16  17
ATOM     17  C   UNL     1       6.651   5.318  19.099  0.00  0.00    +0.000 C 
BRANCH  17  18
ATOM     18  O   UNL     1       7.507   5.019  17.994  0.00  0.00    +0.000 OA
BRANCH  18  19
ATOM     19  C   UNL     1       6.875   4.962  16.778  0.00  0.00    +0.000 A 
ATOM     20  C   UNL     1       6.101   6.077  16.460  0.00  0.00    +0.000 A 
ATOM     21  C   UNL     1       5.399   6.136  15.252  0.00  0.00    +0.000 A 
ATOM     22  C   UNL     1       5.485   5.079  14.348  0.00  0.00    +0.000 A 
ATOM     23  C   UNL     1       6.276   3.972  14.646  0.00  0.00    +0.000 A 
ATOM     24  C   UNL     1       6.972   3.913  15.858  0.00  0.00    +0.000 A 
ENDBRANCH  18  19
ENDBRANCH  17  18
ENDBRANCH  16  17
ENDBRANCH  13  16
TORSDOF 4
ENDMDL
MODEL 3
REMARK VINA RESULT:      -6.9      1.294      1.707
REMARK  Name = 
REMARK  6 active torsions:
REMARK  status: ('A' for Active; 'I' for Inactive)
REMARK    1  A    between atoms: C_1  and  N_2
REMARK    2  A    between atoms: N_2  and  C_3
REMARK    3  A    between atoms: N_13  and  C_14
REMARK    4  A    between atoms: C_14  and  C_15
REMARK    5  A    between atoms: C_15  and  O_16
REMARK    6  A    between atoms: O_16  and  C_17
REMARK                            x       y       z     vdW  Elec       q    Type
REMARK                         _______ _______ _______ _____ _____    ______ ____
ROOT
ATOM      1  C   UNL     1      -0.537  10.625  21.090  0.00  0.00    +0.000 C 
ATOM      2  N   UNL     1       0.519   9.622  21.041  0.00  0.00    +0.000 N 
ATOM      3  C   UNL     1       1.131   9.292  22.316  0.00  0.00    +0.000 C 
ATOM      4  C   UNL     1       0.889   9.186  19.786  0.00  0.00    +0.000 C 
ATOM      5  O   UNL     1       0.428   9.749  18.785  0.00  0.00    +0.000 OA
ATOM      6  N   UNL     1       1.734   8.114  19.624  0.00  0.00    +0.000 N 
ATOM      7  C   UNL     1       2.336   7.215  20.581  0.00  0.00    +0.000 C 
ATOM      8  C   UNL     1       2.330   5.877  19.879  0.00  0.00    +0.000 C 
ATOM      9  C   UNL     1       2.553   6.212  18.390  0.00  0.00    +0.000 C 
ATOM     10  C   UNL     1       1.740   5.263  17.497  0.00  0.00    +0.000 C 
ATOM     11  C   UNL     1       2.268   3.836  17.611  0.00  0.00    +0.000 C 
ATOM     12  C   UNL     1       3.770   3.778  17.317  0.00  0.00    +0.000 C 
ATOM     13  N   UNL     1       4.535   4.711  18.164  0.00  0.00    +0.000 NA
ATOM     14  C   UNL     1       4.043   6.094  18.012  0.00  0.00    +0.000 C 
ATOM     15  C   UNL     1       2.056   7.670  18.269  0.00  0.00    +0.000 C 
ENDROOT
BRANCH  13  16
ATOM     16  C   UNL     1       5.981   4.586  17.877  0.00  0.00    +0.000 C 
BRANCH  16  17
ATOM     17  C   UNL     1       6.476   5.553  16.788  0.00  0.00    +0.000 C 
BRANCH  17  18
ATOM     18  O   UNL     1       7.498   4.933  16.004  0.00  0.00    +0.000 OA
BRANCH  18  19
ATOM     19  C   UNL     1       7.130   4.632  14.718  0.00  0.00    +0.000 A 
ATOM     20  C   UNL     1       7.876   5.266  13.725  0.00  0.00    +0.000 A 
ATOM     21  C   UNL     1       7.593   5.048  12.373  0.00  0.00    +0.000 A 
ATOM     22  C   UNL     1       6.567   4.178  12.011  0.00  0.00    +0.000 A 
ATOM     23  C   UNL     1       5.833   3.521  12.996  0.00  0.00    +0.000 A 
ATOM     24  C   UNL     1       6.115   3.745  14.347  0.00  0.00    +0.000 A 
ENDBRANCH  18  19
ENDBRANCH  17  18
ENDBRANCH  16  17
ENDBRANCH  13  16
TORSDOF 4
ENDMDL
MODEL 4
REMARK VINA RESULT:      -6.9      1.352      1.719
REMARK  Name = 
REMARK  6 active torsions:
REMARK  status: ('A' for Active; 'I' for Inactive)
REMARK    1  A    between atoms: C_1  and  N_2
REMARK    2  A    between atoms: N_2  and  C_3
REMARK    3  A    between atoms: N_13  and  C_14
REMARK    4  A    between atoms: C_14  and  C_15
REMARK    5  A    between atoms: C_15  and  O_16
REMARK    6  A    between atoms: O_16  and  C_17
REMARK                            x       y       z     vdW  Elec       q    Type
REMARK                         _______ _______ _______ _____ _____    ______ ____
ROOT
ATOM      1  C   UNL     1      -0.916  10.923  19.766  0.00  0.00    +0.000 C 
ATOM      2  N   UNL     1       0.215  10.033  19.996  0.00  0.00    +0.000 N 
ATOM      3  C   UNL     1       0.747  10.031  21.347  0.00  0.00    +0.000 C 
ATOM      4  C   UNL     1       0.717   9.384  18.888  0.00  0.00    +0.000 C 
ATOM      5  O   UNL     1       0.295   9.683  17.763  0.00  0.00    +0.000 OA
ATOM      6  N   UNL     1       1.652   8.384  19.010  0.00  0.00    +0.000 N 
ATOM      7  C   UNL     1       2.244   7.762  20.171  0.00  0.00    +0.000 C 
ATOM      8  C   UNL     1       2.397   6.312  19.771  0.00  0.00    +0.000 C 
ATOM      9  C   UNL     1       2.712   6.352  18.261  0.00  0.00    +0.000 C 
ATOM     10  C   UNL     1       2.048   5.168  17.541  0.00  0.00    +0.000 C 
ATOM     11  C   UNL     1       2.675   3.851  17.988  0.00  0.00    +0.000 C 
ATOM     12  C   UNL     1       4.195   3.872  17.806  0.00  0.00    +0.000 C 
ATOM     13  N   UNL     1       4.816   5.026  18.482  0.00  0.00    +0.000 NA
ATOM     14  C   UNL     1       4.232   6.297  18.009  0.00  0.00    +0.000 C 
ATOM     15  C   UNL     1       2.115   7.701  17.802  0.00  0.00    +0.000 C 
ENDROOT
BRANCH  13  16
ATOM     16  C   UNL     1       6.285   4.979  18.318  0.00  0.00    +0.000 C 
BRANCH  16  17
ATOM     17  C   UNL     1       6.733   4.428  16.953  0.00  0.00    +0.000 C 
BRANCH  17  18
ATOM     18  O   UNL     1       6.542   5.414  15.935  0.00  0.00    +0.000 OA
BRANCH  18  19
ATOM     19  C   UNL     1       6.673   4.946  14.653  0.00  0.00    +0.000 A 
ATOM     20  C   UNL     1       5.685   4.050  14.245  0.00  0.00    +0.000 A 
ATOM     21  C   UNL     1       5.713   3.494  12.962  0.00  0.00    +0.000 A 
ATOM     22  C   UNL     1       6.726   3.851  12.074  0.00  0.00    +0.000 A 
ATOM     23  C   UNL     1       7.702   4.764  12.464  0.00  0.00    +0.000 A 
ATOM     24  C   UNL     1       7.676   5.313  13.750  0.00  0.00    +0.000 A 
ENDBRANCH  18  19
ENDBRANCH  17  18
ENDBRANCH  16  17
ENDBRANCH  13  16
TORSDOF 4
ENDMDL
MODEL 5
REMARK VINA RESULT:      -6.9      4.370      6.141
REMARK  Name = 
REMARK  6 active torsions:
REMARK  status: ('A' for Active; 'I' for Inactive)
REMARK    1  A    between atoms: C_1  and  N_2
REMARK    2  A    between atoms: N_2  and  C_3
REMARK    3  A    between atoms: N_13  and  C_14
REMARK    4  A    between atoms: C_14  and  C_15
REMARK    5  A    between atoms: C_15  and  O_16
REMARK    6  A    between atoms: O_16  and  C_17
REMARK                            x       y       z     vdW  Elec       q    Type
REMARK                         _______ _______ _______ _____ _____    ______ ____
ROOT
ATOM      1  C   UNL     1       0.252   2.802  19.939  0.00  0.00    +0.000 C 
ATOM      2  N   UNL     1       1.391   3.711  19.971  0.00  0.00    +0.000 N 
ATOM      3  C   UNL     1       1.735   4.241  21.278  0.00  0.00    +0.000 C 
ATOM      4  C   UNL     1       1.937   4.047  18.750  0.00  0.00    +0.000 C 
ATOM      5  O   UNL     1       1.369   3.692  17.709  0.00  0.00    +0.000 OA
ATOM      6  N   UNL     1       3.121   4.739  18.665  0.00  0.00    +0.000 N 
ATOM      7  C   UNL     1       4.044   5.189  19.682  0.00  0.00    +0.000 C 
ATOM      8  C   UNL     1       5.403   5.015  19.045  0.00  0.00    +0.000 C 
ATOM      9  C   UNL     1       5.179   5.317  17.550  0.00  0.00    +0.000 C 
ATOM     10  C   UNL     1       6.053   4.402  16.678  0.00  0.00    +0.000 C 
ATOM     11  C   UNL     1       7.531   4.726  16.876  0.00  0.00    +0.000 C 
ATOM     12  C   UNL     1       7.808   6.212  16.632  0.00  0.00    +0.000 C 
ATOM     13  N   UNL     1       6.947   7.078  17.456  0.00  0.00    +0.000 NA
ATOM     14  C   UNL     1       5.518   6.785  17.223  0.00  0.00    +0.000 C 
ATOM     15  C   UNL     1       3.675   5.029  17.343  0.00  0.00    +0.000 C 
ENDROOT
BRANCH  13  16
ATOM     16  C   UNL     1       7.282   8.499  17.220  0.00  0.00    +0.000 C 
BRANCH  16  17
ATOM     17  C   UNL     1       8.270   9.076  18.250  0.00  0.00    +0.000 C 
BRANCH  17  18
ATOM     18  O   UNL     1       8.518  10.457  17.977  0.00  0.00    +0.000 OA
BRANCH  18  19
ATOM     19  C   UNL     1       9.600  10.985  18.634  0.00  0.00    +0.000 A 
ATOM     20  C   UNL     1      10.657  11.377  17.813  0.00  0.00    +0.000 A 
ATOM     21  C   UNL     1      11.822  11.922  18.364  0.00  0.00    +0.000 A 
ATOM     22  C   UNL     1      11.922  12.093  19.743  0.00  0.00    +0.000 A 
ATOM     23  C   UNL     1      10.861  11.728  20.568  0.00  0.00    +0.000 A 
ATOM     24  C   UNL     1       9.701  11.177  20.015  0.00  0.00    +0.000 A 
ENDBRANCH  18  19
ENDBRANCH  17  18
ENDBRANCH  16  17
ENDBRANCH  13  16
TORSDOF 4
ENDMDL
MODEL 6
REMARK VINA RESULT:      -6.7      3.736      5.469
REMARK  Name = 
REMARK  6 active torsions:
REMARK  status: ('A' for Active; 'I' for Inactive)
REMARK    1  A    between atoms: C_1  and  N_2
REMARK    2  A    between atoms: N_2  and  C_3
REMARK    3  A    between atoms: N_13  and  C_14
REMARK    4  A    between atoms: C_14  and  C_15
REMARK    5  A    between atoms: C_15  and  O_16
REMARK    6  A    between atoms: O_16  and  C_17
REMARK                            x       y       z     vdW  Elec       q    Type
REMARK                         _______ _______ _______ _____ _____    ______ ____
ROOT
ATOM      1  C   UNL     1       1.666   2.362  22.125  0.00  0.00    +0.000 C 
ATOM      2  N   UNL     1       1.980   3.152  20.942  0.00  0.00    +0.000 N 
ATOM      3  C   UNL     1       0.883   3.935  20.401  0.00  0.00    +0.000 C 
ATOM      4  C   UNL     1       3.241   2.981  20.411  0.00  0.00    +0.000 C 
ATOM      5  O   UNL     1       3.975   2.090  20.858  0.00  0.00    +0.000 OA
ATOM      6  N   UNL     1       3.714   3.804  19.417  0.00  0.00    +0.000 N 
ATOM      7  C   UNL     1       3.139   4.966  18.781  0.00  0.00    +0.000 C 
ATOM      8  C   UNL     1       4.322   5.876  18.545  0.00  0.00    +0.000 C 
ATOM      9  C   UNL     1       5.498   4.924  18.244  0.00  0.00    +0.000 C 
ATOM     10  C   UNL     1       6.802   5.473  18.842  0.00  0.00    +0.000 C 
ATOM     11  C   UNL     1       7.214   6.761  18.134  0.00  0.00    +0.000 C 
ATOM     12  C   UNL     1       7.302   6.556  16.620  0.00  0.00    +0.000 C 
ATOM     13  N   UNL     1       6.052   6.006  16.063  0.00  0.00    +0.000 NA
ATOM     14  C   UNL     1       5.687   4.738  16.726  0.00  0.00    +0.000 C 
ATOM     15  C   UNL     1       5.076   3.602  18.923  0.00  0.00    +0.000 C 
ENDROOT
BRANCH  13  16
ATOM     16  C   UNL     1       6.168   5.870  14.595  0.00  0.00    +0.000 C 
BRANCH  16  17
ATOM     17  C   UNL     1       7.098   4.725  14.157  0.00  0.00    +0.000 C 
BRANCH  17  18
ATOM     18  O   UNL     1       7.224   4.708  12.733  0.00  0.00    +0.000 OA
BRANCH  18  19
ATOM     19  C   UNL     1       6.788   3.555  12.132  0.00  0.00    +0.000 A 
ATOM     20  C   UNL     1       5.403   3.416  12.052  0.00  0.00    +0.000 A 
ATOM     21  C   UNL     1       4.834   2.279  11.470  0.00  0.00    +0.000 A 
ATOM     22  C   UNL     1       5.656   1.283  10.948  0.00  0.00    +0.000 A 
ATOM     23  C   UNL     1       7.040   1.425  11.001  0.00  0.00    +0.000 A 
ATOM     24  C   UNL     1       7.606   2.560  11.589  0.00  0.00    +0.000 A 
ENDBRANCH  18  19
ENDBRANCH  17  18
ENDBRANCH  16  17
ENDBRANCH  13  16
TORSDOF 4
ENDMDL
MODEL 7
REMARK VINA RESULT:      -6.5      4.462      6.335
REMARK  Name = 
REMARK  6 active torsions:
REMARK  status: ('A' for Active; 'I' for Inactive)
REMARK    1  A    between atoms: C_1  and  N_2
REMARK    2  A    between atoms: N_2  and  C_3
REMARK    3  A    between atoms: N_13  and  C_14
REMARK    4  A    between atoms: C_14  and  C_15
REMARK    5  A    between atoms: C_15  and  O_16
REMARK    6  A    between atoms: O_16  and  C_17
REMARK                            x       y       z     vdW  Elec       q    Type
REMARK                         _______ _______ _______ _____ _____    ______ ____
ROOT
ATOM      1  C   UNL     1       0.608   2.246  19.629  0.00  0.00    +0.000 C 
ATOM      2  N   UNL     1       1.770   3.117  19.753  0.00  0.00    +0.000 N 
ATOM      3  C   UNL     1       2.350   3.203  21.081  0.00  0.00    +0.000 C 
ATOM      4  C   UNL     1       2.114   3.840  18.630  0.00  0.00    +0.000 C 
ATOM      5  O   UNL     1       1.365   3.829  17.645  0.00  0.00    +0.000 OA
ATOM      6  N   UNL     1       3.292   4.545  18.569  0.00  0.00    +0.000 N 
ATOM      7  C   UNL     1       4.390   4.659  19.501  0.00  0.00    +0.000 C 
ATOM      8  C   UNL     1       5.614   4.725  18.617  0.00  0.00    +0.000 C 
ATOM      9  C   UNL     1       5.152   5.491  17.361  0.00  0.00    +0.000 C 
ATOM     10  C   UNL     1       5.830   4.923  16.104  0.00  0.00    +0.000 C 
ATOM     11  C   UNL     1       7.331   5.193  16.138  0.00  0.00    +0.000 C 
ATOM     12  C   UNL     1       7.620   6.683  16.339  0.00  0.00    +0.000 C 
ATOM     13  N   UNL     1       6.944   7.221  17.534  0.00  0.00    +0.000 NA
ATOM     14  C   UNL     1       5.486   6.991  17.470  0.00  0.00    +0.000 C 
ATOM     15  C   UNL     1       3.625   5.256  17.336  0.00  0.00    +0.000 C 
ENDROOT
BRANCH  13  16
ATOM     16  C   UNL     1       7.289   8.648  17.713  0.00  0.00    +0.000 C 
BRANCH  16  17
ATOM     17  C   UNL     1       8.709   8.872  18.262  0.00  0.00    +0.000 C 
BRANCH  17  18
ATOM     18  O   UNL     1       8.708   9.936  19.216  0.00  0.00    +0.000 OA
BRANCH  18  19
ATOM     19  C   UNL     1       9.725  10.842  19.064  0.00  0.00    +0.000 A 
ATOM     20  C   UNL     1      10.110  11.502  20.231  0.00  0.00    +0.000 A 
ATOM     21  C   UNL     1      11.131  12.458  20.205  0.00  0.00    +0.000 A 
ATOM     22  C   UNL     1      11.784  12.743  19.008  0.00  0.00    +0.000 A 
ATOM     23  C   UNL     1      11.424  12.071  17.843  0.00  0.00    +0.000 A 
ATOM     24  C   UNL     1      10.398  11.120  17.870  0.00  0.00    +0.000 A 
ENDBRANCH  18  19
ENDBRANCH  17  18
ENDBRANCH  16  17
ENDBRANCH  13  16
TORSDOF 4
ENDMDL
MODEL 8
REMARK VINA RESULT:      -6.4      4.580      6.486
REMARK  Name = 
REMARK  6 active torsions:
REMARK  status: ('A' for Active; 'I' for Inactive)
REMARK    1  A    between atoms: C_1  and  N_2
REMARK    2  A    between atoms: N_2  and  C_3
REMARK    3  A    between atoms: N_13  and  C_14
REMARK    4  A    between atoms: C_14  and  C_15
REMARK    5  A    between atoms: C_15  and  O_16
REMARK    6  A    between atoms: O_16  and  C_17
REMARK                            x       y       z     vdW  Elec       q    Type
REMARK                         _______ _______ _______ _____ _____    ______ ____
ROOT
ATOM      1  C   UNL     1       0.309   2.361  18.946  0.00  0.00    +0.000 C 
ATOM      2  N   UNL     1       1.238   3.464  19.151  0.00  0.00    +0.000 N 
ATOM      3  C   UNL     1       1.003   4.271  20.335  0.00  0.00    +0.000 C 
ATOM      4  C   UNL     1       2.158   3.682  18.147  0.00  0.00    +0.000 C 
ATOM      5  O   UNL     1       2.067   3.047  17.088  0.00  0.00    +0.000 OA
ATOM      6  N   UNL     1       3.198   4.566  18.312  0.00  0.00    +0.000 N 
ATOM      7  C   UNL     1       3.613   5.356  19.448  0.00  0.00    +0.000 C 
ATOM      8  C   UNL     1       5.122   5.341  19.372  0.00  0.00    +0.000 C 
ATOM      9  C   UNL     1       5.440   5.329  17.863  0.00  0.00    +0.000 C 
ATOM     10  C   UNL     1       6.678   4.464  17.580  0.00  0.00    +0.000 C 
ATOM     11  C   UNL     1       7.925   5.098  18.189  0.00  0.00    +0.000 C 
ATOM     12  C   UNL     1       8.097   6.544  17.714  0.00  0.00    +0.000 C 
ATOM     13  N   UNL     1       6.894   7.356  17.969  0.00  0.00    +0.000 NA
ATOM     14  C   UNL     1       5.702   6.755  17.339  0.00  0.00    +0.000 C 
ATOM     15  C   UNL     1       4.168   4.723  17.229  0.00  0.00    +0.000 C 
ENDROOT
BRANCH  13  16
ATOM     16  C   UNL     1       7.124   8.752  17.538  0.00  0.00    +0.000 C 
BRANCH  16  17
ATOM     17  C   UNL     1       8.355   9.402  18.194  0.00  0.00    +0.000 C 
BRANCH  17  18
ATOM     18  O   UNL     1       8.462  10.771  17.795  0.00  0.00    +0.000 OA
BRANCH  18  19
ATOM     19  C   UNL     1       9.343  11.516  18.536  0.00  0.00    +0.000 A 
ATOM     20  C   UNL     1       9.131  12.894  18.498  0.00  0.00    +0.000 A 
ATOM     21  C   UNL     1       9.969  13.763  19.205  0.00  0.00    +0.000 A 
ATOM     22  C   UNL     1      11.013  13.249  19.971  0.00  0.00    +0.000 A 
ATOM     23  C   UNL     1      11.216  11.873  20.035  0.00  0.00    +0.000 A 
ATOM     24  C   UNL     1      10.382  11.007  19.322  0.00  0.00    +0.000 A 
ENDBRANCH  18  19
ENDBRANCH  17  18
ENDBRANCH  16  17
ENDBRANCH  13  16
TORSDOF 4
ENDMDL
MODEL 9
REMARK VINA RESULT:      -6.4      3.494      6.632
REMARK  Name = 
REMARK  6 active torsions:
REMARK  status: ('A' for Active; 'I' for Inactive)
REMARK    1  A    between atoms: C_1  and  N_2
REMARK    2  A    between atoms: N_2  and  C_3
REMARK    3  A    between atoms: N_13  and  C_14
REMARK    4  A    between atoms: C_14  and  C_15
REMARK    5  A    between atoms: C_15  and  O_16
REMARK    6  A    between atoms: O_16  and  C_17
REMARK                            x       y       z     vdW  Elec       q    Type
REMARK                         _______ _______ _______ _____ _____    ______ ____
ROOT
ATOM      1  C   UNL     1      -6.757  13.541  18.918  0.00  0.00    +0.000 C 
ATOM      2  N   UNL     1      -5.671  12.612  18.633  0.00  0.00    +0.000 N 
ATOM      3  C   UNL     1      -5.927  11.653  17.573  0.00  0.00    +0.000 C 
ATOM      4  C   UNL     1      -4.578  12.676  19.471  0.00  0.00    +0.000 C 
ATOM      5  O   UNL     1      -4.623  13.393  20.479  0.00  0.00    +0.000 OA
ATOM      6  N   UNL     1      -3.423  11.987  19.190  0.00  0.00    +0.000 N 
ATOM      7  C   UNL     1      -3.046  11.169  18.060  0.00  0.00    +0.000 C 
ATOM      8  C   UNL     1      -1.577  11.470  17.865  0.00  0.00    +0.000 C 
ATOM      9  C   UNL     1      -1.030  11.703  19.288  0.00  0.00    +0.000 C 
ATOM     10  C   UNL     1       0.038  12.807  19.281  0.00  0.00    +0.000 C 
ATOM     11  C   UNL     1       1.273  12.351  18.509  0.00  0.00    +0.000 C 
ATOM     12  C   UNL     1       1.805  11.022  19.052  0.00  0.00    +0.000 C 
ATOM     13  N   UNL     1       0.763   9.978  19.076  0.00  0.00    +0.000 NA
ATOM     14  C   UNL     1      -0.409  10.414  19.862  0.00  0.00    +0.000 C 
ATOM     15  C   UNL     1      -2.280  12.128  20.091  0.00  0.00    +0.000 C 
ENDROOT
BRANCH  13  16
ATOM     16  C   UNL     1       1.334   8.704  19.562  0.00  0.00    +0.000 C 
BRANCH  16  17
ATOM     17  C   UNL     1       2.207   7.984  18.519  0.00  0.00    +0.000 C 
BRANCH  17  18
ATOM     18  O   UNL     1       2.964   6.944  19.141  0.00  0.00    +0.000 OA
BRANCH  18  19
ATOM     19  C   UNL     1       2.304   5.748  19.260  0.00  0.00    +0.000 A 
ATOM     20  C   UNL     1       2.145   5.039  18.070  0.00  0.00    +0.000 A 
ATOM     21  C   UNL     1       1.480   3.808  18.057  0.00  0.00    +0.000 A 
ATOM     22  C   UNL     1       0.986   3.275  19.246  0.00  0.00    +0.000 A 
ATOM     23  C   UNL     1       1.163   3.964  20.443  0.00  0.00    +0.000 A 
ATOM     24  C   UNL     1       1.822   5.197  20.452  0.00  0.00    +0.000 A 
ENDBRANCH  18  19
ENDBRANCH  17  18
ENDBRANCH  16  17
ENDBRANCH  13  16
TORSDOF 4
ENDMDL
