MODEL 1
REMARK VINA RESULT:      -7.6      0.000      0.000
REMARK  Name = 
REMARK  4 active torsions:
REMARK  status: ('A' for Active; 'I' for Inactive)
REMARK    1  A    between atoms: C_2  and  C_3
REMARK    2  A    between atoms: C_3  and  S_4
REMARK    3  A    between atoms: S_4  and  C_5
REMARK    4  A    between atoms: C_5  and  C_6
REMARK                            x       y       z     vdW  Elec       q    Type
REMARK                         _______ _______ _______ _____ _____    ______ ____
ROOT
ATOM      1  O   UNL     1       7.752   6.443  16.182  0.00  0.00    +0.000 OA
ATOM      2  C   UNL     1       7.318   6.530  17.338  0.00  0.00    +0.000 C 
ATOM      3  N   UNL     1       6.151   5.893  17.721  0.00  0.00    +0.000 N 
ATOM      4  C   UNL     1       5.591   5.863  19.087  0.00  0.00    +0.000 C 
ATOM      5  C   UNL     1       4.048   5.953  19.073  0.00  0.00    +0.000 C 
ATOM      6  N   UNL     1       3.534   4.902  18.195  0.00  0.00    +0.000 N 
ATOM      7  C   UNL     1       2.599   4.018  18.667  0.00  0.00    +0.000 A 
ATOM      8  C   UNL     1       2.515   2.715  18.175  0.00  0.00    +0.000 A 
ATOM      9  C   UNL     1       1.582   1.823  18.702  0.00  0.00    +0.000 A 
ATOM     10  C   UNL     1       0.728   2.252  19.704  0.00  0.00    +0.000 A 
ATOM     11  C   UNL     1       0.864   3.553  20.144  0.00  0.00    +0.000 A 
ATOM     12  N   UNL     1       1.781   4.422  19.662  0.00  0.00    +0.000 NA
ATOM     13  C   UNL     1       4.008   4.953  16.814  0.00  0.00    +0.000 C 
ATOM     14  C   UNL     1       5.546   4.921  16.791  0.00  0.00    +0.000 C 
ENDROOT
BRANCH   2  15
ATOM     15  C   UNL     1       8.104   7.340  18.361  0.00  0.00    +0.000 C 
BRANCH  15  16
ATOM     16  S   UNL     1       8.160   9.102  17.886  0.00  0.00    +0.000 S 
BRANCH  16  17
ATOM     17  C   UNL     1       9.158   9.744  19.272  0.00  0.00    +0.000 C 
BRANCH  17  18
ATOM     18  C   UNL     1       9.687  11.136  19.004  0.00  0.00    +0.000 A 
ATOM     19  C   UNL     1      10.313  11.388  17.767  0.00  0.00    +0.000 A 
ATOM     20  C   UNL     1      10.775  12.666  17.440  0.00  0.00    +0.000 A 
ATOM     21  C   UNL     1      10.623  13.712  18.343  0.00  0.00    +0.000 A 
ATOM     22  C   UNL     1      10.028  13.476  19.583  0.00  0.00    +0.000 A 
ATOM     23  C   UNL     1       9.570  12.194  19.916  0.00  0.00    +0.000 A 
ATOM     24 CL   UNL     1       8.861  11.987  21.478  0.00  0.00    +0.000 Cl
ENDBRANCH  17  18
ENDBRANCH  16  17
ENDBRANCH  15  16
ENDBRANCH   2  15
TORSDOF 4
ENDMDL
MODEL 2
REMARK VINA RESULT:      -7.3      5.577      8.040
REMARK  Name = 
REMARK  4 active torsions:
REMARK  status: ('A' for Active; 'I' for Inactive)
REMARK    1  A    between atoms: C_2  and  C_3
REMARK    2  A    between atoms: C_3  and  S_4
REMARK    3  A    between atoms: S_4  and  C_5
REMARK    4  A    between atoms: C_5  and  C_6
REMARK                            x       y       z     vdW  Elec       q    Type
REMARK                         _______ _______ _______ _____ _____    ______ ____
ROOT
ATOM      1  O   UNL     1       3.026   7.448  17.748  0.00  0.00    +0.000 OA
ATOM      2  C   UNL     1       2.613   7.269  18.900  0.00  0.00    +0.000 C 
ATOM      3  N   UNL     1       1.835   8.216  19.543  0.00  0.00    +0.000 N 
ATOM      4  C   UNL     1       1.224   8.069  20.880  0.00  0.00    +0.000 C 
ATOM      5  C   UNL     1       1.258   9.396  21.671  0.00  0.00    +0.000 C 
ATOM      6  N   UNL     1       0.647  10.439  20.847  0.00  0.00    +0.000 N 
ATOM      7  C   UNL     1      -0.385  11.187  21.351  0.00  0.00    +0.000 A 
ATOM      8  C   UNL     1      -1.370  11.722  20.521  0.00  0.00    +0.000 A 
ATOM      9  C   UNL     1      -2.431  12.444  21.065  0.00  0.00    +0.000 A 
ATOM     10  C   UNL     1      -2.485  12.640  22.434  0.00  0.00    +0.000 A 
ATOM     11  C   UNL     1      -1.478  12.084  23.198  0.00  0.00    +0.000 A 
ATOM     12  N   UNL     1      -0.456  11.359  22.689  0.00  0.00    +0.000 NA
ATOM     13  C   UNL     1       1.280  10.663  19.550  0.00  0.00    +0.000 C 
ATOM     14  C   UNL     1       1.313   9.347  18.753  0.00  0.00    +0.000 C 
ENDROOT
BRANCH   2  15
ATOM     15  C   UNL     1       2.954   5.966  19.612  0.00  0.00    +0.000 C 
BRANCH  15  16
ATOM     16  S   UNL     1       2.556   4.529  18.558  0.00  0.00    +0.000 S 
BRANCH  16  17
ATOM     17  C   UNL     1       4.164   3.669  18.621  0.00  0.00    +0.000 C 
BRANCH  17  18
ATOM     18  C   UNL     1       5.121   4.161  17.559  0.00  0.00    +0.000 A 
ATOM     19  C   UNL     1       4.887   3.786  16.220  0.00  0.00    +0.000 A 
ATOM     20  C   UNL     1       5.707   4.252  15.188  0.00  0.00    +0.000 A 
ATOM     21  C   UNL     1       6.774   5.096  15.474  0.00  0.00    +0.000 A 
ATOM     22  C   UNL     1       7.036   5.457  16.796  0.00  0.00    +0.000 A 
ATOM     23  C   UNL     1       6.220   4.986  17.834  0.00  0.00    +0.000 A 
ATOM     24 CL   UNL     1       6.627   5.470  19.443  0.00  0.00    +0.000 Cl
ENDBRANCH  17  18
ENDBRANCH  16  17
ENDBRANCH  15  16
ENDBRANCH   2  15
TORSDOF 4
ENDMDL
MODEL 3
REMARK VINA RESULT:      -7.3      5.323      7.888
REMARK  Name = 
REMARK  4 active torsions:
REMARK  status: ('A' for Active; 'I' for Inactive)
REMARK    1  A    between atoms: C_2  and  C_3
REMARK    2  A    between atoms: C_3  and  S_4
REMARK    3  A    between atoms: S_4  and  C_5
REMARK    4  A    between atoms: C_5  and  C_6
REMARK                            x       y       z     vdW  Elec       q    Type
REMARK                         _______ _______ _______ _____ _____    ______ ____
ROOT
ATOM      1  O   UNL     1       2.017   4.814  19.410  0.00  0.00    +0.000 OA
ATOM      2  C   UNL     1       2.692   5.732  18.926  0.00  0.00    +0.000 C 
ATOM      3  N   UNL     1       3.565   5.509  17.875  0.00  0.00    +0.000 N 
ATOM      4  C   UNL     1       4.353   6.541  17.173  0.00  0.00    +0.000 C 
ATOM      5  C   UNL     1       5.761   6.028  16.797  0.00  0.00    +0.000 C 
ATOM      6  N   UNL     1       5.611   4.781  16.049  0.00  0.00    +0.000 N 
ATOM      7  C   UNL     1       6.198   4.651  14.817  0.00  0.00    +0.000 A 
ATOM      8  C   UNL     1       5.650   3.831  13.831  0.00  0.00    +0.000 A 
ATOM      9  C   UNL     1       6.245   3.750  12.573  0.00  0.00    +0.000 A 
ATOM     10  C   UNL     1       7.396   4.477  12.321  0.00  0.00    +0.000 A 
ATOM     11  C   UNL     1       7.887   5.268  13.341  0.00  0.00    +0.000 A 
ATOM     12  N   UNL     1       7.307   5.377  14.557  0.00  0.00    +0.000 NA
ATOM     13  C   UNL     1       4.905   3.710  16.749  0.00  0.00    +0.000 C 
ATOM     14  C   UNL     1       3.516   4.204  17.188  0.00  0.00    +0.000 C 
ENDROOT
BRANCH   2  15
ATOM     15  C   UNL     1       2.536   7.138  19.490  0.00  0.00    +0.000 C 
BRANCH  15  16
ATOM     16  S   UNL     1       1.164   7.204  20.693  0.00  0.00    +0.000 S 
BRANCH  16  17
ATOM     17  C   UNL     1       1.684   8.672  21.645  0.00  0.00    +0.000 C 
BRANCH  17  18
ATOM     18  C   UNL     1       0.588   9.710  21.744  0.00  0.00    +0.000 A 
ATOM     19  C   UNL     1      -0.151   9.791  22.942  0.00  0.00    +0.000 A 
ATOM     20  C   UNL     1      -1.140  10.763  23.114  0.00  0.00    +0.000 A 
ATOM     21  C   UNL     1      -1.410  11.668  22.094  0.00  0.00    +0.000 A 
ATOM     22  C   UNL     1      -0.706  11.587  20.891  0.00  0.00    +0.000 A 
ATOM     23  C   UNL     1       0.282  10.608  20.714  0.00  0.00    +0.000 A 
ATOM     24 CL   UNL     1       1.093  10.570  19.188  0.00  0.00    +0.000 Cl
ENDBRANCH  17  18
ENDBRANCH  16  17
ENDBRANCH  15  16
ENDBRANCH   2  15
TORSDOF 4
ENDMDL
MODEL 4
REMARK VINA RESULT:      -7.3      6.550      8.910
REMARK  Name = 
REMARK  4 active torsions:
REMARK  status: ('A' for Active; 'I' for Inactive)
REMARK    1  A    between atoms: C_2  and  C_3
REMARK    2  A    between atoms: C_3  and  S_4
REMARK    3  A    between atoms: S_4  and  C_5
REMARK    4  A    between atoms: C_5  and  C_6
REMARK                            x       y       z     vdW  Elec       q    Type
REMARK                         _______ _______ _______ _____ _____    ______ ____
ROOT
ATOM      1  O   UNL     1       0.712  10.404  21.524  0.00  0.00    +0.000 OA
ATOM      2  C   UNL     1       1.044  10.203  20.349  0.00  0.00    +0.000 C 
ATOM      3  N   UNL     1       1.363   8.934  19.897  0.00  0.00    +0.000 N 
ATOM      4  C   UNL     1       1.691   8.571  18.503  0.00  0.00    +0.000 C 
ATOM      5  C   UNL     1       2.806   7.503  18.440  0.00  0.00    +0.000 C 
ATOM      6  N   UNL     1       2.405   6.369  19.273  0.00  0.00    +0.000 N 
ATOM      7  C   UNL     1       2.381   5.107  18.739  0.00  0.00    +0.000 A 
ATOM      8  C   UNL     1       1.495   4.135  19.204  0.00  0.00    +0.000 A 
ATOM      9  C   UNL     1       1.463   2.872  18.615  0.00  0.00    +0.000 A 
ATOM     10  C   UNL     1       2.335   2.588  17.578  0.00  0.00    +0.000 A 
ATOM     11  C   UNL     1       3.188   3.594  17.167  0.00  0.00    +0.000 A 
ATOM     12  N   UNL     1       3.212   4.832  17.710  0.00  0.00    +0.000 NA
ATOM     13  C   UNL     1       2.150   6.682  20.677  0.00  0.00    +0.000 C 
ATOM     14  C   UNL     1       1.082   7.785  20.778  0.00  0.00    +0.000 C 
ENDROOT
BRANCH   2  15
ATOM     15  C   UNL     1       1.081  11.378  19.381  0.00  0.00    +0.000 C 
BRANCH  15  16
ATOM     16  S   UNL     1      -0.561  12.168  19.260  0.00  0.00    +0.000 S 
BRANCH  16  17
ATOM     17  C   UNL     1      -1.592  10.670  19.102  0.00  0.00    +0.000 C 
BRANCH  17  18
ATOM     18  C   UNL     1      -2.438  10.685  17.848  0.00  0.00    +0.000 A 
ATOM     19  C   UNL     1      -1.962  10.001  16.711  0.00  0.00    +0.000 A 
ATOM     20  C   UNL     1      -2.722   9.934  15.540  0.00  0.00    +0.000 A 
ATOM     21  C   UNL     1      -3.967  10.550  15.483  0.00  0.00    +0.000 A 
ATOM     22  C   UNL     1      -4.444  11.253  16.590  0.00  0.00    +0.000 A 
ATOM     23  C   UNL     1      -3.680  11.328  17.764  0.00  0.00    +0.000 A 
ATOM     24 CL   UNL     1      -4.339  12.232  19.081  0.00  0.00    +0.000 Cl
ENDBRANCH  17  18
ENDBRANCH  16  17
ENDBRANCH  15  16
ENDBRANCH   2  15
TORSDOF 4
ENDMDL
MODEL 5
REMARK VINA RESULT:      -7.3      6.912      9.999
REMARK  Name = 
REMARK  4 active torsions:
REMARK  status: ('A' for Active; 'I' for Inactive)
REMARK    1  A    between atoms: C_2  and  C_3
REMARK    2  A    between atoms: C_3  and  S_4
REMARK    3  A    between atoms: S_4  and  C_5
REMARK    4  A    between atoms: C_5  and  C_6
REMARK                            x       y       z     vdW  Elec       q    Type
REMARK                         _______ _______ _______ _____ _____    ______ ____
ROOT
ATOM      1  O   UNL     1       1.897   9.591  17.440  0.00  0.00    +0.000 OA
ATOM      2  C   UNL     1       1.487   9.252  18.558  0.00  0.00    +0.000 C 
ATOM      3  N   UNL     1       0.512   9.978  19.219  0.00  0.00    +0.000 N 
ATOM      4  C   UNL     1      -0.105   9.619  20.512  0.00  0.00    +0.000 C 
ATOM      5  C   UNL     1      -0.367  10.866  21.385  0.00  0.00    +0.000 C 
ATOM      6  N   UNL     1      -1.145  11.823  20.600  0.00  0.00    +0.000 N 
ATOM      7  C   UNL     1      -2.324  12.314  21.098  0.00  0.00    +0.000 A 
ATOM      8  C   UNL     1      -3.366  12.701  20.255  0.00  0.00    +0.000 A 
ATOM      9  C   UNL     1      -4.570  13.157  20.789  0.00  0.00    +0.000 A 
ATOM     10  C   UNL     1      -4.711  13.240  22.164  0.00  0.00    +0.000 A 
ATOM     11  C   UNL     1      -3.641  12.843  22.941  0.00  0.00    +0.000 A 
ATOM     12  N   UNL     1      -2.476  12.373  22.438  0.00  0.00    +0.000 NA
ATOM     13  C   UNL     1      -0.524  12.260  19.352  0.00  0.00    +0.000 C 
ATOM     14  C   UNL     1      -0.198  11.037  18.477  0.00  0.00    +0.000 C 
ENDROOT
BRANCH   2  15
ATOM     15  C   UNL     1       2.058   7.996  19.202  0.00  0.00    +0.000 C 
BRANCH  15  16
ATOM     16  S   UNL     1       3.174   7.126  18.048  0.00  0.00    +0.000 S 
BRANCH  16  17
ATOM     17  C   UNL     1       3.739   5.784  19.147  0.00  0.00    +0.000 C 
BRANCH  17  18
ATOM     18  C   UNL     1       2.769   4.624  19.184  0.00  0.00    +0.000 A 
ATOM     19  C   UNL     1       1.871   4.535  20.267  0.00  0.00    +0.000 A 
ATOM     20  C   UNL     1       0.917   3.516  20.331  0.00  0.00    +0.000 A 
ATOM     21  C   UNL     1       0.844   2.567  19.317  0.00  0.00    +0.000 A 
ATOM     22  C   UNL     1       1.741   2.624  18.249  0.00  0.00    +0.000 A 
ATOM     23  C   UNL     1       2.704   3.642  18.187  0.00  0.00    +0.000 A 
ATOM     24 CL   UNL     1       3.784   3.627  16.838  0.00  0.00    +0.000 Cl
ENDBRANCH  17  18
ENDBRANCH  16  17
ENDBRANCH  15  16
ENDBRANCH   2  15
TORSDOF 4
ENDMDL
MODEL 6
REMARK VINA RESULT:      -7.1      5.508      7.815
REMARK  Name = 
REMARK  4 active torsions:
REMARK  status: ('A' for Active; 'I' for Inactive)
REMARK    1  A    between atoms: C_2  and  C_3
REMARK    2  A    between atoms: C_3  and  S_4
REMARK    3  A    between atoms: S_4  and  C_5
REMARK    4  A    between atoms: C_5  and  C_6
REMARK                            x       y       z     vdW  Elec       q    Type
REMARK                         _______ _______ _______ _____ _____    ______ ____
ROOT
ATOM      1  O   UNL     1       2.149   5.755  20.553  0.00  0.00    +0.000 OA
ATOM      2  C   UNL     1       2.275   6.471  19.551  0.00  0.00    +0.000 C 
ATOM      3  N   UNL     1       1.857   7.791  19.550  0.00  0.00    +0.000 N 
ATOM      4  C   UNL     1       2.034   8.752  18.444  0.00  0.00    +0.000 C 
ATOM      5  C   UNL     1       0.808   9.681  18.293  0.00  0.00    +0.000 C 
ATOM      6  N   UNL     1       0.543  10.306  19.589  0.00  0.00    +0.000 N 
ATOM      7  C   UNL     1       0.459  11.670  19.682  0.00  0.00    +0.000 A 
ATOM      8  C   UNL     1       0.810  12.344  20.853  0.00  0.00    +0.000 A 
ATOM      9  C   UNL     1       0.755  13.736  20.906  0.00  0.00    +0.000 A 
ATOM     10  C   UNL     1       0.331  14.439  19.793  0.00  0.00    +0.000 A 
ATOM     11  C   UNL     1      -0.003  13.712  18.667  0.00  0.00    +0.000 A 
ATOM     12  N   UNL     1       0.070  12.364  18.590  0.00  0.00    +0.000 NA
ATOM     13  C   UNL     1       0.283   9.380  20.689  0.00  0.00    +0.000 C 
ATOM     14  C   UNL     1       1.462   8.402  20.834  0.00  0.00    +0.000 C 
ENDROOT
BRANCH   2  15
ATOM     15  C   UNL     1       2.926   5.887  18.305  0.00  0.00    +0.000 C 
BRANCH  15  16
ATOM     16  S   UNL     1       3.400   4.145  18.578  0.00  0.00    +0.000 S 
BRANCH  16  17
ATOM     17  C   UNL     1       4.825   4.050  17.443  0.00  0.00    +0.000 C 
BRANCH  17  18
ATOM     18  C   UNL     1       5.873   5.098  17.746  0.00  0.00    +0.000 A 
ATOM     19  C   UNL     1       6.657   4.945  18.907  0.00  0.00    +0.000 A 
ATOM     20  C   UNL     1       7.676   5.852  19.214  0.00  0.00    +0.000 A 
ATOM     21  C   UNL     1       7.927   6.927  18.369  0.00  0.00    +0.000 A 
ATOM     22  C   UNL     1       7.144   7.110  17.228  0.00  0.00    +0.000 A 
ATOM     23  C   UNL     1       6.117   6.205  16.923  0.00  0.00    +0.000 A 
ATOM     24 CL   UNL     1       5.187   6.516  15.500  0.00  0.00    +0.000 Cl
ENDBRANCH  17  18
ENDBRANCH  16  17
ENDBRANCH  15  16
ENDBRANCH   2  15
TORSDOF 4
ENDMDL
MODEL 7
REMARK VINA RESULT:      -7.1      5.675      8.937
REMARK  Name = 
REMARK  4 active torsions:
REMARK  status: ('A' for Active; 'I' for Inactive)
REMARK    1  A    between atoms: C_2  and  C_3
REMARK    2  A    between atoms: C_3  and  S_4
REMARK    3  A    between atoms: S_4  and  C_5
REMARK    4  A    between atoms: C_5  and  C_6
REMARK                            x       y       z     vdW  Elec       q    Type
REMARK                         _______ _______ _______ _____ _____    ______ ____
ROOT
ATOM      1  O   UNL     1       3.954   7.097  17.223  0.00  0.00    +0.000 OA
ATOM      2  C   UNL     1       3.408   7.078  18.334  0.00  0.00    +0.000 C 
ATOM      3  N   UNL     1       2.450   8.013  18.684  0.00  0.00    +0.000 N 
ATOM      4  C   UNL     1       1.682   8.033  19.945  0.00  0.00    +0.000 C 
ATOM      5  C   UNL     1       1.462   9.474  20.457  0.00  0.00    +0.000 C 
ATOM      6  N   UNL     1       0.858  10.257  19.379  0.00  0.00    +0.000 N 
ATOM      7  C   UNL     1      -0.308  10.940  19.605  0.00  0.00    +0.000 A 
ATOM      8  C   UNL     1      -1.224  11.178  18.579  0.00  0.00    +0.000 A 
ATOM      9  C   UNL     1      -2.422  11.838  18.845  0.00  0.00    +0.000 A 
ATOM     10  C   UNL     1      -2.684  12.271  20.133  0.00  0.00    +0.000 A 
ATOM     11  C   UNL     1      -1.736  12.005  21.101  0.00  0.00    +0.000 A 
ATOM     12  N   UNL     1      -0.581  11.342  20.865  0.00  0.00    +0.000 NA
ATOM     13  C   UNL     1       1.635  10.324  18.143  0.00  0.00    +0.000 C 
ATOM     14  C   UNL     1       1.921   8.902  17.632  0.00  0.00    +0.000 C 
ENDROOT
BRANCH   2  15
ATOM     15  C   UNL     1       3.790   5.985  19.323  0.00  0.00    +0.000 C 
BRANCH  15  16
ATOM     16  S   UNL     1       5.168   4.977  18.675  0.00  0.00    +0.000 S 
BRANCH  16  17
ATOM     17  C   UNL     1       4.268   3.420  18.366  0.00  0.00    +0.000 C 
BRANCH  17  18
ATOM     18  C   UNL     1       3.147   3.197  19.357  0.00  0.00    +0.000 A 
ATOM     19  C   UNL     1       3.466   2.660  20.620  0.00  0.00    +0.000 A 
ATOM     20  C   UNL     1       2.482   2.480  21.597  0.00  0.00    +0.000 A 
ATOM     21  C   UNL     1       1.164   2.830  21.328  0.00  0.00    +0.000 A 
ATOM     22  C   UNL     1       0.824   3.340  20.074  0.00  0.00    +0.000 A 
ATOM     23  C   UNL     1       1.809   3.515  19.090  0.00  0.00    +0.000 A 
ATOM     24 CL   UNL     1       1.298   4.137  17.561  0.00  0.00    +0.000 Cl
ENDBRANCH  17  18
ENDBRANCH  16  17
ENDBRANCH  15  16
ENDBRANCH   2  15
TORSDOF 4
ENDMDL
MODEL 8
REMARK VINA RESULT:      -7.1      7.635     10.590
REMARK  Name = 
REMARK  4 active torsions:
REMARK  status: ('A' for Active; 'I' for Inactive)
REMARK    1  A    between atoms: C_2  and  C_3
REMARK    2  A    between atoms: C_3  and  S_4
REMARK    3  A    between atoms: S_4  and  C_5
REMARK    4  A    between atoms: C_5  and  C_6
REMARK                            x       y       z     vdW  Elec       q    Type
REMARK                         _______ _______ _______ _____ _____    ______ ____
ROOT
ATOM      1  O   UNL     1       0.830   9.617  18.538  0.00  0.00    +0.000 OA
ATOM      2  C   UNL     1       0.683   9.484  19.760  0.00  0.00    +0.000 C 
ATOM      3  N   UNL     1      -0.251  10.229  20.460  0.00  0.00    +0.000 N 
ATOM      4  C   UNL     1      -0.563  10.093  21.896  0.00  0.00    +0.000 C 
ATOM      5  C   UNL     1      -0.840  11.464  22.552  0.00  0.00    +0.000 C 
ATOM      6  N   UNL     1      -1.878  12.143  21.778  0.00  0.00    +0.000 N 
ATOM      7  C   UNL     1      -3.005  12.604  22.408  0.00  0.00    +0.000 A 
ATOM      8  C   UNL     1      -4.228  12.690  21.743  0.00  0.00    +0.000 A 
ATOM      9  C   UNL     1      -5.368  13.122  22.419  0.00  0.00    +0.000 A 
ATOM     10  C   UNL     1      -5.268  13.483  23.751  0.00  0.00    +0.000 A 
ATOM     11  C   UNL     1      -4.028  13.375  24.350  0.00  0.00    +0.000 A 
ATOM     12  N   UNL     1      -2.919  12.933  23.715  0.00  0.00    +0.000 NA
ATOM     13  C   UNL     1      -1.564  12.365  20.369  0.00  0.00    +0.000 C 
ATOM     14  C   UNL     1      -1.229  11.024  19.694  0.00  0.00    +0.000 C 
ENDROOT
BRANCH   2  15
ATOM     15  C   UNL     1       1.537   8.463  20.498  0.00  0.00    +0.000 C 
BRANCH  15  16
ATOM     16  S   UNL     1       2.251   7.252  19.332  0.00  0.00    +0.000 S 
BRANCH  16  17
ATOM     17  C   UNL     1       1.936   5.721  20.274  0.00  0.00    +0.000 C 
BRANCH  17  18
ATOM     18  C   UNL     1       2.063   4.482  19.416  0.00  0.00    +0.000 A 
ATOM     19  C   UNL     1       2.463   4.635  18.073  0.00  0.00    +0.000 A 
ATOM     20  C   UNL     1       2.648   3.524  17.246  0.00  0.00    +0.000 A 
ATOM     21  C   UNL     1       2.436   2.243  17.743  0.00  0.00    +0.000 A 
ATOM     22  C   UNL     1       2.016   2.073  19.063  0.00  0.00    +0.000 A 
ATOM     23  C   UNL     1       1.822   3.187  19.893  0.00  0.00    +0.000 A 
ATOM     24 CL   UNL     1       1.286   2.886  21.508  0.00  0.00    +0.000 Cl
ENDBRANCH  17  18
ENDBRANCH  16  17
ENDBRANCH  15  16
ENDBRANCH   2  15
TORSDOF 4
ENDMDL
MODEL 9
REMARK VINA RESULT:      -7.1      6.240      9.524
REMARK  Name = 
REMARK  4 active torsions:
REMARK  status: ('A' for Active; 'I' for Inactive)
REMARK    1  A    between atoms: C_2  and  C_3
REMARK    2  A    between atoms: C_3  and  S_4
REMARK    3  A    between atoms: S_4  and  C_5
REMARK    4  A    between atoms: C_5  and  C_6
REMARK                            x       y       z     vdW  Elec       q    Type
REMARK                         _______ _______ _______ _____ _____    ______ ____
ROOT
ATOM      1  O   UNL     1       2.499   8.561  17.301  0.00  0.00    +0.000 OA
ATOM      2  C   UNL     1       2.189   8.261  18.461  0.00  0.00    +0.000 C 
ATOM      3  N   UNL     1       1.427   9.108  19.247  0.00  0.00    +0.000 N 
ATOM      4  C   UNL     1       0.934   8.815  20.607  0.00  0.00    +0.000 C 
ATOM      5  C   UNL     1       0.977  10.066  21.512  0.00  0.00    +0.000 C 
ATOM      6  N   UNL     1       0.258  11.147  20.837  0.00  0.00    +0.000 N 
ATOM      7  C   UNL     1      -0.759  11.796  21.486  0.00  0.00    +0.000 A 
ATOM      8  C   UNL     1      -1.831  12.354  20.788  0.00  0.00    +0.000 A 
ATOM      9  C   UNL     1      -2.873  12.972  21.476  0.00  0.00    +0.000 A 
ATOM     10  C   UNL     1      -2.823  13.044  22.857  0.00  0.00    +0.000 A 
ATOM     11  C   UNL     1      -1.734  12.473  23.487  0.00  0.00    +0.000 A 
ATOM     12  N   UNL     1      -0.728  11.847  22.836  0.00  0.00    +0.000 NA
ATOM     13  C   UNL     1       0.773  11.516  19.521  0.00  0.00    +0.000 C 
ATOM     14  C   UNL     1       0.796  10.278  18.607  0.00  0.00    +0.000 C 
ENDROOT
BRANCH   2  15
ATOM     15  C   UNL     1       2.641   6.919  19.022  0.00  0.00    +0.000 C 
BRANCH  15  16
ATOM     16  S   UNL     1       4.052   6.261  18.067  0.00  0.00    +0.000 S 
BRANCH  16  17
ATOM     17  C   UNL     1       4.403   4.770  19.058  0.00  0.00    +0.000 C 
BRANCH  17  18
ATOM     18  C   UNL     1       3.143   4.043  19.471  0.00  0.00    +0.000 A 
ATOM     19  C   UNL     1       2.762   4.079  20.827  0.00  0.00    +0.000 A 
ATOM     20  C   UNL     1       1.580   3.470  21.260  0.00  0.00    +0.000 A 
ATOM     21  C   UNL     1       0.761   2.814  20.348  0.00  0.00    +0.000 A 
ATOM     22  C   UNL     1       1.135   2.747  19.005  0.00  0.00    +0.000 A 
ATOM     23  C   UNL     1       2.323   3.350  18.570  0.00  0.00    +0.000 A 
ATOM     24 CL   UNL     1       2.717   3.204  16.893  0.00  0.00    +0.000 Cl
ENDBRANCH  17  18
ENDBRANCH  16  17
ENDBRANCH  15  16
ENDBRANCH   2  15
TORSDOF 4
ENDMDL
