MODEL 1
REMARK VINA RESULT:      -7.4      0.000      0.000
REMARK  Name = 
REMARK  7 active torsions:
REMARK  status: ('A' for Active; 'I' for Inactive)
REMARK    1  A    between atoms: C_1  and  C_2
REMARK    2  A    between atoms: C_2  and  C_3
REMARK    3  A    between atoms: C_3  and  C_4
REMARK    4  A    between atoms: C_9  and  C_11
REMARK    5  A    between atoms: C_11  and  S_12
REMARK    6  A    between atoms: S_12  and  C_15
REMARK    7  A    between atoms: C_18  and  C_19
REMARK                            x       y       z     vdW  Elec       q    Type
REMARK                         _______ _______ _______ _____ _____    ______ ____
ROOT
ATOM      1  C   UNL     1       6.881   3.829  12.486  0.00  0.00    +0.000 A 
ATOM      2  N   UNL     1       7.668   4.881  12.587  0.00  0.00    +0.000 NA
ATOM      3  N   UNL     1       7.556   5.502  13.817  0.00  0.00    +0.000 NA
ATOM      4  C   UNL     1       6.665   4.921  14.584  0.00  0.00    +0.000 A 
ATOM      5  N   UNL     1       6.257   5.229  15.857  0.00  0.00    +0.000 N 
ATOM      6  C   UNL     1       6.897   6.206  16.599  0.00  0.00    +0.000 C 
ATOM      7  O   UNL     1       7.959   6.746  16.299  0.00  0.00    +0.000 OA
ATOM      8  S   UNL     1       5.889   3.571  13.874  0.00  0.00    +0.000 S 
ATOM      9  H   UNL     1       5.434   4.747  16.196  0.00  0.00    +0.000 HD
ENDROOT
BRANCH   1  10
ATOM     10  C   UNL     1       6.864   2.899  11.312  0.00  0.00    +0.000 C 
BRANCH  10  12
ATOM     11  C   UNL     1       6.179   0.479  11.096  0.00  0.00    +0.000 C 
ATOM     12  C   UNL     1       5.707   1.902  11.372  0.00  0.00    +0.000 C 
ENDBRANCH  10  12
ENDBRANCH   1  10
BRANCH   6  13
ATOM     13  C   UNL     1       6.280   6.499  17.941  0.00  0.00    +0.000 C 
BRANCH  13  14
ATOM     14  S   UNL     1       6.484   5.103  18.995  0.00  0.00    +0.000 S 
ATOM     15  O   UNL     1       7.109   4.035  18.243  0.00  0.00    +0.000 OA
ATOM     16  O   UNL     1       7.075   5.594  20.230  0.00  0.00    +0.000 OA
BRANCH  14  17
ATOM     17  C   UNL     1       4.834   4.573  19.397  0.00  0.00    +0.000 A 
ATOM     18  C   UNL     1       4.565   3.213  19.584  0.00  0.00    +0.000 A 
ATOM     19  C   UNL     1       3.279   2.807  19.952  0.00  0.00    +0.000 A 
ATOM     20  C   UNL     1       2.260   3.751  20.133  0.00  0.00    +0.000 A 
ATOM     21  C   UNL     1       0.876   3.326  20.536  0.00  0.00    +0.000 C 
ATOM     22  C   UNL     1       2.545   5.110  19.944  0.00  0.00    +0.000 A 
ATOM     23  C   UNL     1       3.830   5.525  19.584  0.00  0.00    +0.000 A 
ENDBRANCH  14  17
ENDBRANCH  13  14
ENDBRANCH   6  13
TORSDOF 5
ENDMDL
MODEL 2
REMARK VINA RESULT:      -7.4      4.512      6.000
REMARK  Name = 
REMARK  7 active torsions:
REMARK  status: ('A' for Active; 'I' for Inactive)
REMARK    1  A    between atoms: C_1  and  C_2
REMARK    2  A    between atoms: C_2  and  C_3
REMARK    3  A    between atoms: C_3  and  C_4
REMARK    4  A    between atoms: C_9  and  C_11
REMARK    5  A    between atoms: C_11  and  S_12
REMARK    6  A    between atoms: S_12  and  C_15
REMARK    7  A    between atoms: C_18  and  C_19
REMARK                            x       y       z     vdW  Elec       q    Type
REMARK                         _______ _______ _______ _____ _____    ______ ____
ROOT
ATOM      1  C   UNL     1       7.246   6.113  18.455  0.00  0.00    +0.000 A 
ATOM      2  N   UNL     1       7.172   5.635  19.680  0.00  0.00    +0.000 NA
ATOM      3  N   UNL     1       6.222   4.636  19.795  0.00  0.00    +0.000 NA
ATOM      4  C   UNL     1       5.589   4.426  18.666  0.00  0.00    +0.000 A 
ATOM      5  N   UNL     1       4.587   3.539  18.365  0.00  0.00    +0.000 N 
ATOM      6  C   UNL     1       4.178   2.582  19.276  0.00  0.00    +0.000 C 
ATOM      7  O   UNL     1       4.756   2.304  20.325  0.00  0.00    +0.000 OA
ATOM      8  S   UNL     1       6.098   5.421  17.370  0.00  0.00    +0.000 S 
ATOM      9  H   UNL     1       4.128   3.661  17.470  0.00  0.00    +0.000 HD
ENDROOT
BRANCH   1  10
ATOM     10  C   UNL     1       8.254   7.127  18.006  0.00  0.00    +0.000 C 
BRANCH  10  12
ATOM     11  C   UNL     1       8.524   9.626  18.239  0.00  0.00    +0.000 C 
ATOM     12  C   UNL     1       7.629   8.497  17.742  0.00  0.00    +0.000 C 
ENDBRANCH  10  12
ENDBRANCH   1  10
BRANCH   6  13
ATOM     13  C   UNL     1       3.006   1.741  18.843  0.00  0.00    +0.000 C 
BRANCH  13  14
ATOM     14  S   UNL     1       1.512   2.501  19.381  0.00  0.00    +0.000 S 
ATOM     15  O   UNL     1       0.439   2.106  18.492  0.00  0.00    +0.000 OA
ATOM     16  O   UNL     1       1.418   2.272  20.815  0.00  0.00    +0.000 OA
BRANCH  14  17
ATOM     17  C   UNL     1       1.766   4.249  19.160  0.00  0.00    +0.000 A 
ATOM     18  C   UNL     1       1.774   4.794  17.873  0.00  0.00    +0.000 A 
ATOM     19  C   UNL     1       1.921   6.175  17.708  0.00  0.00    +0.000 A 
ATOM     20  C   UNL     1       2.062   7.012  18.822  0.00  0.00    +0.000 A 
ATOM     21  C   UNL     1       2.212   8.498  18.658  0.00  0.00    +0.000 C 
ATOM     22  C   UNL     1       2.050   6.451  20.106  0.00  0.00    +0.000 A 
ATOM     23  C   UNL     1       1.896   5.073  20.280  0.00  0.00    +0.000 A 
ENDBRANCH  14  17
ENDBRANCH  13  14
ENDBRANCH   6  13
TORSDOF 5
ENDMDL
MODEL 3
REMARK VINA RESULT:      -7.2      4.357      5.906
REMARK  Name = 
REMARK  7 active torsions:
REMARK  status: ('A' for Active; 'I' for Inactive)
REMARK    1  A    between atoms: C_1  and  C_2
REMARK    2  A    between atoms: C_2  and  C_3
REMARK    3  A    between atoms: C_3  and  C_4
REMARK    4  A    between atoms: C_9  and  C_11
REMARK    5  A    between atoms: C_11  and  S_12
REMARK    6  A    between atoms: S_12  and  C_15
REMARK    7  A    between atoms: C_18  and  C_19
REMARK                            x       y       z     vdW  Elec       q    Type
REMARK                         _______ _______ _______ _____ _____    ______ ____
ROOT
ATOM      1  C   UNL     1       7.180   6.308  18.062  0.00  0.00    +0.000 A 
ATOM      2  N   UNL     1       7.179   5.880  19.307  0.00  0.00    +0.000 NA
ATOM      3  N   UNL     1       6.284   4.844  19.505  0.00  0.00    +0.000 NA
ATOM      4  C   UNL     1       5.618   4.555  18.413  0.00  0.00    +0.000 A 
ATOM      5  N   UNL     1       4.649   3.609  18.192  0.00  0.00    +0.000 N 
ATOM      6  C   UNL     1       4.325   2.674  19.159  0.00  0.00    +0.000 C 
ATOM      7  O   UNL     1       4.957   2.471  20.193  0.00  0.00    +0.000 OA
ATOM      8  S   UNL     1       6.025   5.515  17.056  0.00  0.00    +0.000 S 
ATOM      9  H   UNL     1       4.150   3.670  17.313  0.00  0.00    +0.000 HD
ENDROOT
BRANCH   1  10
ATOM     10  C   UNL     1       8.118   7.348  17.529  0.00  0.00    +0.000 C 
BRANCH  10  12
ATOM     11  C   UNL     1       8.691   9.607  18.496  0.00  0.00    +0.000 C 
ATOM     12  C   UNL     1       7.628   8.771  17.795  0.00  0.00    +0.000 C 
ENDBRANCH  10  12
ENDBRANCH   1  10
BRANCH   6  13
ATOM     13  C   UNL     1       3.179   1.762  18.811  0.00  0.00    +0.000 C 
BRANCH  13  14
ATOM     14  S   UNL     1       1.673   2.466  19.391  0.00  0.00    +0.000 S 
ATOM     15  O   UNL     1       0.586   2.000  18.556  0.00  0.00    +0.000 OA
ATOM     16  O   UNL     1       1.647   2.270  20.832  0.00  0.00    +0.000 OA
BRANCH  14  17
ATOM     17  C   UNL     1       1.838   4.217  19.119  0.00  0.00    +0.000 A 
ATOM     18  C   UNL     1       2.087   5.070  20.199  0.00  0.00    +0.000 A 
ATOM     19  C   UNL     1       2.269   6.437  19.972  0.00  0.00    +0.000 A 
ATOM     20  C   UNL     1       2.200   6.958  18.673  0.00  0.00    +0.000 A 
ATOM     21  C   UNL     1       2.401   8.425  18.417  0.00  0.00    +0.000 C 
ATOM     22  C   UNL     1       1.951   6.091  17.601  0.00  0.00    +0.000 A 
ATOM     23  C   UNL     1       1.776   4.721  17.818  0.00  0.00    +0.000 A 
ENDBRANCH  14  17
ENDBRANCH  13  14
ENDBRANCH   6  13
TORSDOF 5
ENDMDL
MODEL 4
REMARK VINA RESULT:      -7.1      4.347      5.864
REMARK  Name = 
REMARK  7 active torsions:
REMARK  status: ('A' for Active; 'I' for Inactive)
REMARK    1  A    between atoms: C_1  and  C_2
REMARK    2  A    between atoms: C_2  and  C_3
REMARK    3  A    between atoms: C_3  and  C_4
REMARK    4  A    between atoms: C_9  and  C_11
REMARK    5  A    between atoms: C_11  and  S_12
REMARK    6  A    between atoms: S_12  and  C_15
REMARK    7  A    between atoms: C_18  and  C_19
REMARK                            x       y       z     vdW  Elec       q    Type
REMARK                         _______ _______ _______ _____ _____    ______ ____
ROOT
ATOM      1  C   UNL     1       7.141   6.470  18.060  0.00  0.00    +0.000 A 
ATOM      2  N   UNL     1       7.199   6.006  19.291  0.00  0.00    +0.000 NA
ATOM      3  N   UNL     1       6.339   4.942  19.490  0.00  0.00    +0.000 NA
ATOM      4  C   UNL     1       5.637   4.668  18.417  0.00  0.00    +0.000 A 
ATOM      5  N   UNL     1       4.683   3.705  18.205  0.00  0.00    +0.000 N 
ATOM      6  C   UNL     1       4.420   2.734  19.154  0.00  0.00    +0.000 C 
ATOM      7  O   UNL     1       5.098   2.516  20.156  0.00  0.00    +0.000 OA
ATOM      8  S   UNL     1       5.966   5.679  17.076  0.00  0.00    +0.000 S 
ATOM      9  H   UNL     1       4.148   3.780  17.348  0.00  0.00    +0.000 HD
ENDROOT
BRANCH   1  10
ATOM     10  C   UNL     1       8.032   7.549  17.523  0.00  0.00    +0.000 C 
BRANCH  10  12
ATOM     11  C   UNL     1       8.671   9.909  18.150  0.00  0.00    +0.000 C 
ATOM     12  C   UNL     1       8.571   8.464  18.622  0.00  0.00    +0.000 C 
ENDBRANCH  10  12
ENDBRANCH   1  10
BRANCH   6  13
ATOM     13  C   UNL     1       3.284   1.803  18.823  0.00  0.00    +0.000 C 
BRANCH  13  14
ATOM     14  S   UNL     1       1.982   2.716  18.066  0.00  0.00    +0.000 S 
ATOM     15  O   UNL     1       2.343   2.995  16.692  0.00  0.00    +0.000 OA
ATOM     16  O   UNL     1       0.743   2.025  18.390  0.00  0.00    +0.000 OA
BRANCH  14  17
ATOM     17  C   UNL     1       1.937   4.273  18.928  0.00  0.00    +0.000 A 
ATOM     18  C   UNL     1       2.171   5.462  18.231  0.00  0.00    +0.000 A 
ATOM     19  C   UNL     1       2.081   6.685  18.902  0.00  0.00    +0.000 A 
ATOM     20  C   UNL     1       1.760   6.726  20.265  0.00  0.00    +0.000 A 
ATOM     21  C   UNL     1       1.653   8.036  20.994  0.00  0.00    +0.000 C 
ATOM     22  C   UNL     1       1.526   5.526  20.950  0.00  0.00    +0.000 A 
ATOM     23  C   UNL     1       1.606   4.299  20.285  0.00  0.00    +0.000 A 
ENDBRANCH  14  17
ENDBRANCH  13  14
ENDBRANCH   6  13
TORSDOF 5
ENDMDL
MODEL 5
REMARK VINA RESULT:      -6.8      2.794      3.568
REMARK  Name = 
REMARK  7 active torsions:
REMARK  status: ('A' for Active; 'I' for Inactive)
REMARK    1  A    between atoms: C_1  and  C_2
REMARK    2  A    between atoms: C_2  and  C_3
REMARK    3  A    between atoms: C_3  and  C_4
REMARK    4  A    between atoms: C_9  and  C_11
REMARK    5  A    between atoms: C_11  and  S_12
REMARK    6  A    between atoms: S_12  and  C_15
REMARK    7  A    between atoms: C_18  and  C_19
REMARK                            x       y       z     vdW  Elec       q    Type
REMARK                         _______ _______ _______ _____ _____    ______ ____
ROOT
ATOM      1  C   UNL     1       6.507   4.278  13.598  0.00  0.00    +0.000 A 
ATOM      2  N   UNL     1       6.974   5.443  13.998  0.00  0.00    +0.000 NA
ATOM      3  N   UNL     1       6.650   5.712  15.315  0.00  0.00    +0.000 NA
ATOM      4  C   UNL     1       5.921   4.761  15.847  0.00  0.00    +0.000 A 
ATOM      5  N   UNL     1       5.395   4.650  17.109  0.00  0.00    +0.000 N 
ATOM      6  C   UNL     1       5.716   5.558  18.103  0.00  0.00    +0.000 C 
ATOM      7  O   UNL     1       6.602   6.407  18.032  0.00  0.00    +0.000 OA
ATOM      8  S   UNL     1       5.570   3.460  14.792  0.00  0.00    +0.000 S 
ATOM      9  H   UNL     1       4.722   3.908  17.255  0.00  0.00    +0.000 HD
ENDROOT
BRANCH   1  10
ATOM     10  C   UNL     1       6.789   3.673  12.256  0.00  0.00    +0.000 C 
BRANCH  10  12
ATOM     11  C   UNL     1       4.431   3.270  11.451  0.00  0.00    +0.000 C 
ATOM     12  C   UNL     1       5.750   2.625  11.856  0.00  0.00    +0.000 C 
ENDBRANCH  10  12
ENDBRANCH   1  10
BRANCH   6  13
ATOM     13  C   UNL     1       4.991   5.364  19.408  0.00  0.00    +0.000 C 
BRANCH  13  14
ATOM     14  S   UNL     1       3.267   5.188  19.099  0.00  0.00    +0.000 S 
ATOM     15  O   UNL     1       3.083   4.614  17.783  0.00  0.00    +0.000 OA
ATOM     16  O   UNL     1       2.692   4.557  20.277  0.00  0.00    +0.000 OA
BRANCH  14  17
ATOM     17  C   UNL     1       2.626   6.848  19.048  0.00  0.00    +0.000 A 
ATOM     18  C   UNL     1       2.762   7.611  17.884  0.00  0.00    +0.000 A 
ATOM     19  C   UNL     1       2.210   8.894  17.831  0.00  0.00    +0.000 A 
ATOM     20  C   UNL     1       1.526   9.419  18.935  0.00  0.00    +0.000 A 
ATOM     21  C   UNL     1       0.922  10.794  18.886  0.00  0.00    +0.000 C 
ATOM     22  C   UNL     1       1.396   8.642  20.093  0.00  0.00    +0.000 A 
ATOM     23  C   UNL     1       1.938   7.355  20.152  0.00  0.00    +0.000 A 
ENDBRANCH  14  17
ENDBRANCH  13  14
ENDBRANCH   6  13
TORSDOF 5
ENDMDL
MODEL 6
REMARK VINA RESULT:      -6.6      2.541      3.608
REMARK  Name = 
REMARK  7 active torsions:
REMARK  status: ('A' for Active; 'I' for Inactive)
REMARK    1  A    between atoms: C_1  and  C_2
REMARK    2  A    between atoms: C_2  and  C_3
REMARK    3  A    between atoms: C_3  and  C_4
REMARK    4  A    between atoms: C_9  and  C_11
REMARK    5  A    between atoms: C_11  and  S_12
REMARK    6  A    between atoms: S_12  and  C_15
REMARK    7  A    between atoms: C_18  and  C_19
REMARK                            x       y       z     vdW  Elec       q    Type
REMARK                         _______ _______ _______ _____ _____    ______ ____
ROOT
ATOM      1  C   UNL     1       6.723   4.797  14.363  0.00  0.00    +0.000 A 
ATOM      2  N   UNL     1       7.245   5.556  15.304  0.00  0.00    +0.000 NA
ATOM      3  N   UNL     1       6.738   5.260  16.557  0.00  0.00    +0.000 NA
ATOM      4  C   UNL     1       5.828   4.317  16.510  0.00  0.00    +0.000 A 
ATOM      5  N   UNL     1       5.090   3.748  17.517  0.00  0.00    +0.000 N 
ATOM      6  C   UNL     1       5.341   4.042  18.845  0.00  0.00    +0.000 C 
ATOM      7  O   UNL     1       6.316   4.661  19.265  0.00  0.00    +0.000 OA
ATOM      8  S   UNL     1       5.513   3.711  14.941  0.00  0.00    +0.000 S 
ATOM      9  H   UNL     1       4.322   3.152  17.233  0.00  0.00    +0.000 HD
ENDROOT
BRANCH   1  10
ATOM     10  C   UNL     1       7.154   4.817  12.928  0.00  0.00    +0.000 C 
BRANCH  10  12
ATOM     11  C   UNL     1       5.519   3.359  11.675  0.00  0.00    +0.000 C 
ATOM     12  C   UNL     1       6.932   3.475  12.231  0.00  0.00    +0.000 C 
ENDBRANCH  10  12
ENDBRANCH   1  10
BRANCH   6  13
ATOM     13  C   UNL     1       4.392   3.416  19.831  0.00  0.00    +0.000 C 
BRANCH  13  14
ATOM     14  S   UNL     1       2.740   3.603  19.253  0.00  0.00    +0.000 S 
ATOM     15  O   UNL     1       2.673   3.163  17.875  0.00  0.00    +0.000 OA
ATOM     16  O   UNL     1       1.872   3.023  20.266  0.00  0.00    +0.000 OA
BRANCH  14  17
ATOM     17  C   UNL     1       2.433   5.356  19.264  0.00  0.00    +0.000 A 
ATOM     18  C   UNL     1       2.562   6.094  18.083  0.00  0.00    +0.000 A 
ATOM     19  C   UNL     1       2.267   7.461  18.087  0.00  0.00    +0.000 A 
ATOM     20  C   UNL     1       1.847   8.094  19.263  0.00  0.00    +0.000 A 
ATOM     21  C   UNL     1       1.521   9.561  19.277  0.00  0.00    +0.000 C 
ATOM     22  C   UNL     1       1.721   7.342  20.439  0.00  0.00    +0.000 A 
ATOM     23  C   UNL     1       2.006   5.973  20.442  0.00  0.00    +0.000 A 
ENDBRANCH  14  17
ENDBRANCH  13  14
ENDBRANCH   6  13
TORSDOF 5
ENDMDL
MODEL 7
REMARK VINA RESULT:      -6.6      3.075      3.781
REMARK  Name = 
REMARK  7 active torsions:
REMARK  status: ('A' for Active; 'I' for Inactive)
REMARK    1  A    between atoms: C_1  and  C_2
REMARK    2  A    between atoms: C_2  and  C_3
REMARK    3  A    between atoms: C_3  and  C_4
REMARK    4  A    between atoms: C_9  and  C_11
REMARK    5  A    between atoms: C_11  and  S_12
REMARK    6  A    between atoms: S_12  and  C_15
REMARK    7  A    between atoms: C_18  and  C_19
REMARK                            x       y       z     vdW  Elec       q    Type
REMARK                         _______ _______ _______ _____ _____    ______ ____
ROOT
ATOM      1  C   UNL     1       6.943   4.608  13.734  0.00  0.00    +0.000 A 
ATOM      2  N   UNL     1       7.765   5.298  14.497  0.00  0.00    +0.000 NA
ATOM      3  N   UNL     1       7.193   5.640  15.709  0.00  0.00    +0.000 NA
ATOM      4  C   UNL     1       5.951   5.228  15.800  0.00  0.00    +0.000 A 
ATOM      5  N   UNL     1       5.045   5.368  16.821  0.00  0.00    +0.000 N 
ATOM      6  C   UNL     1       5.417   5.897  18.043  0.00  0.00    +0.000 C 
ATOM      7  O   UNL     1       6.572   6.115  18.403  0.00  0.00    +0.000 OA
ATOM      8  S   UNL     1       5.377   4.391  14.422  0.00  0.00    +0.000 S 
ATOM      9  H   UNL     1       4.086   5.117  16.612  0.00  0.00    +0.000 HD
ENDROOT
BRANCH   1  10
ATOM     10  C   UNL     1       7.321   4.012  12.412  0.00  0.00    +0.000 C 
BRANCH  10  12
ATOM     11  C   UNL     1       6.604   1.847  11.331  0.00  0.00    +0.000 C 
ATOM     12  C   UNL     1       6.170   3.240  11.767  0.00  0.00    +0.000 C 
ENDBRANCH  10  12
ENDBRANCH   1  10
BRANCH   6  13
ATOM     13  C   UNL     1       4.297   6.076  19.033  0.00  0.00    +0.000 C 
BRANCH  13  14
ATOM     14  S   UNL     1       2.857   6.640  18.191  0.00  0.00    +0.000 S 
ATOM     15  O   UNL     1       3.259   7.515  17.110  0.00  0.00    +0.000 OA
ATOM     16  O   UNL     1       2.034   5.468  17.938  0.00  0.00    +0.000 OA
BRANCH  14  17
ATOM     17  C   UNL     1       1.977   7.633  19.378  0.00  0.00    +0.000 A 
ATOM     18  C   UNL     1       1.772   7.151  20.674  0.00  0.00    +0.000 A 
ATOM     19  C   UNL     1       1.128   7.957  21.617  0.00  0.00    +0.000 A 
ATOM     20  C   UNL     1       0.685   9.240  21.271  0.00  0.00    +0.000 A 
ATOM     21  C   UNL     1      -0.003  10.118  22.278  0.00  0.00    +0.000 C 
ATOM     22  C   UNL     1       0.899   9.710  19.968  0.00  0.00    +0.000 A 
ATOM     23  C   UNL     1       1.550   8.914  19.022  0.00  0.00    +0.000 A 
ENDBRANCH  14  17
ENDBRANCH  13  14
ENDBRANCH   6  13
TORSDOF 5
ENDMDL
MODEL 8
REMARK VINA RESULT:      -6.5      3.142      4.369
REMARK  Name = 
REMARK  7 active torsions:
REMARK  status: ('A' for Active; 'I' for Inactive)
REMARK    1  A    between atoms: C_1  and  C_2
REMARK    2  A    between atoms: C_2  and  C_3
REMARK    3  A    between atoms: C_3  and  C_4
REMARK    4  A    between atoms: C_9  and  C_11
REMARK    5  A    between atoms: C_11  and  S_12
REMARK    6  A    between atoms: S_12  and  C_15
REMARK    7  A    between atoms: C_18  and  C_19
REMARK                            x       y       z     vdW  Elec       q    Type
REMARK                         _______ _______ _______ _____ _____    ______ ____
ROOT
ATOM      1  C   UNL     1       6.595   4.687  14.550  0.00  0.00    +0.000 A 
ATOM      2  N   UNL     1       6.625   3.541  15.199  0.00  0.00    +0.000 NA
ATOM      3  N   UNL     1       5.622   3.450  16.147  0.00  0.00    +0.000 NA
ATOM      4  C   UNL     1       4.899   4.543  16.205  0.00  0.00    +0.000 A 
ATOM      5  N   UNL     1       3.829   4.853  17.005  0.00  0.00    +0.000 N 
ATOM      6  C   UNL     1       3.252   3.907  17.833  0.00  0.00    +0.000 C 
ATOM      7  O   UNL     1       3.492   2.702  17.811  0.00  0.00    +0.000 OA
ATOM      8  S   UNL     1       5.375   5.769  15.111  0.00  0.00    +0.000 S 
ATOM      9  H   UNL     1       3.525   5.820  16.998  0.00  0.00    +0.000 HD
ENDROOT
BRANCH   1  10
ATOM     10  C   UNL     1       7.490   5.026  13.397  0.00  0.00    +0.000 C 
BRANCH  10  12
ATOM     11  C   UNL     1       5.873   3.561  12.130  0.00  0.00    +0.000 C 
ATOM     12  C   UNL     1       7.303   4.080  12.212  0.00  0.00    +0.000 C 
ENDBRANCH  10  12
ENDBRANCH   1  10
BRANCH   6  13
ATOM     13  C   UNL     1       2.148   4.417  18.720  0.00  0.00    +0.000 C 
BRANCH  13  14
ATOM     14  S   UNL     1       2.837   5.418  19.994  0.00  0.00    +0.000 S 
ATOM     15  O   UNL     1       2.304   4.985  21.269  0.00  0.00    +0.000 OA
ATOM     16  O   UNL     1       4.272   5.465  19.760  0.00  0.00    +0.000 OA
BRANCH  14  17
ATOM     17  C   UNL     1       2.217   7.058  19.691  0.00  0.00    +0.000 A 
ATOM     18  C   UNL     1       2.370   7.638  18.427  0.00  0.00    +0.000 A 
ATOM     19  C   UNL     1       1.834   8.905  18.179  0.00  0.00    +0.000 A 
ATOM     20  C   UNL     1       1.150   9.597  19.187  0.00  0.00    +0.000 A 
ATOM     21  C   UNL     1       0.564  10.956  18.929  0.00  0.00    +0.000 C 
ATOM     22  C   UNL     1       1.004   9.003  20.447  0.00  0.00    +0.000 A 
ATOM     23  C   UNL     1       1.529   7.733  20.701  0.00  0.00    +0.000 A 
ENDBRANCH  14  17
ENDBRANCH  13  14
ENDBRANCH   6  13
TORSDOF 5
ENDMDL
MODEL 9
REMARK VINA RESULT:      -6.5      3.190      4.450
REMARK  Name = 
REMARK  7 active torsions:
REMARK  status: ('A' for Active; 'I' for Inactive)
REMARK    1  A    between atoms: C_1  and  C_2
REMARK    2  A    between atoms: C_2  and  C_3
REMARK    3  A    between atoms: C_3  and  C_4
REMARK    4  A    between atoms: C_9  and  C_11
REMARK    5  A    between atoms: C_11  and  S_12
REMARK    6  A    between atoms: S_12  and  C_15
REMARK    7  A    between atoms: C_18  and  C_19
REMARK                            x       y       z     vdW  Elec       q    Type
REMARK                         _______ _______ _______ _____ _____    ______ ____
ROOT
ATOM      1  C   UNL     1       6.738   4.757  14.650  0.00  0.00    +0.000 A 
ATOM      2  N   UNL     1       6.737   3.605  15.288  0.00  0.00    +0.000 NA
ATOM      3  N   UNL     1       5.695   3.508  16.192  0.00  0.00    +0.000 NA
ATOM      4  C   UNL     1       4.973   4.602  16.231  0.00  0.00    +0.000 A 
ATOM      5  N   UNL     1       3.871   4.909  16.988  0.00  0.00    +0.000 N 
ATOM      6  C   UNL     1       3.257   3.956  17.781  0.00  0.00    +0.000 C 
ATOM      7  O   UNL     1       3.493   2.750  17.757  0.00  0.00    +0.000 OA
ATOM      8  S   UNL     1       5.499   5.838  15.171  0.00  0.00    +0.000 S 
ATOM      9  H   UNL     1       3.570   5.876  16.978  0.00  0.00    +0.000 HD
ENDROOT
BRANCH   1  10
ATOM     10  C   UNL     1       7.682   5.104  13.540  0.00  0.00    +0.000 C 
BRANCH  10  12
ATOM     11  C   UNL     1       6.328   3.419  12.239  0.00  0.00    +0.000 C 
ATOM     12  C   UNL     1       7.145   4.703  12.167  0.00  0.00    +0.000 C 
ENDBRANCH  10  12
ENDBRANCH   1  10
BRANCH   6  13
ATOM     13  C   UNL     1       2.117   4.461  18.625  0.00  0.00    +0.000 C 
BRANCH  13  14
ATOM     14  S   UNL     1       2.752   5.475  19.917  0.00  0.00    +0.000 S 
ATOM     15  O   UNL     1       2.186   5.039  21.176  0.00  0.00    +0.000 OA
ATOM     16  O   UNL     1       4.193   5.542  19.728  0.00  0.00    +0.000 OA
BRANCH  14  17
ATOM     17  C   UNL     1       2.120   7.106  19.588  0.00  0.00    +0.000 A 
ATOM     18  C   UNL     1       1.487   7.826  20.606  0.00  0.00    +0.000 A 
ATOM     19  C   UNL     1       1.040   9.127  20.357  0.00  0.00    +0.000 A 
ATOM     20  C   UNL     1       1.220   9.712  19.097  0.00  0.00    +0.000 A 
ATOM     21  C   UNL     1       0.751  11.112  18.821  0.00  0.00    +0.000 C 
ATOM     22  C   UNL     1       1.858   8.979  18.087  0.00  0.00    +0.000 A 
ATOM     23  C   UNL     1       2.315   7.680  18.330  0.00  0.00    +0.000 A 
ENDBRANCH  14  17
ENDBRANCH  13  14
ENDBRANCH   6  13
TORSDOF 5
ENDMDL
