MODEL 1
REMARK VINA RESULT:      -7.8      0.000      0.000
REMARK  Name = 
REMARK  5 active torsions:
REMARK  status: ('A' for Active; 'I' for Inactive)
REMARK    1  A    between atoms: C_2  and  C_3
REMARK    2  A    between atoms: C_7  and  C_8
REMARK    3  A    between atoms: N_10  and  C_11
REMARK    4  A    between atoms: C_15  and  O_16
REMARK    5  A    between atoms: O_16  and  C_17
REMARK                            x       y       z     vdW  Elec       q    Type
REMARK                         _______ _______ _______ _____ _____    ______ ____
ROOT
ATOM      1  C   UNL     1       2.999   5.580  19.895  0.00  0.00    +0.000 A 
ATOM      2  C   UNL     1       2.513   4.353  20.346  0.00  0.00    +0.000 A 
ATOM      3  N   UNL     1       3.158   3.167  20.198  0.00  0.00    +0.000 NA
ATOM      4  C   UNL     1       4.366   3.207  19.604  0.00  0.00    +0.000 A 
ATOM      5  C   UNL     1       4.954   4.373  19.135  0.00  0.00    +0.000 A 
ATOM      6  C   UNL     1       4.224   5.567  19.223  0.00  0.00    +0.000 A 
ENDROOT
BRANCH   1   9
ATOM      7  C   UNL     1       2.104   7.743  19.085  0.00  0.00    +0.000 C 
ATOM      8  O   UNL     1       2.390   7.593  17.902  0.00  0.00    +0.000 OA
ATOM      9  N   UNL     1       2.346   6.824  20.096  0.00  0.00    +0.000 N 
ATOM     10  H   UNL     1       1.881   6.958  20.986  0.00  0.00    +0.000 HD
BRANCH   7  15
ATOM     11  C   UNL     1       0.227  10.461  20.952  0.00  0.00    +0.000 A 
ATOM     12  C   UNL     1       0.263  11.431  19.960  0.00  0.00    +0.000 A 
ATOM     13  N   UNL     1       0.820  11.233  18.742  0.00  0.00    +0.000 NA
ATOM     14  C   UNL     1       1.381  10.021  18.520  0.00  0.00    +0.000 A 
ATOM     15  C   UNL     1       1.388   8.983  19.448  0.00  0.00    +0.000 A 
ATOM     16  C   UNL     1       0.796   9.207  20.692  0.00  0.00    +0.000 A 
BRANCH  11  18
ATOM     17  N   UNL     1      -0.839  11.010  23.247  0.00  0.00    +0.000 NA
ATOM     18  C   UNL     1      -0.362  10.761  22.219  0.00  0.00    +0.000 C 
ENDBRANCH  11  18
ENDBRANCH   7  15
ENDBRANCH   1   9
BRANCH   5  19
ATOM     19  O   UNL     1       6.206   4.253  18.582  0.00  0.00    +0.000 OA
BRANCH  19  20
ATOM     20  C   UNL     1       6.366   4.451  17.242  0.00  0.00    +0.000 A 
ATOM     21  C   UNL     1       5.701   3.792  16.229  0.00  0.00    +0.000 A 
ATOM     22  N   UNL     1       5.961   3.975  14.916  0.00  0.00    +0.000 NA
ATOM     23  C   UNL     1       6.886   4.906  14.632  0.00  0.00    +0.000 A 
ATOM     24  N   UNL     1       7.536   5.667  15.527  0.00  0.00    +0.000 NA
ATOM     25  C   UNL     1       7.246   5.424  16.822  0.00  0.00    +0.000 A 
ENDBRANCH  19  20
ENDBRANCH   5  19
TORSDOF 5
ENDMDL
MODEL 2
REMARK VINA RESULT:      -7.7      1.107      1.717
REMARK  Name = 
REMARK  5 active torsions:
REMARK  status: ('A' for Active; 'I' for Inactive)
REMARK    1  A    between atoms: C_2  and  C_3
REMARK    2  A    between atoms: C_7  and  C_8
REMARK    3  A    between atoms: N_10  and  C_11
REMARK    4  A    between atoms: C_15  and  O_16
REMARK    5  A    between atoms: O_16  and  C_17
REMARK                            x       y       z     vdW  Elec       q    Type
REMARK                         _______ _______ _______ _____ _____    ______ ____
ROOT
ATOM      1  C   UNL     1       2.547   5.253  20.243  0.00  0.00    +0.000 A 
ATOM      2  C   UNL     1       1.961   3.988  20.291  0.00  0.00    +0.000 A 
ATOM      3  N   UNL     1       2.553   2.846  19.856  0.00  0.00    +0.000 NA
ATOM      4  C   UNL     1       3.809   2.961  19.383  0.00  0.00    +0.000 A 
ATOM      5  C   UNL     1       4.495   4.165  19.307  0.00  0.00    +0.000 A 
ATOM      6  C   UNL     1       3.824   5.337  19.682  0.00  0.00    +0.000 A 
ENDROOT
BRANCH   1   9
ATOM      7  C   UNL     1       1.838   7.615  20.023  0.00  0.00    +0.000 C 
ATOM      8  O   UNL     1       2.216   7.781  18.868  0.00  0.00    +0.000 OA
ATOM      9  N   UNL     1       1.945   6.436  20.745  0.00  0.00    +0.000 N 
ATOM     10  H   UNL     1       1.413   6.350  21.602  0.00  0.00    +0.000 HD
BRANCH   7  15
ATOM     11  C   UNL     1      -0.337  10.640  20.745  0.00  0.00    +0.000 A 
ATOM     12  C   UNL     1      -0.139  10.692  22.118  0.00  0.00    +0.000 A 
ATOM     13  N   UNL     1       0.670   9.838  22.788  0.00  0.00    +0.000 NA
ATOM     14  C   UNL     1       1.288   8.883  22.054  0.00  0.00    +0.000 A 
ATOM     15  C   UNL     1       1.158   8.755  20.673  0.00  0.00    +0.000 A 
ATOM     16  C   UNL     1       0.329   9.655  20.003  0.00  0.00    +0.000 A 
BRANCH  11  18
ATOM     17  N   UNL     1      -1.952  12.320  19.617  0.00  0.00    +0.000 NA
ATOM     18  C   UNL     1      -1.227  11.567  20.119  0.00  0.00    +0.000 C 
ENDBRANCH  11  18
ENDBRANCH   7  15
ENDBRANCH   1   9
BRANCH   5  19
ATOM     19  O   UNL     1       5.784   4.111  18.831  0.00  0.00    +0.000 OA
BRANCH  19  20
ATOM     20  C   UNL     1       6.013   4.319  17.502  0.00  0.00    +0.000 A 
ATOM     21  C   UNL     1       5.087   4.228  16.484  0.00  0.00    +0.000 A 
ATOM     22  N   UNL     1       5.393   4.365  15.176  0.00  0.00    +0.000 NA
ATOM     23  C   UNL     1       6.673   4.668  14.908  0.00  0.00    +0.000 A 
ATOM     24  N   UNL     1       7.641   4.863  15.817  0.00  0.00    +0.000 NA
ATOM     25  C   UNL     1       7.278   4.694  17.105  0.00  0.00    +0.000 A 
ENDBRANCH  19  20
ENDBRANCH   5  19
TORSDOF 5
ENDMDL
MODEL 3
REMARK VINA RESULT:      -7.7      1.606      2.373
REMARK  Name = 
REMARK  5 active torsions:
REMARK  status: ('A' for Active; 'I' for Inactive)
REMARK    1  A    between atoms: C_2  and  C_3
REMARK    2  A    between atoms: C_7  and  C_8
REMARK    3  A    between atoms: N_10  and  C_11
REMARK    4  A    between atoms: C_15  and  O_16
REMARK    5  A    between atoms: O_16  and  C_17
REMARK                            x       y       z     vdW  Elec       q    Type
REMARK                         _______ _______ _______ _____ _____    ______ ____
ROOT
ATOM      1  C   UNL     1       2.509   5.329  20.126  0.00  0.00    +0.000 A 
ATOM      2  C   UNL     1       1.849   4.118  19.919  0.00  0.00    +0.000 A 
ATOM      3  N   UNL     1       2.432   2.996  19.421  0.00  0.00    +0.000 NA
ATOM      4  C   UNL     1       3.749   3.071  19.152  0.00  0.00    +0.000 A 
ATOM      5  C   UNL     1       4.509   4.217  19.337  0.00  0.00    +0.000 A 
ATOM      6  C   UNL     1       3.859   5.382  19.768  0.00  0.00    +0.000 A 
ENDROOT
BRANCH   1   9
ATOM      7  C   UNL     1       1.812   7.703  20.040  0.00  0.00    +0.000 C 
ATOM      8  O   UNL     1       2.198   7.935  18.899  0.00  0.00    +0.000 OA
ATOM      9  N   UNL     1       1.909   6.483  20.692  0.00  0.00    +0.000 N 
ATOM     10  H   UNL     1       1.372   6.349  21.540  0.00  0.00    +0.000 HD
BRANCH   7  15
ATOM     11  C   UNL     1      -0.387  10.663  20.937  0.00  0.00    +0.000 A 
ATOM     12  C   UNL     1      -0.152  10.665  22.304  0.00  0.00    +0.000 A 
ATOM     13  N   UNL     1       0.687   9.799  22.919  0.00  0.00    +0.000 NA
ATOM     14  C   UNL     1       1.299   8.882  22.133  0.00  0.00    +0.000 A 
ATOM     15  C   UNL     1       1.134   8.806  20.752  0.00  0.00    +0.000 A 
ATOM     16  C   UNL     1       0.273   9.718  20.140  0.00  0.00    +0.000 A 
BRANCH  11  18
ATOM     17  N   UNL     1      -2.055  12.355  19.908  0.00  0.00    +0.000 NA
ATOM     18  C   UNL     1      -1.306  11.599  20.371  0.00  0.00    +0.000 C 
ENDBRANCH  11  18
ENDBRANCH   7  15
ENDBRANCH   1   9
BRANCH   5  19
ATOM     19  O   UNL     1       5.849   4.122  19.046  0.00  0.00    +0.000 OA
BRANCH  19  20
ATOM     20  C   UNL     1       6.500   5.210  18.542  0.00  0.00    +0.000 A 
ATOM     21  C   UNL     1       7.558   5.878  19.123  0.00  0.00    +0.000 A 
ATOM     22  N   UNL     1       8.109   7.000  18.613  0.00  0.00    +0.000 NA
ATOM     23  C   UNL     1       7.602   7.415  17.441  0.00  0.00    +0.000 A 
ATOM     24  N   UNL     1       6.634   6.802  16.743  0.00  0.00    +0.000 NA
ATOM     25  C   UNL     1       6.111   5.697  17.313  0.00  0.00    +0.000 A 
ENDBRANCH  19  20
ENDBRANCH   5  19
TORSDOF 5
ENDMDL
MODEL 4
REMARK VINA RESULT:      -7.5      1.609      2.260
REMARK  Name = 
REMARK  5 active torsions:
REMARK  status: ('A' for Active; 'I' for Inactive)
REMARK    1  A    between atoms: C_2  and  C_3
REMARK    2  A    between atoms: C_7  and  C_8
REMARK    3  A    between atoms: N_10  and  C_11
REMARK    4  A    between atoms: C_15  and  O_16
REMARK    5  A    between atoms: O_16  and  C_17
REMARK                            x       y       z     vdW  Elec       q    Type
REMARK                         _______ _______ _______ _____ _____    ______ ____
ROOT
ATOM      1  C   UNL     1       2.711   5.228  20.293  0.00  0.00    +0.000 A 
ATOM      2  C   UNL     1       2.202   3.939  20.454  0.00  0.00    +0.000 A 
ATOM      3  N   UNL     1       2.826   2.806  20.043  0.00  0.00    +0.000 NA
ATOM      4  C   UNL     1       4.038   2.957  19.475  0.00  0.00    +0.000 A 
ATOM      5  C   UNL     1       4.649   4.188  19.282  0.00  0.00    +0.000 A 
ATOM      6  C   UNL     1       3.939   5.344  19.637  0.00  0.00    +0.000 A 
ENDROOT
BRANCH   1   9
ATOM      7  C   UNL     1       1.924   7.559  20.014  0.00  0.00    +0.000 C 
ATOM      8  O   UNL     1       2.280   7.702  18.849  0.00  0.00    +0.000 OA
ATOM      9  N   UNL     1       2.078   6.406  20.769  0.00  0.00    +0.000 N 
ATOM     10  H   UNL     1       1.562   6.328  21.636  0.00  0.00    +0.000 HD
BRANCH   7  15
ATOM     11  C   UNL     1      -0.298  10.565  20.667  0.00  0.00    +0.000 A 
ATOM     12  C   UNL     1      -0.131  10.628  22.043  0.00  0.00    +0.000 A 
ATOM     13  N   UNL     1       0.671   9.787  22.737  0.00  0.00    +0.000 NA
ATOM     14  C   UNL     1       1.315   8.834  22.024  0.00  0.00    +0.000 A 
ATOM     15  C   UNL     1       1.218   8.695  20.641  0.00  0.00    +0.000 A 
ATOM     16  C   UNL     1       0.394   9.582  19.946  0.00  0.00    +0.000 A 
BRANCH  11  18
ATOM     17  N   UNL     1      -1.900  12.224  19.489  0.00  0.00    +0.000 NA
ATOM     18  C   UNL     1      -1.183  11.478  20.014  0.00  0.00    +0.000 C 
ENDBRANCH  11  18
ENDBRANCH   7  15
ENDBRANCH   1   9
BRANCH   5  19
ATOM     19  O   UNL     1       5.902   4.174  18.718  0.00  0.00    +0.000 OA
BRANCH  19  20
ATOM     20  C   UNL     1       6.453   5.345  18.288  0.00  0.00    +0.000 A 
ATOM     21  C   UNL     1       6.062   6.084  17.190  0.00  0.00    +0.000 A 
ATOM     22  N   UNL     1       6.702   7.196  16.767  0.00  0.00    +0.000 NA
ATOM     23  C   UNL     1       7.732   7.597  17.528  0.00  0.00    +0.000 A 
ATOM     24  N   UNL     1       8.150   7.010  18.659  0.00  0.00    +0.000 NA
ATOM     25  C   UNL     1       7.484   5.893  19.020  0.00  0.00    +0.000 A 
ENDBRANCH  19  20
ENDBRANCH   5  19
TORSDOF 5
ENDMDL
MODEL 5
REMARK VINA RESULT:      -7.4      1.123      1.667
REMARK  Name = 
REMARK  5 active torsions:
REMARK  status: ('A' for Active; 'I' for Inactive)
REMARK    1  A    between atoms: C_2  and  C_3
REMARK    2  A    between atoms: C_7  and  C_8
REMARK    3  A    between atoms: N_10  and  C_11
REMARK    4  A    between atoms: C_15  and  O_16
REMARK    5  A    between atoms: O_16  and  C_17
REMARK                            x       y       z     vdW  Elec       q    Type
REMARK                         _______ _______ _______ _____ _____    ______ ____
ROOT
ATOM      1  C   UNL     1       2.730   5.522  20.012  0.00  0.00    +0.000 A 
ATOM      2  C   UNL     1       2.165   4.299  20.372  0.00  0.00    +0.000 A 
ATOM      3  N   UNL     1       2.771   3.094  20.220  0.00  0.00    +0.000 NA
ATOM      4  C   UNL     1       4.021   3.107  19.718  0.00  0.00    +0.000 A 
ATOM      5  C   UNL     1       4.688   4.265  19.344  0.00  0.00    +0.000 A 
ATOM      6  C   UNL     1       4.001   5.484  19.432  0.00  0.00    +0.000 A 
ENDROOT
BRANCH   1   9
ATOM      7  C   UNL     1       1.966   7.744  19.229  0.00  0.00    +0.000 C 
ATOM      8  O   UNL     1       2.315   7.622  18.060  0.00  0.00    +0.000 OA
ATOM      9  N   UNL     1       2.114   6.784  20.219  0.00  0.00    +0.000 N 
ATOM     10  H   UNL     1       1.604   6.905  21.085  0.00  0.00    +0.000 HD
BRANCH   7  15
ATOM     11  C   UNL     1       0.103  10.479  21.086  0.00  0.00    +0.000 A 
ATOM     12  C   UNL     1       0.213  11.471  20.122  0.00  0.00    +0.000 A 
ATOM     13  N   UNL     1       0.814  11.283  18.923  0.00  0.00    +0.000 NA
ATOM     14  C   UNL     1       1.343  10.059  18.693  0.00  0.00    +0.000 A 
ATOM     15  C   UNL     1       1.277   8.999  19.594  0.00  0.00    +0.000 A 
ATOM     16  C   UNL     1       0.640   9.213  20.817  0.00  0.00    +0.000 A 
BRANCH  11  18
ATOM     17  N   UNL     1      -1.046  11.003  23.346  0.00  0.00    +0.000 NA
ATOM     18  C   UNL     1      -0.528  10.767  22.335  0.00  0.00    +0.000 C 
ENDBRANCH  11  18
ENDBRANCH   7  15
ENDBRANCH   1   9
BRANCH   5  19
ATOM     19  O   UNL     1       5.972   4.114  18.880  0.00  0.00    +0.000 OA
BRANCH  19  20
ATOM     20  C   UNL     1       6.650   5.208  18.427  0.00  0.00    +0.000 A 
ATOM     21  C   UNL     1       7.626   5.910  19.105  0.00  0.00    +0.000 A 
ATOM     22  N   UNL     1       8.204   7.036  18.636  0.00  0.00    +0.000 NA
ATOM     23  C   UNL     1       7.816   7.420  17.409  0.00  0.00    +0.000 A 
ATOM     24  N   UNL     1       6.941   6.774  16.623  0.00  0.00    +0.000 NA
ATOM     25  C   UNL     1       6.384   5.666  17.155  0.00  0.00    +0.000 A 
ENDBRANCH  19  20
ENDBRANCH   5  19
TORSDOF 5
ENDMDL
MODEL 6
REMARK VINA RESULT:      -7.3      4.770      7.496
REMARK  Name = 
REMARK  5 active torsions:
REMARK  status: ('A' for Active; 'I' for Inactive)
REMARK    1  A    between atoms: C_2  and  C_3
REMARK    2  A    between atoms: C_7  and  C_8
REMARK    3  A    between atoms: N_10  and  C_11
REMARK    4  A    between atoms: C_15  and  O_16
REMARK    5  A    between atoms: O_16  and  C_17
REMARK                            x       y       z     vdW  Elec       q    Type
REMARK                         _______ _______ _______ _____ _____    ______ ____
ROOT
ATOM      1  C   UNL     1       7.671   6.718  18.139  0.00  0.00    +0.000 A 
ATOM      2  C   UNL     1       7.327   6.480  16.808  0.00  0.00    +0.000 A 
ATOM      3  N   UNL     1       6.515   5.476  16.389  0.00  0.00    +0.000 NA
ATOM      4  C   UNL     1       5.986   4.689  17.346  0.00  0.00    +0.000 A 
ATOM      5  C   UNL     1       6.244   4.845  18.700  0.00  0.00    +0.000 A 
ATOM      6  C   UNL     1       7.156   5.836  19.092  0.00  0.00    +0.000 A 
ENDROOT
BRANCH   1   9
ATOM      7  C   UNL     1       8.284   9.117  18.191  0.00  0.00    +0.000 C 
ATOM      8  O   UNL     1       7.388   9.519  17.456  0.00  0.00    +0.000 OA
ATOM      9  N   UNL     1       8.479   7.799  18.578  0.00  0.00    +0.000 N 
ATOM     10  H   UNL     1       9.111   7.614  19.347  0.00  0.00    +0.000 HD
BRANCH   7  15
ATOM     11  C   UNL     1      10.786  11.936  18.629  0.00  0.00    +0.000 A 
ATOM     12  C   UNL     1      10.667  12.082  20.004  0.00  0.00    +0.000 A 
ATOM     13  N   UNL     1       9.863  11.308  20.770  0.00  0.00    +0.000 NA
ATOM     14  C   UNL     1       9.136  10.364  20.129  0.00  0.00    +0.000 A 
ATOM     15  C   UNL     1       9.193  10.135  18.756  0.00  0.00    +0.000 A 
ATOM     16  C   UNL     1      10.039  10.938  17.989  0.00  0.00    +0.000 A 
BRANCH  11  18
ATOM     17  N   UNL     1      12.333  13.520  17.288  0.00  0.00    +0.000 NA
ATOM     18  C   UNL     1      11.642  12.811  17.891  0.00  0.00    +0.000 C 
ENDBRANCH  11  18
ENDBRANCH   7  15
ENDBRANCH   1   9
BRANCH   5  19
ATOM     19  O   UNL     1       5.602   3.981  19.554  0.00  0.00    +0.000 OA
BRANCH  19  20
ATOM     20  C   UNL     1       4.240   3.912  19.533  0.00  0.00    +0.000 A 
ATOM     21  C   UNL     1       3.360   4.953  19.748  0.00  0.00    +0.000 A 
ATOM     22  N   UNL     1       2.018   4.804  19.795  0.00  0.00    +0.000 NA
ATOM     23  C   UNL     1       1.563   3.565  19.551  0.00  0.00    +0.000 A 
ATOM     24  N   UNL     1       2.315   2.496  19.248  0.00  0.00    +0.000 NA
ATOM     25  C   UNL     1       3.649   2.703  19.235  0.00  0.00    +0.000 A 
ENDBRANCH  19  20
ENDBRANCH   5  19
TORSDOF 5
ENDMDL
MODEL 7
REMARK VINA RESULT:      -7.3      1.369      1.386
REMARK  Name = 
REMARK  5 active torsions:
REMARK  status: ('A' for Active; 'I' for Inactive)
REMARK    1  A    between atoms: C_2  and  C_3
REMARK    2  A    between atoms: C_7  and  C_8
REMARK    3  A    between atoms: N_10  and  C_11
REMARK    4  A    between atoms: C_15  and  O_16
REMARK    5  A    between atoms: O_16  and  C_17
REMARK                            x       y       z     vdW  Elec       q    Type
REMARK                         _______ _______ _______ _____ _____    ______ ____
ROOT
ATOM      1  C   UNL     1       2.387   5.517  18.261  0.00  0.00    +0.000 A 
ATOM      2  C   UNL     1       1.565   4.427  17.971  0.00  0.00    +0.000 A 
ATOM      3  N   UNL     1       1.999   3.251  17.448  0.00  0.00    +0.000 NA
ATOM      4  C   UNL     1       3.325   3.138  17.238  0.00  0.00    +0.000 A 
ATOM      5  C   UNL     1       4.236   4.149  17.507  0.00  0.00    +0.000 A 
ATOM      6  C   UNL     1       3.745   5.381  17.963  0.00  0.00    +0.000 A 
ENDROOT
BRANCH   1   9
ATOM      7  C   UNL     1       2.109   7.977  18.282  0.00  0.00    +0.000 C 
ATOM      8  O   UNL     1       2.636   8.200  17.197  0.00  0.00    +0.000 OA
ATOM      9  N   UNL     1       1.937   6.725  18.854  0.00  0.00    +0.000 N 
ATOM     10  H   UNL     1       1.307   6.640  19.642  0.00  0.00    +0.000 HD
BRANCH   7  15
ATOM     11  C   UNL     1       0.644  10.267  20.930  0.00  0.00    +0.000 A 
ATOM     12  C   UNL     1       0.755  11.460  20.230  0.00  0.00    +0.000 A 
ATOM     13  N   UNL     1       1.236  11.543  18.967  0.00  0.00    +0.000 NA
ATOM     14  C   UNL     1       1.639  10.386  18.392  0.00  0.00    +0.000 A 
ATOM     15  C   UNL     1       1.560   9.140  19.010  0.00  0.00    +0.000 A 
ATOM     16  C   UNL     1       1.049   9.079  20.307  0.00  0.00    +0.000 A 
BRANCH  11  18
ATOM     17  N   UNL     1      -0.255  10.271  23.358  0.00  0.00    +0.000 NA
ATOM     18  C   UNL     1       0.145  10.271  22.269  0.00  0.00    +0.000 C 
ENDBRANCH  11  18
ENDBRANCH   7  15
ENDBRANCH   1   9
BRANCH   5  19
ATOM     19  O   UNL     1       5.559   3.866  17.268  0.00  0.00    +0.000 OA
BRANCH  19  20
ATOM     20  C   UNL     1       6.106   4.203  16.065  0.00  0.00    +0.000 A 
ATOM     21  C   UNL     1       5.805   3.645  14.839  0.00  0.00    +0.000 A 
ATOM     22  N   UNL     1       6.441   3.965  13.692  0.00  0.00    +0.000 NA
ATOM     23  C   UNL     1       7.369   4.929  13.792  0.00  0.00    +0.000 A 
ATOM     24  N   UNL     1       7.689   5.600  14.909  0.00  0.00    +0.000 NA
ATOM     25  C   UNL     1       7.032   5.223  16.026  0.00  0.00    +0.000 A 
ENDBRANCH  19  20
ENDBRANCH   5  19
TORSDOF 5
ENDMDL
MODEL 8
REMARK VINA RESULT:      -7.2      1.776      8.198
REMARK  Name = 
REMARK  5 active torsions:
REMARK  status: ('A' for Active; 'I' for Inactive)
REMARK    1  A    between atoms: C_2  and  C_3
REMARK    2  A    between atoms: C_7  and  C_8
REMARK    3  A    between atoms: N_10  and  C_11
REMARK    4  A    between atoms: C_15  and  O_16
REMARK    5  A    between atoms: O_16  and  C_17
REMARK                            x       y       z     vdW  Elec       q    Type
REMARK                         _______ _______ _______ _____ _____    ______ ____
ROOT
ATOM      1  C   UNL     1       3.002   5.268  18.472  0.00  0.00    +0.000 A 
ATOM      2  C   UNL     1       2.226   4.233  18.993  0.00  0.00    +0.000 A 
ATOM      3  N   UNL     1       1.407   4.350  20.070  0.00  0.00    +0.000 NA
ATOM      4  C   UNL     1       1.325   5.569  20.636  0.00  0.00    +0.000 A 
ATOM      5  C   UNL     1       2.037   6.673  20.190  0.00  0.00    +0.000 A 
ATOM      6  C   UNL     1       2.940   6.499  19.132  0.00  0.00    +0.000 A 
ENDROOT
BRANCH   1   9
ATOM      7  C   UNL     1       5.141   4.741  17.341  0.00  0.00    +0.000 C 
ATOM      8  O   UNL     1       5.761   4.396  18.342  0.00  0.00    +0.000 OA
ATOM      9  N   UNL     1       3.817   5.156  17.316  0.00  0.00    +0.000 N 
ATOM     10  H   UNL     1       3.349   5.211  16.420  0.00  0.00    +0.000 HD
BRANCH   7  15
ATOM     11  C   UNL     1       6.091   4.001  13.743  0.00  0.00    +0.000 A 
ATOM     12  C   UNL     1       7.252   4.760  13.694  0.00  0.00    +0.000 A 
ATOM     13  N   UNL     1       7.739   5.448  14.753  0.00  0.00    +0.000 NA
ATOM     14  C   UNL     1       7.022   5.388  15.900  0.00  0.00    +0.000 A 
ATOM     15  C   UNL     1       5.851   4.648  16.049  0.00  0.00    +0.000 A 
ATOM     16  C   UNL     1       5.376   3.936  14.947  0.00  0.00    +0.000 A 
BRANCH  11  18
ATOM     17  N   UNL     1       5.261   2.775  11.619  0.00  0.00    +0.000 NA
ATOM     18  C   UNL     1       5.635   3.322  12.571  0.00  0.00    +0.000 C 
ENDBRANCH  11  18
ENDBRANCH   7  15
ENDBRANCH   1   9
BRANCH   5  19
ATOM     19  O   UNL     1       1.819   7.857  20.854  0.00  0.00    +0.000 OA
BRANCH  19  20
ATOM     20  C   UNL     1       1.110   8.846  20.239  0.00  0.00    +0.000 A 
ATOM     21  C   UNL     1       1.322   9.342  18.969  0.00  0.00    +0.000 A 
ATOM     22  N   UNL     1       0.637  10.381  18.445  0.00  0.00    +0.000 NA
ATOM     23  C   UNL     1      -0.336  10.885  19.220  0.00  0.00    +0.000 A 
ATOM     24  N   UNL     1      -0.689  10.433  20.434  0.00  0.00    +0.000 NA
ATOM     25  C   UNL     1       0.045   9.406  20.911  0.00  0.00    +0.000 A 
ENDBRANCH  19  20
ENDBRANCH   5  19
TORSDOF 5
ENDMDL
MODEL 9
REMARK VINA RESULT:      -7.1      1.220      1.557
REMARK  Name = 
REMARK  5 active torsions:
REMARK  status: ('A' for Active; 'I' for Inactive)
REMARK    1  A    between atoms: C_2  and  C_3
REMARK    2  A    between atoms: C_7  and  C_8
REMARK    3  A    between atoms: N_10  and  C_11
REMARK    4  A    between atoms: C_15  and  O_16
REMARK    5  A    between atoms: O_16  and  C_17
REMARK                            x       y       z     vdW  Elec       q    Type
REMARK                         _______ _______ _______ _____ _____    ______ ____
ROOT
ATOM      1  C   UNL     1       2.582   5.813  18.453  0.00  0.00    +0.000 A 
ATOM      2  C   UNL     1       1.770   4.713  18.178  0.00  0.00    +0.000 A 
ATOM      3  N   UNL     1       2.217   3.528  17.687  0.00  0.00    +0.000 NA
ATOM      4  C   UNL     1       3.546   3.417  17.495  0.00  0.00    +0.000 A 
ATOM      5  C   UNL     1       4.448   4.439  17.752  0.00  0.00    +0.000 A 
ATOM      6  C   UNL     1       3.945   5.678  18.175  0.00  0.00    +0.000 A 
ENDROOT
BRANCH   1   9
ATOM      7  C   UNL     1       2.058   8.229  18.316  0.00  0.00    +0.000 C 
ATOM      8  O   UNL     1       2.363   8.385  17.139  0.00  0.00    +0.000 OA
ATOM      9  N   UNL     1       2.119   7.032  19.014  0.00  0.00    +0.000 N 
ATOM     10  H   UNL     1       1.646   6.973  19.907  0.00  0.00    +0.000 HD
BRANCH   7  15
ATOM     11  C   UNL     1       0.558  10.553  20.914  0.00  0.00    +0.000 A 
ATOM     12  C   UNL     1       0.765  11.749  20.240  0.00  0.00    +0.000 A 
ATOM     13  N   UNL     1       1.320  11.824  19.008  0.00  0.00    +0.000 NA
ATOM     14  C   UNL     1       1.699  10.656  18.438  0.00  0.00    +0.000 A 
ATOM     15  C   UNL     1       1.526   9.408  19.030  0.00  0.00    +0.000 A 
ATOM     16  C   UNL     1       0.939   9.355  20.296  0.00  0.00    +0.000 A 
BRANCH  11  18
ATOM     17  N   UNL     1      -0.482  10.568  23.284  0.00  0.00    +0.000 NA
ATOM     18  C   UNL     1      -0.015  10.564  22.223  0.00  0.00    +0.000 C 
ENDBRANCH  11  18
ENDBRANCH   7  15
ENDBRANCH   1   9
BRANCH   5  19
ATOM     19  O   UNL     1       5.776   4.159  17.536  0.00  0.00    +0.000 OA
BRANCH  19  20
ATOM     20  C   UNL     1       6.316   4.400  16.307  0.00  0.00    +0.000 A 
ATOM     21  C   UNL     1       7.304   5.315  16.008  0.00  0.00    +0.000 A 
ATOM     22  N   UNL     1       7.741   5.566  14.755  0.00  0.00    +0.000 NA
ATOM     23  C   UNL     1       7.196   4.810  13.788  0.00  0.00    +0.000 A 
ATOM     24  N   UNL     1       6.292   3.835  13.968  0.00  0.00    +0.000 NA
ATOM     25  C   UNL     1       5.880   3.646  15.239  0.00  0.00    +0.000 A 
ENDBRANCH  19  20
ENDBRANCH   5  19
TORSDOF 5
ENDMDL
