MODEL 1
REMARK VINA RESULT:      -7.6      0.000      0.000
REMARK  Name = 
REMARK  10 active torsions:
REMARK  status: ('A' for Active; 'I' for Inactive)
REMARK    1  A    between atoms: C_1  and  C_2
REMARK    2  A    between atoms: C_2  and  N_3
REMARK    3  A    between atoms: N_3  and  C_4
REMARK    4  A    between atoms: N_3  and  C_6
REMARK    5  A    between atoms: C_4  and  C_5
REMARK    6  A    between atoms: C_6  and  C_7
REMARK    7  A    between atoms: C_7  and  C_8
REMARK    8  A    between atoms: C_8  and  N_9
REMARK    9  A    between atoms: N_13  and  C_14
REMARK   10  A    between atoms: N_23  and  C_24
REMARK                            x       y       z     vdW  Elec       q    Type
REMARK                         _______ _______ _______ _____ _____    ______ ____
ROOT
ATOM      1  N   UNL     1       7.731   7.323  16.801  0.00  0.00    +0.000 N 
ATOM      2  C   UNL     1       6.898   6.223  16.948  0.00  0.00    +0.000 A 
ATOM      3  N   UNL     1       6.625   5.550  15.843  0.00  0.00    +0.000 NA
ATOM      4  C   UNL     1       5.909   4.447  15.997  0.00  0.00    +0.000 A 
ATOM      5  N   UNL     1       5.635   3.615  14.926  0.00  0.00    +0.000 N 
ATOM      6  N   UNL     1       5.385   4.070  17.160  0.00  0.00    +0.000 NA
ATOM      7  C   UNL     1       5.615   4.866  18.191  0.00  0.00    +0.000 A 
ATOM      8  N   UNL     1       4.993   4.676  19.410  0.00  0.00    +0.000 N 
ATOM      9  N   UNL     1       6.401   5.925  18.142  0.00  0.00    +0.000 NA
ATOM     10  H   UNL     1       7.324   7.908  16.078  0.00  0.00    +0.000 HD
ATOM     11  H   UNL     1       4.843   3.031  15.165  0.00  0.00    +0.000 HD
ATOM     12  H   UNL     1       5.158   5.501  19.975  0.00  0.00    +0.000 HD
ENDROOT
BRANCH   8  13
ATOM     13  C   UNL     1       3.692   4.027  19.546  0.00  0.00    +0.000 C 
ATOM     14  C   UNL     1       3.038   4.488  20.867  0.00  0.00    +0.000 C 
ATOM     15  C   UNL     1       1.637   3.876  21.015  0.00  0.00    +0.000 C 
ATOM     16  C   UNL     1       0.750   4.345  19.850  0.00  0.00    +0.000 C 
ATOM     17  C   UNL     1       1.363   3.906  18.511  0.00  0.00    +0.000 C 
ATOM     18  C   UNL     1       1.446   2.372  18.486  0.00  0.00    +0.000 C 
ATOM     19  C   UNL     1       2.337   1.882  19.633  0.00  0.00    +0.000 C 
ATOM     20  C   UNL     1       1.758   2.344  20.982  0.00  0.00    +0.000 C 
ATOM     21  C   UNL     1       3.741   2.480  19.462  0.00  0.00    +0.000 C 
ATOM     22  C   UNL     1       2.778   4.506  18.379  0.00  0.00    +0.000 C 
ENDBRANCH   8  13
BRANCH   5  23
ATOM     23  C   UNL     1       5.707   4.136  13.562  0.00  0.00    +0.000 C 
ATOM     24  C   UNL     1       6.854   3.412  12.832  0.00  0.00    +0.000 C 
ATOM     25  C   UNL     1       6.533   2.018  12.293  0.00  0.00    +0.000 C 
ATOM     26  C   UNL     1       5.936   2.048  10.888  0.00  0.00    +0.000 C 
ATOM     27  C   UNL     1       4.506   2.568  10.824  0.00  0.00    +0.000 C 
ATOM     28  C   UNL     1       4.319   3.987  11.363  0.00  0.00    +0.000 C 
ATOM     29  C   UNL     1       4.326   4.053  12.890  0.00  0.00    +0.000 C 
ENDBRANCH   5  23
BRANCH   1  30
ATOM     30  C   UNL     1       8.108   8.020  18.019  0.00  0.00    +0.000 C 
BRANCH  30  31
ATOM     31  C   UNL     1       8.172   9.523  17.754  0.00  0.00    +0.000 C 
BRANCH  31  32
ATOM     32  C   UNL     1       9.064  10.309  18.724  0.00  0.00    +0.000 C 
BRANCH  32  33
ATOM     33  N   UNL     1       9.774  11.466  18.144  0.00  0.00    +0.000 NA
BRANCH  33  35
ATOM     34  C   UNL     1       9.725  13.956  17.750  0.00  0.00    +0.000 C 
ATOM     35  C   UNL     1       9.043  12.727  18.347  0.00  0.00    +0.000 C 
ENDBRANCH  33  35
BRANCH  33  36
ATOM     36  C   UNL     1      11.175  11.508  18.605  0.00  0.00    +0.000 C 
ATOM     37  C   UNL     1      11.392  11.799  20.090  0.00  0.00    +0.000 C 
ENDBRANCH  33  36
ENDBRANCH  32  33
ENDBRANCH  31  32
ENDBRANCH  30  31
ENDBRANCH   1  30
TORSDOF 8
ENDMDL
MODEL 2
REMARK VINA RESULT:      -7.5      0.452      1.726
REMARK  Name = 
REMARK  10 active torsions:
REMARK  status: ('A' for Active; 'I' for Inactive)
REMARK    1  A    between atoms: C_1  and  C_2
REMARK    2  A    between atoms: C_2  and  N_3
REMARK    3  A    between atoms: N_3  and  C_4
REMARK    4  A    between atoms: N_3  and  C_6
REMARK    5  A    between atoms: C_4  and  C_5
REMARK    6  A    between atoms: C_6  and  C_7
REMARK    7  A    between atoms: C_7  and  C_8
REMARK    8  A    between atoms: C_8  and  N_9
REMARK    9  A    between atoms: N_13  and  C_14
REMARK   10  A    between atoms: N_23  and  C_24
REMARK                            x       y       z     vdW  Elec       q    Type
REMARK                         _______ _______ _______ _____ _____    ______ ____
ROOT
ATOM      1  N   UNL     1       7.733   7.349  16.812  0.00  0.00    +0.000 N 
ATOM      2  C   UNL     1       6.887   6.259  16.955  0.00  0.00    +0.000 A 
ATOM      3  N   UNL     1       6.616   5.585  15.850  0.00  0.00    +0.000 NA
ATOM      4  C   UNL     1       5.887   4.490  16.001  0.00  0.00    +0.000 A 
ATOM      5  N   UNL     1       5.613   3.657  14.930  0.00  0.00    +0.000 N 
ATOM      6  N   UNL     1       5.349   4.123  17.161  0.00  0.00    +0.000 NA
ATOM      7  C   UNL     1       5.578   4.920  18.191  0.00  0.00    +0.000 A 
ATOM      8  N   UNL     1       4.943   4.740  19.405  0.00  0.00    +0.000 N 
ATOM      9  N   UNL     1       6.376   5.970  18.145  0.00  0.00    +0.000 NA
ATOM     10  H   UNL     1       7.338   7.936  16.083  0.00  0.00    +0.000 HD
ATOM     11  H   UNL     1       4.814   3.082  15.164  0.00  0.00    +0.000 HD
ATOM     12  H   UNL     1       5.112   5.565  19.968  0.00  0.00    +0.000 HD
ENDROOT
BRANCH   8  13
ATOM     13  C   UNL     1       3.634   4.106  19.531  0.00  0.00    +0.000 C 
ATOM     14  C   UNL     1       3.824   2.574  19.599  0.00  0.00    +0.000 C 
ATOM     15  C   UNL     1       2.472   1.874  19.798  0.00  0.00    +0.000 C 
ATOM     16  C   UNL     1       1.847   2.338  21.123  0.00  0.00    +0.000 C 
ATOM     17  C   UNL     1       1.638   3.860  21.102  0.00  0.00    +0.000 C 
ATOM     18  C   UNL     1       0.681   4.210  19.951  0.00  0.00    +0.000 C 
ATOM     19  C   UNL     1       1.291   3.767  18.617  0.00  0.00    +0.000 C 
ATOM     20  C   UNL     1       1.542   2.248  18.633  0.00  0.00    +0.000 C 
ATOM     21  C   UNL     1       2.630   4.491  18.416  0.00  0.00    +0.000 C 
ATOM     22  C   UNL     1       2.996   4.557  20.879  0.00  0.00    +0.000 C 
ENDBRANCH   8  13
BRANCH   5  23
ATOM     23  C   UNL     1       5.704   4.173  13.566  0.00  0.00    +0.000 C 
ATOM     24  C   UNL     1       6.850   3.434  12.848  0.00  0.00    +0.000 C 
ATOM     25  C   UNL     1       6.519   2.042  12.311  0.00  0.00    +0.000 C 
ATOM     26  C   UNL     1       5.936   2.074  10.900  0.00  0.00    +0.000 C 
ATOM     27  C   UNL     1       4.512   2.608  10.822  0.00  0.00    +0.000 C 
ATOM     28  C   UNL     1       4.334   4.030  11.354  0.00  0.00    +0.000 C 
ATOM     29  C   UNL     1       4.328   4.102  12.881  0.00  0.00    +0.000 C 
ENDBRANCH   5  23
BRANCH   1  30
ATOM     30  C   UNL     1       8.106   8.046  18.031  0.00  0.00    +0.000 C 
BRANCH  30  31
ATOM     31  C   UNL     1       8.152   9.551  17.771  0.00  0.00    +0.000 C 
BRANCH  31  32
ATOM     32  C   UNL     1       9.345  10.277  18.406  0.00  0.00    +0.000 C 
BRANCH  32  33
ATOM     33  N   UNL     1       9.047  11.592  19.005  0.00  0.00    +0.000 NA
BRANCH  33  35
ATOM     34  C   UNL     1      11.329  11.961  20.012  0.00  0.00    +0.000 C 
ATOM     35  C   UNL     1       9.824  11.835  20.232  0.00  0.00    +0.000 C 
ENDBRANCH  33  35
BRANCH  33  36
ATOM     36  C   UNL     1       9.167  12.667  18.001  0.00  0.00    +0.000 C 
ATOM     37  C   UNL     1       7.861  13.186  17.402  0.00  0.00    +0.000 C 
ENDBRANCH  33  36
ENDBRANCH  32  33
ENDBRANCH  31  32
ENDBRANCH  30  31
ENDBRANCH   1  30
TORSDOF 8
ENDMDL
MODEL 3
REMARK VINA RESULT:      -7.4      0.466      1.375
REMARK  Name = 
REMARK  10 active torsions:
REMARK  status: ('A' for Active; 'I' for Inactive)
REMARK    1  A    between atoms: C_1  and  C_2
REMARK    2  A    between atoms: C_2  and  N_3
REMARK    3  A    between atoms: N_3  and  C_4
REMARK    4  A    between atoms: N_3  and  C_6
REMARK    5  A    between atoms: C_4  and  C_5
REMARK    6  A    between atoms: C_6  and  C_7
REMARK    7  A    between atoms: C_7  and  C_8
REMARK    8  A    between atoms: C_8  and  N_9
REMARK    9  A    between atoms: N_13  and  C_14
REMARK   10  A    between atoms: N_23  and  C_24
REMARK                            x       y       z     vdW  Elec       q    Type
REMARK                         _______ _______ _______ _____ _____    ______ ____
ROOT
ATOM      1  N   UNL     1       7.731   7.394  16.830  0.00  0.00    +0.000 N 
ATOM      2  C   UNL     1       6.897   6.294  16.972  0.00  0.00    +0.000 A 
ATOM      3  N   UNL     1       6.639   5.616  15.867  0.00  0.00    +0.000 NA
ATOM      4  C   UNL     1       5.922   4.512  16.017  0.00  0.00    +0.000 A 
ATOM      5  N   UNL     1       5.663   3.675  14.947  0.00  0.00    +0.000 N 
ATOM      6  N   UNL     1       5.384   4.140  17.175  0.00  0.00    +0.000 NA
ATOM      7  C   UNL     1       5.600   4.941  18.205  0.00  0.00    +0.000 A 
ATOM      8  N   UNL     1       4.963   4.756  19.417  0.00  0.00    +0.000 N 
ATOM      9  N   UNL     1       6.385   6.001  18.161  0.00  0.00    +0.000 NA
ATOM     10  H   UNL     1       7.332   7.975  16.100  0.00  0.00    +0.000 HD
ATOM     11  H   UNL     1       4.869   3.091  15.178  0.00  0.00    +0.000 HD
ATOM     12  H   UNL     1       5.119   5.584  19.980  0.00  0.00    +0.000 HD
ENDROOT
BRANCH   8  13
ATOM     13  C   UNL     1       3.661   4.106  19.540  0.00  0.00    +0.000 C 
ATOM     14  C   UNL     1       3.869   2.577  19.605  0.00  0.00    +0.000 C 
ATOM     15  C   UNL     1       2.525   1.860  19.800  0.00  0.00    +0.000 C 
ATOM     16  C   UNL     1       1.891   2.315  21.125  0.00  0.00    +0.000 C 
ATOM     17  C   UNL     1       1.664   3.834  21.106  0.00  0.00    +0.000 C 
ATOM     18  C   UNL     1       0.706   4.176  19.953  0.00  0.00    +0.000 C 
ATOM     19  C   UNL     1       1.323   3.742  18.620  0.00  0.00    +0.000 C 
ATOM     20  C   UNL     1       1.592   2.226  18.633  0.00  0.00    +0.000 C 
ATOM     21  C   UNL     1       2.654   4.482  18.423  0.00  0.00    +0.000 C 
ATOM     22  C   UNL     1       3.015   4.547  20.887  0.00  0.00    +0.000 C 
ENDBRANCH   8  13
BRANCH   5  23
ATOM     23  C   UNL     1       5.752   4.190  13.582  0.00  0.00    +0.000 C 
ATOM     24  C   UNL     1       6.876   3.428  12.854  0.00  0.00    +0.000 C 
ATOM     25  C   UNL     1       6.513   2.043  12.319  0.00  0.00    +0.000 C 
ATOM     26  C   UNL     1       5.919   2.088  10.913  0.00  0.00    +0.000 C 
ATOM     27  C   UNL     1       4.505   2.652  10.847  0.00  0.00    +0.000 C 
ATOM     28  C   UNL     1       4.361   4.076  11.382  0.00  0.00    +0.000 C 
ATOM     29  C   UNL     1       4.369   4.147  12.909  0.00  0.00    +0.000 C 
ENDBRANCH   5  23
BRANCH   1  30
ATOM     30  C   UNL     1       8.091   8.097  18.050  0.00  0.00    +0.000 C 
BRANCH  30  31
ATOM     31  C   UNL     1       8.501   9.531  17.717  0.00  0.00    +0.000 C 
BRANCH  31  32
ATOM     32  C   UNL     1       8.990  10.355  18.916  0.00  0.00    +0.000 C 
BRANCH  32  33
ATOM     33  N   UNL     1      10.166  11.211  18.665  0.00  0.00    +0.000 NA
BRANCH  33  35
ATOM     34  C   UNL     1      10.888  12.839  16.880  0.00  0.00    +0.000 C 
ATOM     35  C   UNL     1       9.823  12.413  17.887  0.00  0.00    +0.000 C 
ENDBRANCH  33  35
BRANCH  33  36
ATOM     36  C   UNL     1      10.884  11.499  19.922  0.00  0.00    +0.000 C 
ATOM     37  C   UNL     1      10.925  12.963  20.360  0.00  0.00    +0.000 C 
ENDBRANCH  33  36
ENDBRANCH  32  33
ENDBRANCH  31  32
ENDBRANCH  30  31
ENDBRANCH   1  30
TORSDOF 8
ENDMDL
MODEL 4
REMARK VINA RESULT:      -7.3      0.473      1.375
REMARK  Name = 
REMARK  10 active torsions:
REMARK  status: ('A' for Active; 'I' for Inactive)
REMARK    1  A    between atoms: C_1  and  C_2
REMARK    2  A    between atoms: C_2  and  N_3
REMARK    3  A    between atoms: N_3  and  C_4
REMARK    4  A    between atoms: N_3  and  C_6
REMARK    5  A    between atoms: C_4  and  C_5
REMARK    6  A    between atoms: C_6  and  C_7
REMARK    7  A    between atoms: C_7  and  C_8
REMARK    8  A    between atoms: C_8  and  N_9
REMARK    9  A    between atoms: N_13  and  C_14
REMARK   10  A    between atoms: N_23  and  C_24
REMARK                            x       y       z     vdW  Elec       q    Type
REMARK                         _______ _______ _______ _____ _____    ______ ____
ROOT
ATOM      1  N   UNL     1       7.645   7.510  16.858  0.00  0.00    +0.000 N 
ATOM      2  C   UNL     1       6.826   6.401  17.013  0.00  0.00    +0.000 A 
ATOM      3  N   UNL     1       6.570   5.712  15.914  0.00  0.00    +0.000 NA
ATOM      4  C   UNL     1       5.868   4.600  16.076  0.00  0.00    +0.000 A 
ATOM      5  N   UNL     1       5.612   3.752  15.014  0.00  0.00    +0.000 N 
ATOM      6  N   UNL     1       5.342   4.230  17.241  0.00  0.00    +0.000 NA
ATOM      7  C   UNL     1       5.554   5.042  18.263  0.00  0.00    +0.000 A 
ATOM      8  N   UNL     1       4.926   4.857  19.481  0.00  0.00    +0.000 N 
ATOM      9  N   UNL     1       6.325   6.110  18.207  0.00  0.00    +0.000 NA
ATOM     10  H   UNL     1       7.234   8.082  16.125  0.00  0.00    +0.000 HD
ATOM     11  H   UNL     1       4.827   3.160  15.254  0.00  0.00    +0.000 HD
ATOM     12  H   UNL     1       5.076   5.691  20.036  0.00  0.00    +0.000 HD
ENDROOT
BRANCH   8  13
ATOM     13  C   UNL     1       3.634   4.192  19.616  0.00  0.00    +0.000 C 
ATOM     14  C   UNL     1       2.714   4.645  18.461  0.00  0.00    +0.000 C 
ATOM     15  C   UNL     1       1.364   3.916  18.532  0.00  0.00    +0.000 C 
ATOM     16  C   UNL     1       1.594   2.402  18.396  0.00  0.00    +0.000 C 
ATOM     17  C   UNL     1       2.506   1.904  19.528  0.00  0.00    +0.000 C 
ATOM     18  C   UNL     1       1.819   2.184  20.875  0.00  0.00    +0.000 C 
ATOM     19  C   UNL     1       1.591   3.690  21.037  0.00  0.00    +0.000 C 
ATOM     20  C   UNL     1       0.708   4.215  19.890  0.00  0.00    +0.000 C 
ATOM     21  C   UNL     1       2.948   4.407  20.989  0.00  0.00    +0.000 C 
ATOM     22  C   UNL     1       3.851   2.657  19.465  0.00  0.00    +0.000 C 
ENDBRANCH   8  13
BRANCH   5  23
ATOM     23  C   UNL     1       5.686   4.258  13.645  0.00  0.00    +0.000 C 
ATOM     24  C   UNL     1       6.869   3.566  12.940  0.00  0.00    +0.000 C 
ATOM     25  C   UNL     1       6.605   2.154  12.416  0.00  0.00    +0.000 C 
ATOM     26  C   UNL     1       6.029   2.146  11.002  0.00  0.00    +0.000 C 
ATOM     27  C   UNL     1       4.582   2.614  10.911  0.00  0.00    +0.000 C 
ATOM     28  C   UNL     1       4.337   4.031  11.427  0.00  0.00    +0.000 C 
ATOM     29  C   UNL     1       4.319   4.118  12.954  0.00  0.00    +0.000 C 
ENDBRANCH   5  23
BRANCH   1  30
ATOM     30  C   UNL     1       8.004   8.227  18.070  0.00  0.00    +0.000 C 
BRANCH  30  31
ATOM     31  C   UNL     1       8.541   9.612  17.710  0.00  0.00    +0.000 C 
BRANCH  31  32
ATOM     32  C   UNL     1       9.085  10.418  18.897  0.00  0.00    +0.000 C 
BRANCH  32  33
ATOM     33  N   UNL     1      10.295  11.219  18.625  0.00  0.00    +0.000 NA
BRANCH  33  35
ATOM     34  C   UNL     1       9.030  13.272  17.887  0.00  0.00    +0.000 C 
ATOM     35  C   UNL     1      10.077  12.210  17.558  0.00  0.00    +0.000 C 
ENDBRANCH  33  35
BRANCH  33  36
ATOM     36  C   UNL     1      10.837  11.793  19.871  0.00  0.00    +0.000 C 
ATOM     37  C   UNL     1       9.915  11.766  21.089  0.00  0.00    +0.000 C 
ENDBRANCH  33  36
ENDBRANCH  32  33
ENDBRANCH  31  32
ENDBRANCH  30  31
ENDBRANCH   1  30
TORSDOF 8
ENDMDL
MODEL 5
REMARK VINA RESULT:      -7.2      4.030      6.888
REMARK  Name = 
REMARK  10 active torsions:
REMARK  status: ('A' for Active; 'I' for Inactive)
REMARK    1  A    between atoms: C_1  and  C_2
REMARK    2  A    between atoms: C_2  and  N_3
REMARK    3  A    between atoms: N_3  and  C_4
REMARK    4  A    between atoms: N_3  and  C_6
REMARK    5  A    between atoms: C_4  and  C_5
REMARK    6  A    between atoms: C_6  and  C_7
REMARK    7  A    between atoms: C_7  and  C_8
REMARK    8  A    between atoms: C_8  and  N_9
REMARK    9  A    between atoms: N_13  and  C_14
REMARK   10  A    between atoms: N_23  and  C_24
REMARK                            x       y       z     vdW  Elec       q    Type
REMARK                         _______ _______ _______ _____ _____    ______ ____
ROOT
ATOM      1  N   UNL     1       4.476   5.351  16.800  0.00  0.00    +0.000 N 
ATOM      2  C   UNL     1       3.749   6.109  17.706  0.00  0.00    +0.000 A 
ATOM      3  N   UNL     1       3.337   5.477  18.792  0.00  0.00    +0.000 NA
ATOM      4  C   UNL     1       2.727   6.222  19.702  0.00  0.00    +0.000 A 
ATOM      5  N   UNL     1       2.330   5.691  20.916  0.00  0.00    +0.000 N 
ATOM      6  N   UNL     1       2.430   7.506  19.517  0.00  0.00    +0.000 NA
ATOM      7  C   UNL     1       2.779   8.026  18.352  0.00  0.00    +0.000 A 
ATOM      8  N   UNL     1       2.382   9.295  17.973  0.00  0.00    +0.000 N 
ATOM      9  N   UNL     1       3.478   7.380  17.438  0.00  0.00    +0.000 NA
ATOM     10  H   UNL     1       3.917   4.530  16.586  0.00  0.00    +0.000 HD
ATOM     11  H   UNL     1       1.628   6.297  21.320  0.00  0.00    +0.000 HD
ATOM     12  H   UNL     1       2.587   9.402  16.987  0.00  0.00    +0.000 HD
ENDROOT
BRANCH   8  13
ATOM     13  C   UNL     1       1.166   9.929  18.472  0.00  0.00    +0.000 C 
ATOM     14  C   UNL     1       0.945   9.505  19.941  0.00  0.00    +0.000 C 
ATOM     15  C   UNL     1      -0.292  10.205  20.522  0.00  0.00    +0.000 C 
ATOM     16  C   UNL     1      -0.080  11.727  20.489  0.00  0.00    +0.000 C 
ATOM     17  C   UNL     1       0.142  12.196  19.042  0.00  0.00    +0.000 C 
ATOM     18  C   UNL     1      -1.105  11.849  18.214  0.00  0.00    +0.000 C 
ATOM     19  C   UNL     1      -1.328  10.333  18.224  0.00  0.00    +0.000 C 
ATOM     20  C   UNL     1      -1.517   9.839  19.669  0.00  0.00    +0.000 C 
ATOM     21  C   UNL     1      -0.096   9.645  17.618  0.00  0.00    +0.000 C 
ATOM     22  C   UNL     1       1.373  11.473  18.457  0.00  0.00    +0.000 C 
ENDBRANCH   8  13
BRANCH   5  23
ATOM     23  C   UNL     1       2.141   4.248  21.051  0.00  0.00    +0.000 C 
ATOM     24  C   UNL     1       0.820   3.870  20.355  0.00  0.00    +0.000 C 
ATOM     25  C   UNL     1       0.877   3.731  18.833  0.00  0.00    +0.000 C 
ATOM     26  C   UNL     1       1.274   2.328  18.381  0.00  0.00    +0.000 C 
ATOM     27  C   UNL     1       2.738   1.982  18.619  0.00  0.00    +0.000 C 
ATOM     28  C   UNL     1       3.183   2.066  20.079  0.00  0.00    +0.000 C 
ATOM     29  C   UNL     1       3.394   3.502  20.560  0.00  0.00    +0.000 C 
ENDBRANCH   5  23
BRANCH   1  30
ATOM     30  C   UNL     1       5.006   6.053  15.643  0.00  0.00    +0.000 C 
BRANCH  30  31
ATOM     31  C   UNL     1       6.501   5.768  15.508  0.00  0.00    +0.000 C 
BRANCH  31  32
ATOM     32  C   UNL     1       7.183   5.289  16.797  0.00  0.00    +0.000 C 
BRANCH  32  33
ATOM     33  N   UNL     1       7.878   6.331  17.577  0.00  0.00    +0.000 NA
BRANCH  33  35
ATOM     34  C   UNL     1       8.135   8.818  17.910  0.00  0.00    +0.000 C 
ATOM     35  C   UNL     1       7.293   7.666  17.368  0.00  0.00    +0.000 C 
ENDBRANCH  33  35
BRANCH  33  36
ATOM     36  C   UNL     1       7.984   5.943  18.997  0.00  0.00    +0.000 C 
ATOM     37  C   UNL     1       6.735   5.329  19.628  0.00  0.00    +0.000 C 
ENDBRANCH  33  36
ENDBRANCH  32  33
ENDBRANCH  31  32
ENDBRANCH  30  31
ENDBRANCH   1  30
TORSDOF 8
ENDMDL
MODEL 6
REMARK VINA RESULT:      -7.1      0.548      1.701
REMARK  Name = 
REMARK  10 active torsions:
REMARK  status: ('A' for Active; 'I' for Inactive)
REMARK    1  A    between atoms: C_1  and  C_2
REMARK    2  A    between atoms: C_2  and  N_3
REMARK    3  A    between atoms: N_3  and  C_4
REMARK    4  A    between atoms: N_3  and  C_6
REMARK    5  A    between atoms: C_4  and  C_5
REMARK    6  A    between atoms: C_6  and  C_7
REMARK    7  A    between atoms: C_7  and  C_8
REMARK    8  A    between atoms: C_8  and  N_9
REMARK    9  A    between atoms: N_13  and  C_14
REMARK   10  A    between atoms: N_23  and  C_24
REMARK                            x       y       z     vdW  Elec       q    Type
REMARK                         _______ _______ _______ _____ _____    ______ ____
ROOT
ATOM      1  N   UNL     1       7.615   7.583  16.837  0.00  0.00    +0.000 N 
ATOM      2  C   UNL     1       6.821   6.456  16.994  0.00  0.00    +0.000 A 
ATOM      3  N   UNL     1       6.599   5.746  15.901  0.00  0.00    +0.000 NA
ATOM      4  C   UNL     1       5.922   4.620  16.067  0.00  0.00    +0.000 A 
ATOM      5  N   UNL     1       5.705   3.751  15.012  0.00  0.00    +0.000 N 
ATOM      6  N   UNL     1       5.386   4.252  17.228  0.00  0.00    +0.000 NA
ATOM      7  C   UNL     1       5.562   5.082  18.243  0.00  0.00    +0.000 A 
ATOM      8  N   UNL     1       4.920   4.898  19.452  0.00  0.00    +0.000 N 
ATOM      9  N   UNL     1       6.308   6.169  18.184  0.00  0.00    +0.000 NA
ATOM     10  H   UNL     1       7.202   8.134  16.090  0.00  0.00    +0.000 HD
ATOM     11  H   UNL     1       4.931   3.143  15.248  0.00  0.00    +0.000 HD
ATOM     12  H   UNL     1       5.040   5.743  19.999  0.00  0.00    +0.000 HD
ENDROOT
BRANCH   8  13
ATOM     13  C   UNL     1       3.642   4.203  19.576  0.00  0.00    +0.000 C 
ATOM     14  C   UNL     1       2.766   4.541  18.349  0.00  0.00    +0.000 C 
ATOM     15  C   UNL     1       1.437   3.775  18.411  0.00  0.00    +0.000 C 
ATOM     16  C   UNL     1       1.717   2.264  18.398  0.00  0.00    +0.000 C 
ATOM     17  C   UNL     1       2.586   1.880  19.605  0.00  0.00    +0.000 C 
ATOM     18  C   UNL     1       1.826   2.234  20.894  0.00  0.00    +0.000 C 
ATOM     19  C   UNL     1       1.547   3.740  20.933  0.00  0.00    +0.000 C 
ATOM     20  C   UNL     1       0.706   4.151  19.710  0.00  0.00    +0.000 C 
ATOM     21  C   UNL     1       2.883   4.495  20.896  0.00  0.00    +0.000 C 
ATOM     22  C   UNL     1       3.910   2.668  19.550  0.00  0.00    +0.000 C 
ENDBRANCH   8  13
BRANCH   5  23
ATOM     23  C   UNL     1       5.789   4.241  13.638  0.00  0.00    +0.000 C 
ATOM     24  C   UNL     1       6.887   3.442  12.910  0.00  0.00    +0.000 C 
ATOM     25  C   UNL     1       6.487   2.057  12.403  0.00  0.00    +0.000 C 
ATOM     26  C   UNL     1       5.877   2.091  11.004  0.00  0.00    +0.000 C 
ATOM     27  C   UNL     1       4.475   2.685  10.945  0.00  0.00    +0.000 C 
ATOM     28  C   UNL     1       4.369   4.121  11.456  0.00  0.00    +0.000 C 
ATOM     29  C   UNL     1       4.397   4.218  12.982  0.00  0.00    +0.000 C 
ENDBRANCH   5  23
BRANCH   1  30
ATOM     30  C   UNL     1       7.936   8.324  18.045  0.00  0.00    +0.000 C 
BRANCH  30  31
ATOM     31  C   UNL     1       8.545   9.676  17.674  0.00  0.00    +0.000 C 
BRANCH  31  32
ATOM     32  C   UNL     1       9.312  10.368  18.808  0.00  0.00    +0.000 C 
BRANCH  32  33
ATOM     33  N   UNL     1       9.272  11.843  18.798  0.00  0.00    +0.000 NA
BRANCH  33  35
ATOM     34  C   UNL     1      11.410  12.322  17.547  0.00  0.00    +0.000 C 
ATOM     35  C   UNL     1      10.619  12.437  18.848  0.00  0.00    +0.000 C 
ENDBRANCH  33  35
BRANCH  33  36
ATOM     36  C   UNL     1       8.444  12.340  17.682  0.00  0.00    +0.000 C 
ATOM     37  C   UNL     1       7.935  13.776  17.802  0.00  0.00    +0.000 C 
ENDBRANCH  33  36
ENDBRANCH  32  33
ENDBRANCH  31  32
ENDBRANCH  30  31
ENDBRANCH   1  30
TORSDOF 8
ENDMDL
MODEL 7
REMARK VINA RESULT:      -7.1      3.967      6.926
REMARK  Name = 
REMARK  10 active torsions:
REMARK  status: ('A' for Active; 'I' for Inactive)
REMARK    1  A    between atoms: C_1  and  C_2
REMARK    2  A    between atoms: C_2  and  N_3
REMARK    3  A    between atoms: N_3  and  C_4
REMARK    4  A    between atoms: N_3  and  C_6
REMARK    5  A    between atoms: C_4  and  C_5
REMARK    6  A    between atoms: C_6  and  C_7
REMARK    7  A    between atoms: C_7  and  C_8
REMARK    8  A    between atoms: C_8  and  N_9
REMARK    9  A    between atoms: N_13  and  C_14
REMARK   10  A    between atoms: N_23  and  C_24
REMARK                            x       y       z     vdW  Elec       q    Type
REMARK                         _______ _______ _______ _____ _____    ______ ____
ROOT
ATOM      1  N   UNL     1       4.388   5.217  16.676  0.00  0.00    +0.000 N 
ATOM      2  C   UNL     1       3.738   5.988  17.629  0.00  0.00    +0.000 A 
ATOM      3  N   UNL     1       3.388   5.363  18.740  0.00  0.00    +0.000 NA
ATOM      4  C   UNL     1       2.855   6.118  19.688  0.00  0.00    +0.000 A 
ATOM      5  N   UNL     1       2.529   5.592  20.926  0.00  0.00    +0.000 N 
ATOM      6  N   UNL     1       2.570   7.407  19.524  0.00  0.00    +0.000 NA
ATOM      7  C   UNL     1       2.851   7.922  18.339  0.00  0.00    +0.000 A 
ATOM      8  N   UNL     1       2.454   9.199  17.988  0.00  0.00    +0.000 N 
ATOM      9  N   UNL     1       3.475   7.265  17.380  0.00  0.00    +0.000 NA
ATOM     10  H   UNL     1       3.801   4.408  16.499  0.00  0.00    +0.000 HD
ATOM     11  H   UNL     1       1.867   6.211  21.376  0.00  0.00    +0.000 HD
ATOM     12  H   UNL     1       2.595   9.304  16.990  0.00  0.00    +0.000 HD
ENDROOT
BRANCH   8  13
ATOM     13  C   UNL     1       1.286   9.856  18.567  0.00  0.00    +0.000 C 
ATOM     14  C   UNL     1       1.520  11.383  18.571  0.00  0.00    +0.000 C 
ATOM     15  C   UNL     1       0.284  12.114  19.114  0.00  0.00    +0.000 C 
ATOM     16  C   UNL     1      -0.923  11.817  18.210  0.00  0.00    +0.000 C 
ATOM     17  C   UNL     1      -1.195  10.305  18.176  0.00  0.00    +0.000 C 
ATOM     18  C   UNL     1      -1.513   9.829  19.603  0.00  0.00    +0.000 C 
ATOM     19  C   UNL     1      -0.317  10.105  20.520  0.00  0.00    +0.000 C 
ATOM     20  C   UNL     1      -0.005  11.612  20.538  0.00  0.00    +0.000 C 
ATOM     21  C   UNL     1       0.907   9.349  19.982  0.00  0.00    +0.000 C 
ATOM     22  C   UNL     1       0.058   9.574  17.652  0.00  0.00    +0.000 C 
ENDBRANCH   8  13
BRANCH   5  23
ATOM     23  C   UNL     1       2.322   4.152  21.072  0.00  0.00    +0.000 C 
ATOM     24  C   UNL     1       0.904   3.819  20.571  0.00  0.00    +0.000 C 
ATOM     25  C   UNL     1       0.737   3.699  19.056  0.00  0.00    +0.000 C 
ATOM     26  C   UNL     1       1.026   2.293  18.537  0.00  0.00    +0.000 C 
ATOM     27  C   UNL     1       2.499   1.906  18.559  0.00  0.00    +0.000 C 
ATOM     28  C   UNL     1       3.152   1.958  19.940  0.00  0.00    +0.000 C 
ATOM     29  C   UNL     1       3.470   3.381  20.399  0.00  0.00    +0.000 C 
ENDBRANCH   5  23
BRANCH   1  30
ATOM     30  C   UNL     1       4.854   5.912  15.487  0.00  0.00    +0.000 C 
BRANCH  30  31
ATOM     31  C   UNL     1       6.326   5.585  15.243  0.00  0.00    +0.000 C 
BRANCH  31  32
ATOM     32  C   UNL     1       7.048   4.944  16.436  0.00  0.00    +0.000 C 
BRANCH  32  33
ATOM     33  N   UNL     1       7.750   5.880  17.335  0.00  0.00    +0.000 NA
BRANCH  33  35
ATOM     34  C   UNL     1       8.080   8.338  17.796  0.00  0.00    +0.000 C 
ATOM     35  C   UNL     1       7.152   7.226  17.315  0.00  0.00    +0.000 C 
ENDBRANCH  33  35
BRANCH  33  36
ATOM     36  C   UNL     1       7.884   5.309  18.689  0.00  0.00    +0.000 C 
ATOM     37  C   UNL     1       6.654   5.405  19.591  0.00  0.00    +0.000 C 
ENDBRANCH  33  36
ENDBRANCH  32  33
ENDBRANCH  31  32
ENDBRANCH  30  31
ENDBRANCH   1  30
TORSDOF 8
ENDMDL
MODEL 8
REMARK VINA RESULT:      -7.0      3.872      8.042
REMARK  Name = 
REMARK  10 active torsions:
REMARK  status: ('A' for Active; 'I' for Inactive)
REMARK    1  A    between atoms: C_1  and  C_2
REMARK    2  A    between atoms: C_2  and  N_3
REMARK    3  A    between atoms: N_3  and  C_4
REMARK    4  A    between atoms: N_3  and  C_6
REMARK    5  A    between atoms: C_4  and  C_5
REMARK    6  A    between atoms: C_6  and  C_7
REMARK    7  A    between atoms: C_7  and  C_8
REMARK    8  A    between atoms: C_8  and  N_9
REMARK    9  A    between atoms: N_13  and  C_14
REMARK   10  A    between atoms: N_23  and  C_24
REMARK                            x       y       z     vdW  Elec       q    Type
REMARK                         _______ _______ _______ _____ _____    ______ ____
ROOT
ATOM      1  N   UNL     1       4.666   5.201  16.576  0.00  0.00    +0.000 N 
ATOM      2  C   UNL     1       3.986   5.943  17.531  0.00  0.00    +0.000 A 
ATOM      3  N   UNL     1       3.627   5.291  18.624  0.00  0.00    +0.000 NA
ATOM      4  C   UNL     1       3.064   6.020  19.576  0.00  0.00    +0.000 A 
ATOM      5  N   UNL     1       2.726   5.465  20.798  0.00  0.00    +0.000 N 
ATOM      6  N   UNL     1       2.761   7.307  19.430  0.00  0.00    +0.000 NA
ATOM      7  C   UNL     1       3.053   7.848  18.260  0.00  0.00    +0.000 A 
ATOM      8  N   UNL     1       2.642   9.124  17.925  0.00  0.00    +0.000 N 
ATOM      9  N   UNL     1       3.705   7.219  17.300  0.00  0.00    +0.000 NA
ATOM     10  H   UNL     1       4.096   4.384  16.374  0.00  0.00    +0.000 HD
ATOM     11  H   UNL     1       2.046   6.065  21.248  0.00  0.00    +0.000 HD
ATOM     12  H   UNL     1       2.798   9.250  16.932  0.00  0.00    +0.000 HD
ENDROOT
BRANCH   8  13
ATOM     13  C   UNL     1       1.453   9.751  18.495  0.00  0.00    +0.000 C 
ATOM     14  C   UNL     1       1.650  11.283  18.507  0.00  0.00    +0.000 C 
ATOM     15  C   UNL     1       0.391  11.982  19.040  0.00  0.00    +0.000 C 
ATOM     16  C   UNL     1      -0.800  11.660  18.123  0.00  0.00    +0.000 C 
ATOM     17  C   UNL     1      -1.035  10.142  18.081  0.00  0.00    +0.000 C 
ATOM     18  C   UNL     1      -1.356   9.653  19.503  0.00  0.00    +0.000 C 
ATOM     19  C   UNL     1      -0.175   9.954  20.432  0.00  0.00    +0.000 C 
ATOM     20  C   UNL     1       0.100  11.468  20.459  0.00  0.00    +0.000 C 
ATOM     21  C   UNL     1       1.072   9.230  19.904  0.00  0.00    +0.000 C 
ATOM     22  C   UNL     1       0.240   9.443  17.566  0.00  0.00    +0.000 C 
ENDBRANCH   8  13
BRANCH   5  23
ATOM     23  C   UNL     1       2.541   4.020  20.915  0.00  0.00    +0.000 C 
ATOM     24  C   UNL     1       1.063   3.701  20.619  0.00  0.00    +0.000 C 
ATOM     25  C   UNL     1       0.670   3.643  19.143  0.00  0.00    +0.000 C 
ATOM     26  C   UNL     1       0.875   2.260  18.529  0.00  0.00    +0.000 C 
ATOM     27  C   UNL     1       2.334   1.879  18.313  0.00  0.00    +0.000 C 
ATOM     28  C   UNL     1       3.187   1.878  19.581  0.00  0.00    +0.000 C 
ATOM     29  C   UNL     1       3.573   3.283  20.045  0.00  0.00    +0.000 C 
ENDBRANCH   5  23
BRANCH   1  30
ATOM     30  C   UNL     1       5.140   5.924  15.408  0.00  0.00    +0.000 C 
BRANCH  30  31
ATOM     31  C   UNL     1       6.090   5.038  14.604  0.00  0.00    +0.000 C 
BRANCH  31  32
ATOM     32  C   UNL     1       5.414   3.877  13.863  0.00  0.00    +0.000 C 
BRANCH  32  33
ATOM     33  N   UNL     1       5.572   3.876  12.396  0.00  0.00    +0.000 NA
BRANCH  33  35
ATOM     34  C   UNL     1       7.238   2.310  11.332  0.00  0.00    +0.000 C 
ATOM     35  C   UNL     1       6.970   3.663  11.987  0.00  0.00    +0.000 C 
ENDBRANCH  33  35
BRANCH  33  36
ATOM     36  C   UNL     1       4.618   2.945  11.764  0.00  0.00    +0.000 C 
ATOM     37  C   UNL     1       3.659   3.548  10.738  0.00  0.00    +0.000 C 
ENDBRANCH  33  36
ENDBRANCH  32  33
ENDBRANCH  31  32
ENDBRANCH  30  31
ENDBRANCH   1  30
TORSDOF 8
ENDMDL
MODEL 9
REMARK VINA RESULT:      -7.0      3.859      8.056
REMARK  Name = 
REMARK  10 active torsions:
REMARK  status: ('A' for Active; 'I' for Inactive)
REMARK    1  A    between atoms: C_1  and  C_2
REMARK    2  A    between atoms: C_2  and  N_3
REMARK    3  A    between atoms: N_3  and  C_4
REMARK    4  A    between atoms: N_3  and  C_6
REMARK    5  A    between atoms: C_4  and  C_5
REMARK    6  A    between atoms: C_6  and  C_7
REMARK    7  A    between atoms: C_7  and  C_8
REMARK    8  A    between atoms: C_8  and  N_9
REMARK    9  A    between atoms: N_13  and  C_14
REMARK   10  A    between atoms: N_23  and  C_24
REMARK                            x       y       z     vdW  Elec       q    Type
REMARK                         _______ _______ _______ _____ _____    ______ ____
ROOT
ATOM      1  N   UNL     1       4.718   5.176  16.587  0.00  0.00    +0.000 N 
ATOM      2  C   UNL     1       4.023   5.925  17.526  0.00  0.00    +0.000 A 
ATOM      3  N   UNL     1       3.656   5.285  18.623  0.00  0.00    +0.000 NA
ATOM      4  C   UNL     1       3.079   6.021  19.560  0.00  0.00    +0.000 A 
ATOM      5  N   UNL     1       2.730   5.480  20.784  0.00  0.00    +0.000 N 
ATOM      6  N   UNL     1       2.770   7.305  19.395  0.00  0.00    +0.000 NA
ATOM      7  C   UNL     1       3.072   7.834  18.221  0.00  0.00    +0.000 A 
ATOM      8  N   UNL     1       2.656   9.103  17.867  0.00  0.00    +0.000 N 
ATOM      9  N   UNL     1       3.738   7.197  17.277  0.00  0.00    +0.000 NA
ATOM     10  H   UNL     1       4.155   4.354  16.390  0.00  0.00    +0.000 HD
ATOM     11  H   UNL     1       2.042   6.081  21.219  0.00  0.00    +0.000 HD
ATOM     12  H   UNL     1       2.823   9.218  16.874  0.00  0.00    +0.000 HD
ENDROOT
BRANCH   8  13
ATOM     13  C   UNL     1       1.457   9.730  18.416  0.00  0.00    +0.000 C 
ATOM     14  C   UNL     1       1.278   9.271  19.880  0.00  0.00    +0.000 C 
ATOM     15  C   UNL     1       0.061   9.961  20.513  0.00  0.00    +0.000 C 
ATOM     16  C   UNL     1       0.278  11.482  20.511  0.00  0.00    +0.000 C 
ATOM     17  C   UNL     1       0.461  11.986  19.071  0.00  0.00    +0.000 C 
ATOM     18  C   UNL     1      -0.812  11.664  18.271  0.00  0.00    +0.000 C 
ATOM     19  C   UNL     1      -1.041  10.149  18.249  0.00  0.00    +0.000 C 
ATOM     20  C   UNL     1      -1.190   9.620  19.687  0.00  0.00    +0.000 C 
ATOM     21  C   UNL     1       0.170   9.472  17.592  0.00  0.00    +0.000 C 
ATOM     22  C   UNL     1       1.671  11.273  18.433  0.00  0.00    +0.000 C 
ENDBRANCH   8  13
BRANCH   5  23
ATOM     23  C   UNL     1       2.552   4.036  20.917  0.00  0.00    +0.000 C 
ATOM     24  C   UNL     1       1.079   3.704  20.611  0.00  0.00    +0.000 C 
ATOM     25  C   UNL     1       0.700   3.626  19.132  0.00  0.00    +0.000 C 
ATOM     26  C   UNL     1       0.919   2.237  18.537  0.00  0.00    +0.000 C 
ATOM     27  C   UNL     1       2.382   1.862  18.339  0.00  0.00    +0.000 C 
ATOM     28  C   UNL     1       3.223   1.881  19.615  0.00  0.00    +0.000 C 
ATOM     29  C   UNL     1       3.597   3.293  20.065  0.00  0.00    +0.000 C 
ENDBRANCH   5  23
BRANCH   1  30
ATOM     30  C   UNL     1       5.201   5.888  15.416  0.00  0.00    +0.000 C 
BRANCH  30  31
ATOM     31  C   UNL     1       6.078   4.961  14.575  0.00  0.00    +0.000 C 
BRANCH  31  32
ATOM     32  C   UNL     1       5.312   3.879  13.802  0.00  0.00    +0.000 C 
BRANCH  32  33
ATOM     33  N   UNL     1       5.602   3.801  12.357  0.00  0.00    +0.000 NA
BRANCH  33  35
ATOM     34  C   UNL     1       7.257   2.261  11.240  0.00  0.00    +0.000 C 
ATOM     35  C   UNL     1       7.019   3.507  12.088  0.00  0.00    +0.000 C 
ENDBRANCH  33  35
BRANCH  33  36
ATOM     36  C   UNL     1       4.665   2.882  11.682  0.00  0.00    +0.000 C 
ATOM     37  C   UNL     1       3.631   3.525  10.759  0.00  0.00    +0.000 C 
ENDBRANCH  33  36
ENDBRANCH  32  33
ENDBRANCH  31  32
ENDBRANCH  30  31
ENDBRANCH   1  30
TORSDOF 8
ENDMDL
