MODEL 1
REMARK VINA RESULT:      -7.4      0.000      0.000
REMARK  Name = 
REMARK  2 active torsions:
REMARK  status: ('A' for Active; 'I' for Inactive)
REMARK    1  A    between atoms: C_2  and  C_4
REMARK    2  A    between atoms: C_9  and  C_10
REMARK                            x       y       z     vdW  Elec       q    Type
REMARK                         _______ _______ _______ _____ _____    ______ ____
ROOT
ATOM      1  C   UNL     1       5.604   4.751  15.729  0.00  0.00    +0.000 A 
ATOM      2  C   UNL     1       5.146   3.642  16.436  0.00  0.00    +0.000 A 
ATOM      3  C   UNL     1       4.206   3.793  17.462  0.00  0.00    +0.000 A 
ATOM      4  C   UNL     1       3.728   5.083  17.764  0.00  0.00    +0.000 A 
ATOM      5  S   UNL     1       2.579   5.517  18.970  0.00  0.00    +0.000 S 
ATOM      6  C   UNL     1       2.670   7.188  18.601  0.00  0.00    +0.000 A 
ATOM      7  C   UNL     1       3.554   7.401  17.560  0.00  0.00    +0.000 A 
ATOM      8  C   UNL     1       4.176   6.208  17.071  0.00  0.00    +0.000 A 
ATOM      9  C   UNL     1       5.131   6.031  16.043  0.00  0.00    +0.000 A 
ENDROOT
BRANCH   1  11
ATOM     10  N   UNL     1       6.450   3.674  13.754  0.00  0.00    +0.000 NA
ATOM     11  C   UNL     1       6.611   4.601  14.640  0.00  0.00    +0.000 C 
ATOM     12  N   UNL     1       7.703   5.417  14.592  0.00  0.00    +0.000 N 
ATOM     13  H   UNL     1       7.196   3.722  13.059  0.00  0.00    +0.000 HD
ATOM     14  H   UNL     1       8.485   5.065  14.052  0.00  0.00    +0.000 HD
ATOM     15  H   UNL     1       8.011   5.788  15.487  0.00  0.00    +0.000 HD
ENDBRANCH   1  11
BRANCH   6  16
ATOM     16  C   UNL     1       1.871   8.187  19.332  0.00  0.00    +0.000 A 
ATOM     17  C   UNL     1       1.541   8.042  20.683  0.00  0.00    +0.000 A 
ATOM     18  C   UNL     1       0.817   9.046  21.309  0.00  0.00    +0.000 A 
ATOM     19  N   UNL     1       0.404  10.172  20.693  0.00  0.00    +0.000 NA
ATOM     20  C   UNL     1       0.726  10.299  19.391  0.00  0.00    +0.000 A 
ATOM     21  C   UNL     1       1.442   9.350  18.680  0.00  0.00    +0.000 A 
ENDBRANCH   6  16
TORSDOF 2
ENDMDL
MODEL 2
REMARK VINA RESULT:      -7.4      0.178      1.119
REMARK  Name = 
REMARK  2 active torsions:
REMARK  status: ('A' for Active; 'I' for Inactive)
REMARK    1  A    between atoms: C_2  and  C_4
REMARK    2  A    between atoms: C_9  and  C_10
REMARK                            x       y       z     vdW  Elec       q    Type
REMARK                         _______ _______ _______ _____ _____    ______ ____
ROOT
ATOM      1  C   UNL     1       5.511   4.728  15.849  0.00  0.00    +0.000 A 
ATOM      2  C   UNL     1       5.013   3.620  16.532  0.00  0.00    +0.000 A 
ATOM      3  C   UNL     1       4.064   3.779  17.547  0.00  0.00    +0.000 A 
ATOM      4  C   UNL     1       3.616   5.076  17.864  0.00  0.00    +0.000 A 
ATOM      5  S   UNL     1       2.462   5.520  19.061  0.00  0.00    +0.000 S 
ATOM      6  C   UNL     1       2.602   7.195  18.722  0.00  0.00    +0.000 A 
ATOM      7  C   UNL     1       3.505   7.401  17.696  0.00  0.00    +0.000 A 
ATOM      8  C   UNL     1       4.102   6.200  17.196  0.00  0.00    +0.000 A 
ATOM      9  C   UNL     1       5.066   6.015  16.178  0.00  0.00    +0.000 A 
ENDROOT
BRANCH   1  11
ATOM     10  N   UNL     1       6.380   3.629  13.897  0.00  0.00    +0.000 NA
ATOM     11  C   UNL     1       6.528   4.569  14.771  0.00  0.00    +0.000 C 
ATOM     12  N   UNL     1       7.616   5.391  14.722  0.00  0.00    +0.000 N 
ATOM     13  H   UNL     1       7.132   3.673  13.208  0.00  0.00    +0.000 HD
ATOM     14  H   UNL     1       8.404   5.036  14.194  0.00  0.00    +0.000 HD
ATOM     15  H   UNL     1       7.913   5.776  15.614  0.00  0.00    +0.000 HD
ENDBRANCH   1  11
BRANCH   6  16
ATOM     16  C   UNL     1       1.818   8.202  19.458  0.00  0.00    +0.000 A 
ATOM     17  C   UNL     1       1.344   9.372  18.858  0.00  0.00    +0.000 A 
ATOM     18  C   UNL     1       0.581  10.252  19.610  0.00  0.00    +0.000 A 
ATOM     19  N   UNL     1       0.257  10.051  20.903  0.00  0.00    +0.000 NA
ATOM     20  C   UNL     1       0.721   8.921  21.472  0.00  0.00    +0.000 A 
ATOM     21  C   UNL     1       1.493   7.985  20.803  0.00  0.00    +0.000 A 
ENDBRANCH   6  16
TORSDOF 2
ENDMDL
MODEL 3
REMARK VINA RESULT:      -7.3      3.159      7.414
REMARK  Name = 
REMARK  2 active torsions:
REMARK  status: ('A' for Active; 'I' for Inactive)
REMARK    1  A    between atoms: C_2  and  C_4
REMARK    2  A    between atoms: C_9  and  C_10
REMARK                            x       y       z     vdW  Elec       q    Type
REMARK                         _______ _______ _______ _____ _____    ______ ____
ROOT
ATOM      1  C   UNL     1       2.722   3.974  19.867  0.00  0.00    +0.000 A 
ATOM      2  C   UNL     1       2.878   5.353  19.986  0.00  0.00    +0.000 A 
ATOM      3  C   UNL     1       3.566   6.076  19.005  0.00  0.00    +0.000 A 
ATOM      4  C   UNL     1       4.093   5.388  17.894  0.00  0.00    +0.000 A 
ATOM      5  S   UNL     1       4.967   6.054  16.570  0.00  0.00    +0.000 S 
ATOM      6  C   UNL     1       5.179   4.532  15.812  0.00  0.00    +0.000 A 
ATOM      7  C   UNL     1       4.573   3.537  16.556  0.00  0.00    +0.000 A 
ATOM      8  C   UNL     1       3.951   4.007  17.757  0.00  0.00    +0.000 A 
ATOM      9  C   UNL     1       3.258   3.297  18.764  0.00  0.00    +0.000 A 
ENDROOT
BRANCH   1  11
ATOM     10  N   UNL     1       2.654   2.732  21.923  0.00  0.00    +0.000 NA
ATOM     11  C   UNL     1       1.998   3.194  20.911  0.00  0.00    +0.000 C 
ATOM     12  N   UNL     1       0.661   2.951  20.787  0.00  0.00    +0.000 N 
ATOM     13  H   UNL     1       2.017   2.257  22.564  0.00  0.00    +0.000 HD
ATOM     14  H   UNL     1       0.310   2.169  21.328  0.00  0.00    +0.000 HD
ATOM     15  H   UNL     1       0.307   2.928  19.835  0.00  0.00    +0.000 HD
ENDBRANCH   1  11
BRANCH   6  16
ATOM     16  C   UNL     1       5.905   4.397  14.537  0.00  0.00    +0.000 A 
ATOM     17  C   UNL     1       5.444   3.593  13.490  0.00  0.00    +0.000 A 
ATOM     18  C   UNL     1       6.165   3.549  12.307  0.00  0.00    +0.000 A 
ATOM     19  N   UNL     1       7.302   4.243  12.093  0.00  0.00    +0.000 NA
ATOM     20  C   UNL     1       7.738   5.013  13.109  0.00  0.00    +0.000 A 
ATOM     21  C   UNL     1       7.087   5.118  14.328  0.00  0.00    +0.000 A 
ENDBRANCH   6  16
TORSDOF 2
ENDMDL
MODEL 4
REMARK VINA RESULT:      -7.3      3.689      4.293
REMARK  Name = 
REMARK  2 active torsions:
REMARK  status: ('A' for Active; 'I' for Inactive)
REMARK    1  A    between atoms: C_2  and  C_4
REMARK    2  A    between atoms: C_9  and  C_10
REMARK                            x       y       z     vdW  Elec       q    Type
REMARK                         _______ _______ _______ _____ _____    ______ ____
ROOT
ATOM      1  C   UNL     1       6.573   4.372  14.499  0.00  0.00    +0.000 A 
ATOM      2  C   UNL     1       7.440   5.096  15.317  0.00  0.00    +0.000 A 
ATOM      3  C   UNL     1       7.152   5.273  16.675  0.00  0.00    +0.000 A 
ATOM      4  C   UNL     1       5.976   4.705  17.202  0.00  0.00    +0.000 A 
ATOM      5  S   UNL     1       5.414   4.784  18.827  0.00  0.00    +0.000 S 
ATOM      6  C   UNL     1       3.998   3.878  18.489  0.00  0.00    +0.000 A 
ATOM      7  C   UNL     1       3.972   3.510  17.158  0.00  0.00    +0.000 A 
ATOM      8  C   UNL     1       5.093   3.980  16.401  0.00  0.00    +0.000 A 
ATOM      9  C   UNL     1       5.402   3.820  15.031  0.00  0.00    +0.000 A 
ENDROOT
BRANCH   1  11
ATOM     10  N   UNL     1       6.377   3.161  12.433  0.00  0.00    +0.000 NA
ATOM     11  C   UNL     1       6.868   4.185  13.050  0.00  0.00    +0.000 C 
ATOM     12  N   UNL     1       7.666   5.071  12.388  0.00  0.00    +0.000 N 
ATOM     13  H   UNL     1       6.635   3.192  11.446  0.00  0.00    +0.000 HD
ATOM     14  H   UNL     1       8.083   4.724  11.532  0.00  0.00    +0.000 HD
ATOM     15  H   UNL     1       8.351   5.555  12.961  0.00  0.00    +0.000 HD
ENDBRANCH   1  11
BRANCH   6  16
ATOM     16  C   UNL     1       3.010   3.569  19.537  0.00  0.00    +0.000 A 
ATOM     17  C   UNL     1       1.673   3.970  19.452  0.00  0.00    +0.000 A 
ATOM     18  C   UNL     1       0.796   3.606  20.462  0.00  0.00    +0.000 A 
ATOM     19  N   UNL     1       1.150   2.876  21.539  0.00  0.00    +0.000 NA
ATOM     20  C   UNL     1       2.441   2.496  21.612  0.00  0.00    +0.000 A 
ATOM     21  C   UNL     1       3.391   2.815  20.654  0.00  0.00    +0.000 A 
ENDBRANCH   6  16
TORSDOF 2
ENDMDL
MODEL 5
REMARK VINA RESULT:      -7.3      3.713      4.197
REMARK  Name = 
REMARK  2 active torsions:
REMARK  status: ('A' for Active; 'I' for Inactive)
REMARK    1  A    between atoms: C_2  and  C_4
REMARK    2  A    between atoms: C_9  and  C_10
REMARK                            x       y       z     vdW  Elec       q    Type
REMARK                         _______ _______ _______ _____ _____    ______ ____
ROOT
ATOM      1  C   UNL     1       6.679   4.590  14.681  0.00  0.00    +0.000 A 
ATOM      2  C   UNL     1       7.501   5.307  15.549  0.00  0.00    +0.000 A 
ATOM      3  C   UNL     1       7.173   5.419  16.905  0.00  0.00    +0.000 A 
ATOM      4  C   UNL     1       6.004   4.793  17.378  0.00  0.00    +0.000 A 
ATOM      5  S   UNL     1       5.399   4.788  18.990  0.00  0.00    +0.000 S 
ATOM      6  C   UNL     1       4.023   3.852  18.579  0.00  0.00    +0.000 A 
ATOM      7  C   UNL     1       4.042   3.537  17.233  0.00  0.00    +0.000 A 
ATOM      8  C   UNL     1       5.166   4.073  16.526  0.00  0.00    +0.000 A 
ATOM      9  C   UNL     1       5.514   3.979  15.159  0.00  0.00    +0.000 A 
ENDROOT
BRANCH   1  11
ATOM     10  N   UNL     1       6.525   3.491  12.550  0.00  0.00    +0.000 NA
ATOM     11  C   UNL     1       7.016   4.472  13.234  0.00  0.00    +0.000 C 
ATOM     12  N   UNL     1       7.851   5.374  12.643  0.00  0.00    +0.000 N 
ATOM     13  H   UNL     1       6.815   3.568  11.574  0.00  0.00    +0.000 HD
ATOM     14  H   UNL     1       8.288   5.063  11.784  0.00  0.00    +0.000 HD
ATOM     15  H   UNL     1       8.526   5.815  13.261  0.00  0.00    +0.000 HD
ENDBRANCH   1  11
BRANCH   6  16
ATOM     16  C   UNL     1       3.019   3.469  19.587  0.00  0.00    +0.000 A 
ATOM     17  C   UNL     1       3.344   2.725  20.726  0.00  0.00    +0.000 A 
ATOM     18  C   UNL     1       2.348   2.437  21.647  0.00  0.00    +0.000 A 
ATOM     19  N   UNL     1       1.066   2.835  21.519  0.00  0.00    +0.000 NA
ATOM     20  C   UNL     1       0.765   3.549  20.417  0.00  0.00    +0.000 A 
ATOM     21  C   UNL     1       1.689   3.883  19.440  0.00  0.00    +0.000 A 
ENDBRANCH   6  16
TORSDOF 2
ENDMDL
MODEL 6
REMARK VINA RESULT:      -7.3      3.177      7.402
REMARK  Name = 
REMARK  2 active torsions:
REMARK  status: ('A' for Active; 'I' for Inactive)
REMARK    1  A    between atoms: C_2  and  C_4
REMARK    2  A    between atoms: C_9  and  C_10
REMARK                            x       y       z     vdW  Elec       q    Type
REMARK                         _______ _______ _______ _____ _____    ______ ____
ROOT
ATOM      1  C   UNL     1       2.741   3.942  19.892  0.00  0.00    +0.000 A 
ATOM      2  C   UNL     1       2.898   5.318  20.042  0.00  0.00    +0.000 A 
ATOM      3  C   UNL     1       3.582   6.063  19.075  0.00  0.00    +0.000 A 
ATOM      4  C   UNL     1       4.105   5.401  17.948  0.00  0.00    +0.000 A 
ATOM      5  S   UNL     1       4.974   6.098  16.636  0.00  0.00    +0.000 S 
ATOM      6  C   UNL     1       5.183   4.593  15.842  0.00  0.00    +0.000 A 
ATOM      7  C   UNL     1       4.580   3.582  16.565  0.00  0.00    +0.000 A 
ATOM      8  C   UNL     1       3.962   4.024  17.779  0.00  0.00    +0.000 A 
ATOM      9  C   UNL     1       3.273   3.291  18.772  0.00  0.00    +0.000 A 
ENDROOT
BRANCH   1  11
ATOM     10  N   UNL     1       2.689   2.613  21.894  0.00  0.00    +0.000 NA
ATOM     11  C   UNL     1       2.021   3.138  20.921  0.00  0.00    +0.000 C 
ATOM     12  N   UNL     1       0.675   2.939  20.822  0.00  0.00    +0.000 N 
ATOM     13  H   UNL     1       2.055   2.129  22.531  0.00  0.00    +0.000 HD
ATOM     14  H   UNL     1       0.315   2.145  21.338  0.00  0.00    +0.000 HD
ATOM     15  H   UNL     1       0.296   2.968  19.880  0.00  0.00    +0.000 HD
ENDBRANCH   1  11
BRANCH   6  16
ATOM     16  C   UNL     1       5.904   4.487  14.561  0.00  0.00    +0.000 A 
ATOM     17  C   UNL     1       7.109   5.155  14.320  0.00  0.00    +0.000 A 
ATOM     18  C   UNL     1       7.746   4.973  13.102  0.00  0.00    +0.000 A 
ATOM     19  N   UNL     1       7.276   4.180  12.117  0.00  0.00    +0.000 NA
ATOM     20  C   UNL     1       6.113   3.544  12.360  0.00  0.00    +0.000 A 
ATOM     21  C   UNL     1       5.402   3.666  13.544  0.00  0.00    +0.000 A 
ENDBRANCH   6  16
TORSDOF 2
ENDMDL
MODEL 7
REMARK VINA RESULT:      -7.1      1.755      7.843
REMARK  Name = 
REMARK  2 active torsions:
REMARK  status: ('A' for Active; 'I' for Inactive)
REMARK    1  A    between atoms: C_2  and  C_4
REMARK    2  A    between atoms: C_9  and  C_10
REMARK                            x       y       z     vdW  Elec       q    Type
REMARK                         _______ _______ _______ _____ _____    ______ ____
ROOT
ATOM      1  C   UNL     1       0.217   9.801  21.654  0.00  0.00    +0.000 A 
ATOM      2  C   UNL     1       0.076  10.680  20.582  0.00  0.00    +0.000 A 
ATOM      3  C   UNL     1       0.638  10.375  19.337  0.00  0.00    +0.000 A 
ATOM      4  C   UNL     1       1.343   9.166  19.184  0.00  0.00    +0.000 A 
ATOM      5  S   UNL     1       2.113   8.577  17.762  0.00  0.00    +0.000 S 
ATOM      6  C   UNL     1       2.670   7.150  18.532  0.00  0.00    +0.000 A 
ATOM      7  C   UNL     1       2.255   7.123  19.850  0.00  0.00    +0.000 A 
ATOM      8  C   UNL     1       1.498   8.273  20.245  0.00  0.00    +0.000 A 
ATOM      9  C   UNL     1       0.928   8.605  21.495  0.00  0.00    +0.000 A 
ENDROOT
BRANCH   1  11
ATOM     10  N   UNL     1       0.089   9.528  24.038  0.00  0.00    +0.000 NA
ATOM     11  C   UNL     1      -0.372  10.120  22.986  0.00  0.00    +0.000 C 
ATOM     12  N   UNL     1      -1.402  11.009  23.091  0.00  0.00    +0.000 N 
ATOM     13  H   UNL     1      -0.387   9.878  24.871  0.00  0.00    +0.000 HD
ATOM     14  H   UNL     1      -1.955  10.934  23.936  0.00  0.00    +0.000 HD
ATOM     15  H   UNL     1      -1.994  11.090  22.269  0.00  0.00    +0.000 HD
ENDBRANCH   1  11
BRANCH   6  16
ATOM     16  C   UNL     1       3.461   6.139  17.809  0.00  0.00    +0.000 A 
ATOM     17  C   UNL     1       3.116   4.785  17.792  0.00  0.00    +0.000 A 
ATOM     18  C   UNL     1       3.891   3.902  17.056  0.00  0.00    +0.000 A 
ATOM     19  N   UNL     1       4.973   4.268  16.339  0.00  0.00    +0.000 NA
ATOM     20  C   UNL     1       5.298   5.575  16.364  0.00  0.00    +0.000 A 
ATOM     21  C   UNL     1       4.587   6.531  17.073  0.00  0.00    +0.000 A 
ENDBRANCH   6  16
TORSDOF 2
ENDMDL
MODEL 8
REMARK VINA RESULT:      -7.0      1.777      7.885
REMARK  Name = 
REMARK  2 active torsions:
REMARK  status: ('A' for Active; 'I' for Inactive)
REMARK    1  A    between atoms: C_2  and  C_4
REMARK    2  A    between atoms: C_9  and  C_10
REMARK                            x       y       z     vdW  Elec       q    Type
REMARK                         _______ _______ _______ _____ _____    ______ ____
ROOT
ATOM      1  C   UNL     1       0.218   9.759  21.655  0.00  0.00    +0.000 A 
ATOM      2  C   UNL     1       0.122  10.671  20.606  0.00  0.00    +0.000 A 
ATOM      3  C   UNL     1       0.705  10.390  19.366  0.00  0.00    +0.000 A 
ATOM      4  C   UNL     1       1.386   9.169  19.193  0.00  0.00    +0.000 A 
ATOM      5  S   UNL     1       2.174   8.603  17.772  0.00  0.00    +0.000 S 
ATOM      6  C   UNL     1       2.680   7.141  18.511  0.00  0.00    +0.000 A 
ATOM      7  C   UNL     1       2.234   7.087  19.818  0.00  0.00    +0.000 A 
ATOM      8  C   UNL     1       1.495   8.242  20.230  0.00  0.00    +0.000 A 
ATOM      9  C   UNL     1       0.904   8.551  21.477  0.00  0.00    +0.000 A 
ENDROOT
BRANCH   1  11
ATOM     10  N   UNL     1      -0.010   9.380  24.018  0.00  0.00    +0.000 NA
ATOM     11  C   UNL     1      -0.393  10.053  22.983  0.00  0.00    +0.000 C 
ATOM     12  N   UNL     1      -1.364  11.005  23.100  0.00  0.00    +0.000 N 
ATOM     13  H   UNL     1      -0.489   9.722  24.852  0.00  0.00    +0.000 HD
ATOM     14  H   UNL     1      -1.949  10.928  23.923  0.00  0.00    +0.000 HD
ATOM     15  H   UNL     1      -1.920  11.166  22.265  0.00  0.00    +0.000 HD
ENDBRANCH   1  11
BRANCH   6  16
ATOM     16  C   UNL     1       3.464   6.134  17.776  0.00  0.00    +0.000 A 
ATOM     17  C   UNL     1       4.612   6.459  17.048  0.00  0.00    +0.000 A 
ATOM     18  C   UNL     1       5.316   5.446  16.415  0.00  0.00    +0.000 A 
ATOM     19  N   UNL     1       4.964   4.145  16.456  0.00  0.00    +0.000 NA
ATOM     20  C   UNL     1       3.855   3.843  17.159  0.00  0.00    +0.000 A 
ATOM     21  C   UNL     1       3.084   4.786  17.822  0.00  0.00    +0.000 A 
ENDBRANCH   6  16
TORSDOF 2
ENDMDL
MODEL 9
REMARK VINA RESULT:      -7.0      2.827      3.692
REMARK  Name = 
REMARK  2 active torsions:
REMARK  status: ('A' for Active; 'I' for Inactive)
REMARK    1  A    between atoms: C_2  and  C_4
REMARK    2  A    between atoms: C_9  and  C_10
REMARK                            x       y       z     vdW  Elec       q    Type
REMARK                         _______ _______ _______ _____ _____    ______ ____
ROOT
ATOM      1  C   UNL     1       3.410   3.870  18.896  0.00  0.00    +0.000 A 
ATOM      2  C   UNL     1       3.719   4.590  17.743  0.00  0.00    +0.000 A 
ATOM      3  C   UNL     1       3.364   5.939  17.634  0.00  0.00    +0.000 A 
ATOM      4  C   UNL     1       2.695   6.558  18.707  0.00  0.00    +0.000 A 
ATOM      5  S   UNL     1       2.163   8.192  18.806  0.00  0.00    +0.000 S 
ATOM      6  C   UNL     1       1.493   7.987  20.370  0.00  0.00    +0.000 A 
ATOM      7  C   UNL     1       1.692   6.692  20.810  0.00  0.00    +0.000 A 
ATOM      8  C   UNL     1       2.373   5.855  19.869  0.00  0.00    +0.000 A 
ATOM      9  C   UNL     1       2.736   4.492  19.954  0.00  0.00    +0.000 A 
ENDROOT
BRANCH   1  11
ATOM     10  N   UNL     1       4.835   2.103  19.686  0.00  0.00    +0.000 NA
ATOM     11  C   UNL     1       3.777   2.430  19.019  0.00  0.00    +0.000 C 
ATOM     12  N   UNL     1       3.018   1.470  18.416  0.00  0.00    +0.000 N 
ATOM     13  H   UNL     1       4.930   1.087  19.711  0.00  0.00    +0.000 HD
ATOM     14  H   UNL     1       3.483   0.584  18.261  0.00  0.00    +0.000 HD
ATOM     15  H   UNL     1       2.511   1.771  17.588  0.00  0.00    +0.000 HD
ENDBRANCH   1  11
BRANCH   6  16
ATOM     16  C   UNL     1       0.830   9.095  21.079  0.00  0.00    +0.000 A 
ATOM     17  C   UNL     1       0.220   8.932  22.327  0.00  0.00    +0.000 A 
ATOM     18  C   UNL     1      -0.349  10.034  22.946  0.00  0.00    +0.000 A 
ATOM     19  N   UNL     1      -0.353  11.275  22.419  0.00  0.00    +0.000 NA
ATOM     20  C   UNL     1       0.235  11.420  21.215  0.00  0.00    +0.000 A 
ATOM     21  C   UNL     1       0.827  10.379  20.518  0.00  0.00    +0.000 A 
ENDBRANCH   6  16
TORSDOF 2
ENDMDL
