MODEL 1
REMARK VINA RESULT:      -8.2      0.000      0.000
REMARK  Name = 
REMARK  7 active torsions:
REMARK  status: ('A' for Active; 'I' for Inactive)
REMARK    1  A    between atoms: C_1  and  C_2
REMARK    2  A    between atoms: C_2  and  C_3
REMARK    3  A    between atoms: C_3  and  C_4
REMARK    4  A    between atoms: C_4  and  C_5
REMARK    5  A    between atoms: C_5  and  N_6
REMARK    6  A    between atoms: N_10  and  C_11
REMARK    7  A    between atoms: C_11  and  C_12
REMARK                            x       y       z     vdW  Elec       q    Type
REMARK                         _______ _______ _______ _____ _____    ______ ____
ROOT
ATOM      1  N   UNL     1       4.691   3.541  16.290  0.00  0.00    +0.000 NA
ATOM      2  C   UNL     1       4.219   4.316  17.209  0.00  0.00    +0.000 A 
ATOM      3  C   UNL     1       4.774   5.643  17.570  0.00  0.00    +0.000 A 
ATOM      4  C   UNL     1       4.176   6.347  18.531  0.00  0.00    +0.000 A 
ATOM      5  N   UNL     1       3.074   5.956  19.269  0.00  0.00    +0.000 N 
ATOM      6  C   UNL     1       2.495   4.686  19.027  0.00  0.00    +0.000 A 
ATOM      7  C   UNL     1       1.401   4.152  19.741  0.00  0.00    +0.000 A 
ATOM      8  F   UNL     1       0.819   4.831  20.741  0.00  0.00    +0.000 F 
ATOM      9  C   UNL     1       0.861   2.893  19.462  0.00  0.00    +0.000 A 
ATOM     10  C   UNL     1       1.393   2.115  18.445  0.00  0.00    +0.000 A 
ATOM     11  C   UNL     1       2.473   2.601  17.713  0.00  0.00    +0.000 A 
ATOM     12  C   UNL     1       3.026   3.864  18.001  0.00  0.00    +0.000 A 
ENDROOT
BRANCH   1  13
ATOM     13  C   UNL     1       5.853   3.962  15.514  0.00  0.00    +0.000 C 
BRANCH  13  14
ATOM     14  C   UNL     1       5.413   4.287  14.088  0.00  0.00    +0.000 C 
BRANCH  14  15
ATOM     15  C   UNL     1       6.452   3.846  13.055  0.00  0.00    +0.000 C 
BRANCH  15  17
ATOM     16  C   UNL     1       4.455   3.366  11.612  0.00  0.00    +0.000 C 
ATOM     17  C   UNL     1       5.845   2.905  12.018  0.00  0.00    +0.000 C 
ENDBRANCH  15  17
ENDBRANCH  14  15
ENDBRANCH  13  14
ENDBRANCH   1  13
BRANCH   5  18
ATOM     18  C   UNL     1       2.553   6.823  20.343  0.00  0.00    +0.000 C 
BRANCH  18  19
ATOM     19  C   UNL     1       1.718   7.990  19.845  0.00  0.00    +0.000 A 
ATOM     20  C   UNL     1       0.888   8.743  20.693  0.00  0.00    +0.000 A 
ATOM     21  C   UNL     1       0.236   9.888  20.231  0.00  0.00    +0.000 A 
ATOM     22  C   UNL     1       0.410  10.294  18.912  0.00  0.00    +0.000 A 
ATOM     23 CL   UNL     1      -0.351  11.734  18.357  0.00  0.00    +0.000 Cl
ATOM     24  C   UNL     1       1.208   9.553  18.046  0.00  0.00    +0.000 A 
ATOM     25  C   UNL     1       1.861   8.408  18.511  0.00  0.00    +0.000 A 
ENDBRANCH  18  19
ENDBRANCH   5  18
TORSDOF 6
ENDMDL
MODEL 2
REMARK VINA RESULT:      -8.0      0.458      1.091
REMARK  Name = 
REMARK  7 active torsions:
REMARK  status: ('A' for Active; 'I' for Inactive)
REMARK    1  A    between atoms: C_1  and  C_2
REMARK    2  A    between atoms: C_2  and  C_3
REMARK    3  A    between atoms: C_3  and  C_4
REMARK    4  A    between atoms: C_4  and  C_5
REMARK    5  A    between atoms: C_5  and  N_6
REMARK    6  A    between atoms: N_10  and  C_11
REMARK    7  A    between atoms: C_11  and  C_12
REMARK                            x       y       z     vdW  Elec       q    Type
REMARK                         _______ _______ _______ _____ _____    ______ ____
ROOT
ATOM      1  N   UNL     1       5.047   3.748  16.464  0.00  0.00    +0.000 NA
ATOM      2  C   UNL     1       4.402   4.437  17.345  0.00  0.00    +0.000 A 
ATOM      3  C   UNL     1       4.785   5.793  17.809  0.00  0.00    +0.000 A 
ATOM      4  C   UNL     1       4.018   6.399  18.715  0.00  0.00    +0.000 A 
ATOM      5  N   UNL     1       2.881   5.880  19.307  0.00  0.00    +0.000 N 
ATOM      6  C   UNL     1       2.456   4.573  18.960  0.00  0.00    +0.000 A 
ATOM      7  C   UNL     1       1.343   3.913  19.524  0.00  0.00    +0.000 A 
ATOM      8  F   UNL     1       0.590   4.494  20.469  0.00  0.00    +0.000 F 
ATOM      9  C   UNL     1       0.961   2.624  19.144  0.00  0.00    +0.000 A 
ATOM     10  C   UNL     1       1.676   1.940  18.172  0.00  0.00    +0.000 A 
ATOM     11  C   UNL     1       2.781   2.552  17.587  0.00  0.00    +0.000 A 
ATOM     12  C   UNL     1       3.175   3.847  17.977  0.00  0.00    +0.000 A 
ENDROOT
BRANCH   1  13
ATOM     13  C   UNL     1       6.245   4.305  15.842  0.00  0.00    +0.000 C 
BRANCH  13  14
ATOM     14  C   UNL     1       5.899   4.794  14.436  0.00  0.00    +0.000 C 
BRANCH  14  15
ATOM     15  C   UNL     1       6.325   3.792  13.362  0.00  0.00    +0.000 C 
BRANCH  15  17
ATOM     16  C   UNL     1       5.537   2.282  11.519  0.00  0.00    +0.000 C 
ATOM     17  C   UNL     1       5.160   3.424  12.447  0.00  0.00    +0.000 C 
ENDBRANCH  15  17
ENDBRANCH  14  15
ENDBRANCH  13  14
ENDBRANCH   1  13
BRANCH   5  18
ATOM     18  C   UNL     1       2.162   6.650  20.339  0.00  0.00    +0.000 C 
BRANCH  18  19
ATOM     19  C   UNL     1       1.730   8.035  19.888  0.00  0.00    +0.000 A 
ATOM     20  C   UNL     1       1.829   8.461  18.552  0.00  0.00    +0.000 A 
ATOM     21  C   UNL     1       1.303   9.690  18.149  0.00  0.00    +0.000 A 
ATOM     22  C   UNL     1       0.670  10.507  19.079  0.00  0.00    +0.000 A 
ATOM     23 CL   UNL     1      -0.024  11.997  18.571  0.00  0.00    +0.000 Cl
ATOM     24  C   UNL     1       0.579  10.118  20.412  0.00  0.00    +0.000 A 
ATOM     25  C   UNL     1       1.104   8.887  20.814  0.00  0.00    +0.000 A 
ENDBRANCH  18  19
ENDBRANCH   5  18
TORSDOF 6
ENDMDL
MODEL 3
REMARK VINA RESULT:      -7.8      1.296      2.491
REMARK  Name = 
REMARK  7 active torsions:
REMARK  status: ('A' for Active; 'I' for Inactive)
REMARK    1  A    between atoms: C_1  and  C_2
REMARK    2  A    between atoms: C_2  and  C_3
REMARK    3  A    between atoms: C_3  and  C_4
REMARK    4  A    between atoms: C_4  and  C_5
REMARK    5  A    between atoms: C_5  and  N_6
REMARK    6  A    between atoms: N_10  and  C_11
REMARK    7  A    between atoms: C_11  and  C_12
REMARK                            x       y       z     vdW  Elec       q    Type
REMARK                         _______ _______ _______ _____ _____    ______ ____
ROOT
ATOM      1  N   UNL     1       4.323   3.983  16.112  0.00  0.00    +0.000 NA
ATOM      2  C   UNL     1       3.854   4.745  17.042  0.00  0.00    +0.000 A 
ATOM      3  C   UNL     1       4.269   6.149  17.281  0.00  0.00    +0.000 A 
ATOM      4  C   UNL     1       3.688   6.828  18.270  0.00  0.00    +0.000 A 
ATOM      5  N   UNL     1       2.727   6.348  19.142  0.00  0.00    +0.000 N 
ATOM      6  C   UNL     1       2.294   5.004  19.020  0.00  0.00    +0.000 A 
ATOM      7  C   UNL     1       1.356   4.383  19.872  0.00  0.00    +0.000 A 
ATOM      8  F   UNL     1       0.798   5.041  20.899  0.00  0.00    +0.000 F 
ATOM      9  C   UNL     1       0.956   3.053  19.708  0.00  0.00    +0.000 A 
ATOM     10  C   UNL     1       1.475   2.289  18.674  0.00  0.00    +0.000 A 
ATOM     11  C   UNL     1       2.402   2.861  17.808  0.00  0.00    +0.000 A 
ATOM     12  C   UNL     1       2.816   4.197  17.979  0.00  0.00    +0.000 A 
ENDROOT
BRANCH   1  13
ATOM     13  C   UNL     1       5.336   4.498  15.195  0.00  0.00    +0.000 C 
BRANCH  13  14
ATOM     14  C   UNL     1       6.705   3.957  15.603  0.00  0.00    +0.000 C 
BRANCH  14  15
ATOM     15  C   UNL     1       7.521   4.994  16.378  0.00  0.00    +0.000 C 
BRANCH  15  17
ATOM     16  C   UNL     1       7.693   5.899  18.713  0.00  0.00    +0.000 C 
ATOM     17  C   UNL     1       7.608   4.643  17.861  0.00  0.00    +0.000 C 
ENDBRANCH  15  17
ENDBRANCH  14  15
ENDBRANCH  13  14
ENDBRANCH   1  13
BRANCH   5  18
ATOM     18  C   UNL     1       2.213   7.204  20.227  0.00  0.00    +0.000 C 
BRANCH  18  19
ATOM     19  C   UNL     1       1.436   8.416  19.743  0.00  0.00    +0.000 A 
ATOM     20  C   UNL     1       1.489   8.867  18.412  0.00  0.00    +0.000 A 
ATOM     21  C   UNL     1       0.663   9.902  17.971  0.00  0.00    +0.000 A 
ATOM     22  C   UNL     1      -0.229  10.498  18.857  0.00  0.00    +0.000 A 
ATOM     23 CL   UNL     1      -1.283  11.737  18.299  0.00  0.00    +0.000 Cl
ATOM     24  C   UNL     1      -0.284  10.085  20.184  0.00  0.00    +0.000 A 
ATOM     25  C   UNL     1       0.542   9.048  20.624  0.00  0.00    +0.000 A 
ENDBRANCH  18  19
ENDBRANCH   5  18
TORSDOF 6
ENDMDL
MODEL 4
REMARK VINA RESULT:      -7.7      3.113      7.214
REMARK  Name = 
REMARK  7 active torsions:
REMARK  status: ('A' for Active; 'I' for Inactive)
REMARK    1  A    between atoms: C_1  and  C_2
REMARK    2  A    between atoms: C_2  and  C_3
REMARK    3  A    between atoms: C_3  and  C_4
REMARK    4  A    between atoms: C_4  and  C_5
REMARK    5  A    between atoms: C_5  and  N_6
REMARK    6  A    between atoms: N_10  and  C_11
REMARK    7  A    between atoms: C_11  and  C_12
REMARK                            x       y       z     vdW  Elec       q    Type
REMARK                         _______ _______ _______ _____ _____    ______ ____
ROOT
ATOM      1  N   UNL     1       1.499   8.065  19.085  0.00  0.00    +0.000 NA
ATOM      2  C   UNL     1       2.492   7.303  18.768  0.00  0.00    +0.000 A 
ATOM      3  C   UNL     1       3.541   7.642  17.775  0.00  0.00    +0.000 A 
ATOM      4  C   UNL     1       4.520   6.765  17.555  0.00  0.00    +0.000 A 
ATOM      5  N   UNL     1       4.662   5.526  18.151  0.00  0.00    +0.000 N 
ATOM      6  C   UNL     1       3.688   5.093  19.084  0.00  0.00    +0.000 A 
ATOM      7  C   UNL     1       3.692   3.836  19.726  0.00  0.00    +0.000 A 
ATOM      8  F   UNL     1       4.648   2.927  19.479  0.00  0.00    +0.000 F 
ATOM      9  C   UNL     1       2.710   3.456  20.645  0.00  0.00    +0.000 A 
ATOM     10  C   UNL     1       1.680   4.327  20.967  0.00  0.00    +0.000 A 
ATOM     11  C   UNL     1       1.635   5.578  20.360  0.00  0.00    +0.000 A 
ATOM     12  C   UNL     1       2.618   5.958  19.425  0.00  0.00    +0.000 A 
ENDROOT
BRANCH   1  13
ATOM     13  C   UNL     1       1.359   9.373  18.452  0.00  0.00    +0.000 C 
BRANCH  13  14
ATOM     14  C   UNL     1       0.702  10.339  19.437  0.00  0.00    +0.000 C 
BRANCH  14  15
ATOM     15  C   UNL     1      -0.825  10.290  19.352  0.00  0.00    +0.000 C 
BRANCH  15  17
ATOM     16  C   UNL     1      -2.279   9.852  17.353  0.00  0.00    +0.000 C 
ATOM     17  C   UNL     1      -1.329  10.835  18.018  0.00  0.00    +0.000 C 
ENDBRANCH  15  17
ENDBRANCH  14  15
ENDBRANCH  13  14
ENDBRANCH   1  13
BRANCH   5  18
ATOM     18  C   UNL     1       5.775   4.638  17.766  0.00  0.00    +0.000 C 
BRANCH  18  19
ATOM     19  C   UNL     1       6.051   4.605  16.272  0.00  0.00    +0.000 A 
ATOM     20  C   UNL     1       7.251   5.080  15.714  0.00  0.00    +0.000 A 
ATOM     21  C   UNL     1       7.526   4.915  14.356  0.00  0.00    +0.000 A 
ATOM     22  C   UNL     1       6.603   4.270  13.539  0.00  0.00    +0.000 A 
ATOM     23 CL   UNL     1       6.967   4.021  11.876  0.00  0.00    +0.000 Cl
ATOM     24  C   UNL     1       5.399   3.812  14.063  0.00  0.00    +0.000 A 
ATOM     25  C   UNL     1       5.126   3.975  15.423  0.00  0.00    +0.000 A 
ENDBRANCH  18  19
ENDBRANCH   5  18
TORSDOF 6
ENDMDL
MODEL 5
REMARK VINA RESULT:      -7.6      2.939      7.423
REMARK  Name = 
REMARK  7 active torsions:
REMARK  status: ('A' for Active; 'I' for Inactive)
REMARK    1  A    between atoms: C_1  and  C_2
REMARK    2  A    between atoms: C_2  and  C_3
REMARK    3  A    between atoms: C_3  and  C_4
REMARK    4  A    between atoms: C_4  and  C_5
REMARK    5  A    between atoms: C_5  and  N_6
REMARK    6  A    between atoms: N_10  and  C_11
REMARK    7  A    between atoms: C_11  and  C_12
REMARK                            x       y       z     vdW  Elec       q    Type
REMARK                         _______ _______ _______ _____ _____    ______ ____
ROOT
ATOM      1  N   UNL     1       1.966   7.440  19.851  0.00  0.00    +0.000 NA
ATOM      2  C   UNL     1       2.590   6.511  19.207  0.00  0.00    +0.000 A 
ATOM      3  C   UNL     1       3.250   6.686  17.890  0.00  0.00    +0.000 A 
ATOM      4  C   UNL     1       3.874   5.642  17.344  0.00  0.00    +0.000 A 
ATOM      5  N   UNL     1       3.958   4.367  17.872  0.00  0.00    +0.000 N 
ATOM      6  C   UNL     1       3.324   4.089  19.109  0.00  0.00    +0.000 A 
ATOM      7  C   UNL     1       3.296   2.822  19.730  0.00  0.00    +0.000 A 
ATOM      8  F   UNL     1       3.881   1.754  19.169  0.00  0.00    +0.000 F 
ATOM      9  C   UNL     1       2.660   2.598  20.955  0.00  0.00    +0.000 A 
ATOM     10  C   UNL     1       2.028   3.641  21.615  0.00  0.00    +0.000 A 
ATOM     11  C   UNL     1       2.030   4.908  21.040  0.00  0.00    +0.000 A 
ATOM     12  C   UNL     1       2.660   5.133  19.800  0.00  0.00    +0.000 A 
ENDROOT
BRANCH   1  13
ATOM     13  C   UNL     1       1.884   8.784  19.287  0.00  0.00    +0.000 C 
BRANCH  13  14
ATOM     14  C   UNL     1       0.644   9.485  19.839  0.00  0.00    +0.000 C 
BRANCH  14  15
ATOM     15  C   UNL     1       0.104   8.789  21.089  0.00  0.00    +0.000 C 
BRANCH  15  17
ATOM     16  C   UNL     1      -0.330   9.894  23.300  0.00  0.00    +0.000 C 
ATOM     17  C   UNL     1       0.734   9.353  22.360  0.00  0.00    +0.000 C 
ENDBRANCH  15  17
ENDBRANCH  14  15
ENDBRANCH  13  14
ENDBRANCH   1  13
BRANCH   5  18
ATOM     18  C   UNL     1       4.639   3.295  17.123  0.00  0.00    +0.000 C 
BRANCH  18  19
ATOM     19  C   UNL     1       5.574   3.798  16.037  0.00  0.00    +0.000 A 
ATOM     20  C   UNL     1       5.293   3.648  14.667  0.00  0.00    +0.000 A 
ATOM     21  C   UNL     1       6.107   4.236  13.698  0.00  0.00    +0.000 A 
ATOM     22  C   UNL     1       7.213   4.983  14.088  0.00  0.00    +0.000 A 
ATOM     23 CL   UNL     1       8.186   5.751  12.895  0.00  0.00    +0.000 Cl
ATOM     24  C   UNL     1       7.525   5.128  15.436  0.00  0.00    +0.000 A 
ATOM     25  C   UNL     1       6.709   4.540  16.405  0.00  0.00    +0.000 A 
ENDBRANCH  18  19
ENDBRANCH   5  18
TORSDOF 6
ENDMDL
MODEL 6
REMARK VINA RESULT:      -7.6      3.976      7.830
REMARK  Name = 
REMARK  7 active torsions:
REMARK  status: ('A' for Active; 'I' for Inactive)
REMARK    1  A    between atoms: C_1  and  C_2
REMARK    2  A    between atoms: C_2  and  C_3
REMARK    3  A    between atoms: C_3  and  C_4
REMARK    4  A    between atoms: C_4  and  C_5
REMARK    5  A    between atoms: C_5  and  N_6
REMARK    6  A    between atoms: N_10  and  C_11
REMARK    7  A    between atoms: C_11  and  C_12
REMARK                            x       y       z     vdW  Elec       q    Type
REMARK                         _______ _______ _______ _____ _____    ______ ____
ROOT
ATOM      1  N   UNL     1      -1.585  11.475  18.918  0.00  0.00    +0.000 NA
ATOM      2  C   UNL     1      -0.643  10.609  19.085  0.00  0.00    +0.000 A 
ATOM      3  C   UNL     1       0.099   9.937  17.991  0.00  0.00    +0.000 A 
ATOM      4  C   UNL     1       1.062   9.072  18.307  0.00  0.00    +0.000 A 
ATOM      5  N   UNL     1       1.445   8.701  19.583  0.00  0.00    +0.000 N 
ATOM      6  C   UNL     1       0.769   9.258  20.697  0.00  0.00    +0.000 A 
ATOM      7  C   UNL     1       1.033   8.930  22.044  0.00  0.00    +0.000 A 
ATOM      8  F   UNL     1       1.969   8.027  22.374  0.00  0.00    +0.000 F 
ATOM      9  C   UNL     1       0.340   9.511  23.110  0.00  0.00    +0.000 A 
ATOM     10  C   UNL     1      -0.645  10.456  22.871  0.00  0.00    +0.000 A 
ATOM     11  C   UNL     1      -0.939  10.812  21.558  0.00  0.00    +0.000 A 
ATOM     12  C   UNL     1      -0.251  10.219  20.482  0.00  0.00    +0.000 A 
ENDROOT
BRANCH   1  13
ATOM     13  C   UNL     1      -1.982  11.863  17.567  0.00  0.00    +0.000 C 
BRANCH  13  14
ATOM     14  C   UNL     1      -3.387  11.332  17.286  0.00  0.00    +0.000 C 
BRANCH  14  15
ATOM     15  C   UNL     1      -3.360   9.896  16.760  0.00  0.00    +0.000 C 
BRANCH  15  17
ATOM     16  C   UNL     1      -3.754  10.103  14.290  0.00  0.00    +0.000 C 
ATOM     17  C   UNL     1      -2.726   9.820  15.373  0.00  0.00    +0.000 C 
ENDBRANCH  15  17
ENDBRANCH  14  15
ENDBRANCH  13  14
ENDBRANCH   1  13
BRANCH   5  18
ATOM     18  C   UNL     1       2.497   7.686  19.779  0.00  0.00    +0.000 C 
BRANCH  18  19
ATOM     19  C   UNL     1       2.059   6.270  19.445  0.00  0.00    +0.000 A 
ATOM     20  C   UNL     1       2.252   5.698  18.176  0.00  0.00    +0.000 A 
ATOM     21  C   UNL     1       1.958   4.353  17.942  0.00  0.00    +0.000 A 
ATOM     22  C   UNL     1       1.468   3.565  18.978  0.00  0.00    +0.000 A 
ATOM     23 CL   UNL     1       1.156   1.895  18.702  0.00  0.00    +0.000 Cl
ATOM     24  C   UNL     1       1.248   4.114  20.237  0.00  0.00    +0.000 A 
ATOM     25  C   UNL     1       1.545   5.458  20.470  0.00  0.00    +0.000 A 
ENDBRANCH  18  19
ENDBRANCH   5  18
TORSDOF 6
ENDMDL
MODEL 7
REMARK VINA RESULT:      -7.6      3.076      7.509
REMARK  Name = 
REMARK  7 active torsions:
REMARK  status: ('A' for Active; 'I' for Inactive)
REMARK    1  A    between atoms: C_1  and  C_2
REMARK    2  A    between atoms: C_2  and  C_3
REMARK    3  A    between atoms: C_3  and  C_4
REMARK    4  A    between atoms: C_4  and  C_5
REMARK    5  A    between atoms: C_5  and  N_6
REMARK    6  A    between atoms: N_10  and  C_11
REMARK    7  A    between atoms: C_11  and  C_12
REMARK                            x       y       z     vdW  Elec       q    Type
REMARK                         _______ _______ _______ _____ _____    ______ ____
ROOT
ATOM      1  N   UNL     1       1.594   7.960  19.218  0.00  0.00    +0.000 NA
ATOM      2  C   UNL     1       2.556   7.176  18.859  0.00  0.00    +0.000 A 
ATOM      3  C   UNL     1       3.579   7.499  17.834  0.00  0.00    +0.000 A 
ATOM      4  C   UNL     1       4.528   6.600  17.572  0.00  0.00    +0.000 A 
ATOM      5  N   UNL     1       4.657   5.351  18.151  0.00  0.00    +0.000 N 
ATOM      6  C   UNL     1       3.704   4.933  19.113  0.00  0.00    +0.000 A 
ATOM      7  C   UNL     1       3.698   3.669  19.741  0.00  0.00    +0.000 A 
ATOM      8  F   UNL     1       4.620   2.739  19.453  0.00  0.00    +0.000 F 
ATOM      9  C   UNL     1       2.737   3.305  20.689  0.00  0.00    +0.000 A 
ATOM     10  C   UNL     1       1.742   4.198  21.055  0.00  0.00    +0.000 A 
ATOM     11  C   UNL     1       1.709   5.457  20.462  0.00  0.00    +0.000 A 
ATOM     12  C   UNL     1       2.669   5.822  19.498  0.00  0.00    +0.000 A 
ENDROOT
BRANCH   1  13
ATOM     13  C   UNL     1       1.467   9.278  18.603  0.00  0.00    +0.000 C 
BRANCH  13  14
ATOM     14  C   UNL     1       0.504  10.127  19.432  0.00  0.00    +0.000 C 
BRANCH  14  15
ATOM     15  C   UNL     1       0.103   9.429  20.733  0.00  0.00    +0.000 C 
BRANCH  15  17
ATOM     16  C   UNL     1      -1.001  11.509  21.600  0.00  0.00    +0.000 C 
ATOM     17  C   UNL     1       0.014  10.417  21.893  0.00  0.00    +0.000 C 
ENDBRANCH  15  17
ENDBRANCH  14  15
ENDBRANCH  13  14
ENDBRANCH   1  13
BRANCH   5  18
ATOM     18  C   UNL     1       5.733   4.439  17.719  0.00  0.00    +0.000 C 
BRANCH  18  19
ATOM     19  C   UNL     1       6.043   4.508  16.234  0.00  0.00    +0.000 A 
ATOM     20  C   UNL     1       7.219   5.093  15.733  0.00  0.00    +0.000 A 
ATOM     21  C   UNL     1       7.534   5.023  14.374  0.00  0.00    +0.000 A 
ATOM     22  C   UNL     1       6.675   4.364  13.501  0.00  0.00    +0.000 A 
ATOM     23 CL   UNL     1       7.090   4.233  11.837  0.00  0.00    +0.000 Cl
ATOM     24  C   UNL     1       5.495   3.797  13.969  0.00  0.00    +0.000 A 
ATOM     25  C   UNL     1       5.181   3.866  15.328  0.00  0.00    +0.000 A 
ENDBRANCH  18  19
ENDBRANCH   5  18
TORSDOF 6
ENDMDL
MODEL 8
REMARK VINA RESULT:      -7.6      3.994      7.727
REMARK  Name = 
REMARK  7 active torsions:
REMARK  status: ('A' for Active; 'I' for Inactive)
REMARK    1  A    between atoms: C_1  and  C_2
REMARK    2  A    between atoms: C_2  and  C_3
REMARK    3  A    between atoms: C_3  and  C_4
REMARK    4  A    between atoms: C_4  and  C_5
REMARK    5  A    between atoms: C_5  and  N_6
REMARK    6  A    between atoms: N_10  and  C_11
REMARK    7  A    between atoms: C_11  and  C_12
REMARK                            x       y       z     vdW  Elec       q    Type
REMARK                         _______ _______ _______ _____ _____    ______ ____
ROOT
ATOM      1  N   UNL     1      -1.732  11.344  18.967  0.00  0.00    +0.000 NA
ATOM      2  C   UNL     1      -0.736  10.532  19.092  0.00  0.00    +0.000 A 
ATOM      3  C   UNL     1      -0.007   9.900  17.966  0.00  0.00    +0.000 A 
ATOM      4  C   UNL     1       1.017   9.092  18.240  0.00  0.00    +0.000 A 
ATOM      5  N   UNL     1       1.476   8.745  19.497  0.00  0.00    +0.000 N 
ATOM      6  C   UNL     1       0.818   9.266  20.640  0.00  0.00    +0.000 A 
ATOM      7  C   UNL     1       1.158   8.955  21.974  0.00  0.00    +0.000 A 
ATOM      8  F   UNL     1       2.157   8.107  22.263  0.00  0.00    +0.000 F 
ATOM      9  C   UNL     1       0.481   9.498  23.070  0.00  0.00    +0.000 A 
ATOM     10  C   UNL     1      -0.566  10.386  22.874  0.00  0.00    +0.000 A 
ATOM     11  C   UNL     1      -0.936  10.723  21.576  0.00  0.00    +0.000 A 
ATOM     12  C   UNL     1      -0.263  10.167  20.470  0.00  0.00    +0.000 A 
ENDROOT
BRANCH   1  13
ATOM     13  C   UNL     1      -2.209  11.705  17.635  0.00  0.00    +0.000 C 
BRANCH  13  14
ATOM     14  C   UNL     1      -3.505  10.950  17.343  0.00  0.00    +0.000 C 
BRANCH  14  15
ATOM     15  C   UNL     1      -3.302   9.852  16.297  0.00  0.00    +0.000 C 
BRANCH  15  17
ATOM     16  C   UNL     1      -3.797   9.923  13.838  0.00  0.00    +0.000 C 
ATOM     17  C   UNL     1      -2.892  10.434  14.947  0.00  0.00    +0.000 C 
ENDBRANCH  15  17
ENDBRANCH  14  15
ENDBRANCH  13  14
ENDBRANCH   1  13
BRANCH   5  18
ATOM     18  C   UNL     1       2.590   7.792  19.646  0.00  0.00    +0.000 C 
BRANCH  18  19
ATOM     19  C   UNL     1       2.188   6.338  19.465  0.00  0.00    +0.000 A 
ATOM     20  C   UNL     1       1.623   5.574  20.502  0.00  0.00    +0.000 A 
ATOM     21  C   UNL     1       1.145   4.284  20.266  0.00  0.00    +0.000 A 
ATOM     22  C   UNL     1       1.226   3.743  18.987  0.00  0.00    +0.000 A 
ATOM     23 CL   UNL     1       0.588   2.174  18.685  0.00  0.00    +0.000 Cl
ATOM     24  C   UNL     1       1.801   4.470  17.950  0.00  0.00    +0.000 A 
ATOM     25  C   UNL     1       2.277   5.762  18.187  0.00  0.00    +0.000 A 
ENDBRANCH  18  19
ENDBRANCH   5  18
TORSDOF 6
ENDMDL
MODEL 9
REMARK VINA RESULT:      -7.5      2.996      7.209
REMARK  Name = 
REMARK  7 active torsions:
REMARK  status: ('A' for Active; 'I' for Inactive)
REMARK    1  A    between atoms: C_1  and  C_2
REMARK    2  A    between atoms: C_2  and  C_3
REMARK    3  A    between atoms: C_3  and  C_4
REMARK    4  A    between atoms: C_4  and  C_5
REMARK    5  A    between atoms: C_5  and  N_6
REMARK    6  A    between atoms: N_10  and  C_11
REMARK    7  A    between atoms: C_11  and  C_12
REMARK                            x       y       z     vdW  Elec       q    Type
REMARK                         _______ _______ _______ _____ _____    ______ ____
ROOT
ATOM      1  N   UNL     1       1.819   7.195  20.270  0.00  0.00    +0.000 NA
ATOM      2  C   UNL     1       2.461   6.346  19.539  0.00  0.00    +0.000 A 
ATOM      3  C   UNL     1       3.064   6.647  18.218  0.00  0.00    +0.000 A 
ATOM      4  C   UNL     1       3.715   5.677  17.576  0.00  0.00    +0.000 A 
ATOM      5  N   UNL     1       3.877   4.373  18.007  0.00  0.00    +0.000 N 
ATOM      6  C   UNL     1       3.301   3.976  19.240  0.00  0.00    +0.000 A 
ATOM      7  C   UNL     1       3.355   2.668  19.768  0.00  0.00    +0.000 A 
ATOM      8  F   UNL     1       3.968   1.672  19.111  0.00  0.00    +0.000 F 
ATOM      9  C   UNL     1       2.775   2.327  20.993  0.00  0.00    +0.000 A 
ATOM     10  C   UNL     1       2.120   3.287  21.748  0.00  0.00    +0.000 A 
ATOM     11  C   UNL     1       2.042   4.591  21.268  0.00  0.00    +0.000 A 
ATOM     12  C   UNL     1       2.616   4.935  20.028  0.00  0.00    +0.000 A 
ENDROOT
BRANCH   1  13
ATOM     13  C   UNL     1       1.655   8.571  19.808  0.00  0.00    +0.000 C 
BRANCH  13  14
ATOM     14  C   UNL     1       0.820   9.346  20.827  0.00  0.00    +0.000 C 
BRANCH  14  15
ATOM     15  C   UNL     1       0.154  10.574  20.203  0.00  0.00    +0.000 C 
BRANCH  15  17
ATOM     16  C   UNL     1      -1.198  11.401  18.257  0.00  0.00    +0.000 C 
ATOM     17  C   UNL     1      -0.789  10.183  19.068  0.00  0.00    +0.000 C 
ENDBRANCH  15  17
ENDBRANCH  14  15
ENDBRANCH  13  14
ENDBRANCH   1  13
BRANCH   5  18
ATOM     18  C   UNL     1       4.579   3.391  17.160  0.00  0.00    +0.000 C 
BRANCH  18  19
ATOM     19  C   UNL     1       5.448   4.015  16.081  0.00  0.00    +0.000 A 
ATOM     20  C   UNL     1       6.704   4.583  16.356  0.00  0.00    +0.000 A 
ATOM     21  C   UNL     1       7.532   5.029  15.324  0.00  0.00    +0.000 A 
ATOM     22  C   UNL     1       7.113   4.909  14.004  0.00  0.00    +0.000 A 
ATOM     23 CL   UNL     1       8.157   5.410  12.731  0.00  0.00    +0.000 Cl
ATOM     24  C   UNL     1       5.865   4.370  13.707  0.00  0.00    +0.000 A 
ATOM     25  C   UNL     1       5.038   3.923  14.740  0.00  0.00    +0.000 A 
ENDBRANCH  18  19
ENDBRANCH   5  18
TORSDOF 6
ENDMDL
