MODEL 1
REMARK VINA RESULT:      -7.9      0.000      0.000
REMARK  Name = 
REMARK  7 active torsions:
REMARK  status: ('A' for Active; 'I' for Inactive)
REMARK    1  A    between atoms: C_2  and  C_3
REMARK    2  A    between atoms: C_7  and  C_8
REMARK    3  A    between atoms: C_13  and  C_14
REMARK    4  A    between atoms: C_17  and  C_18
REMARK    5  A    between atoms: C_21  and  O_22
REMARK    6  A    between atoms: O_22  and  C_23
REMARK    7  A    between atoms: C_23  and  C_24
REMARK                            x       y       z     vdW  Elec       q    Type
REMARK                         _______ _______ _______ _____ _____    ______ ____
ROOT
ATOM      1  C   UNL     1      -2.651  13.397  21.390  0.00  0.00    +0.000 C 
ATOM      2  C   UNL     1      -4.100  13.878  21.190  0.00  0.00    +0.000 C 
ATOM      3  C   UNL     1      -4.424  14.025  19.707  0.00  0.00    +0.000 C 
ATOM      4  N   UNL     1      -4.199  12.757  19.020  0.00  0.00    +0.000 N 
ATOM      5  C   UNL     1      -3.058  12.067  19.304  0.00  0.00    +0.000 A 
ATOM      6  C   UNL     1      -2.356  11.088  18.619  0.00  0.00    +0.000 A 
ATOM      7  C   UNL     1      -1.183  10.861  19.418  0.00  0.00    +0.000 A 
ATOM      8  N   UNL     1      -1.198  11.638  20.522  0.00  0.00    +0.000 NA
ATOM      9  N   UNL     1      -2.343  12.323  20.441  0.00  0.00    +0.000 N 
ATOM     10  H   UNL     1      -4.488  12.785  18.040  0.00  0.00    +0.000 HD
ENDROOT
BRANCH   1  15
ATOM     11  C   UNL     1      -2.321  15.787  24.539  0.00  0.00    +0.000 C 
ATOM     12  O   UNL     1      -1.525  16.607  24.090  0.00  0.00    +0.000 OA
ATOM     13  N   UNL     1      -2.213  14.436  24.331  0.00  0.00    +0.000 N 
ATOM     14  C   UNL     1      -1.194  13.776  23.523  0.00  0.00    +0.000 C 
ATOM     15  C   UNL     1      -2.334  13.003  22.843  0.00  0.00    +0.000 C 
ATOM     16  C   UNL     1      -3.257  13.471  23.989  0.00  0.00    +0.000 C 
BRANCH  11  18
ATOM     17  C   UNL     1      -4.518  16.819  24.898  0.00  0.00    +0.000 C 
ATOM     18  C   UNL     1      -3.457  16.182  25.412  0.00  0.00    +0.000 C 
ENDBRANCH  11  18
ENDBRANCH   1  15
BRANCH   7  19
ATOM     19  C   UNL     1      -0.045   9.956  19.205  0.00  0.00    +0.000 A 
ATOM     20  C   UNL     1       0.460   9.220  20.289  0.00  0.00    +0.000 A 
ATOM     21  C   UNL     1       1.512   8.316  20.122  0.00  0.00    +0.000 A 
ATOM     22  C   UNL     1       2.063   8.112  18.858  0.00  0.00    +0.000 A 
ATOM     23  C   UNL     1       1.599   8.865  17.781  0.00  0.00    +0.000 A 
ATOM     24  C   UNL     1       0.542   9.767  17.948  0.00  0.00    +0.000 A 
BRANCH  22  25
ATOM     25  O   UNL     1       3.043   7.200  18.571  0.00  0.00    +0.000 OA
BRANCH  25  26
ATOM     26  C   UNL     1       3.270   6.228  19.595  0.00  0.00    +0.000 C 
BRANCH  26  27
ATOM     27  C   UNL     1       2.523   4.964  19.260  0.00  0.00    +0.000 A 
ATOM     28  C   UNL     1       2.779   4.280  18.066  0.00  0.00    +0.000 A 
ATOM     29  C   UNL     1       2.093   3.100  17.768  0.00  0.00    +0.000 A 
ATOM     30  C   UNL     1       1.146   2.597  18.661  0.00  0.00    +0.000 A 
ATOM     31  C   UNL     1       0.882   3.272  19.849  0.00  0.00    +0.000 A 
ATOM     32  C   UNL     1       1.566   4.451  20.149  0.00  0.00    +0.000 A 
ENDBRANCH  26  27
ENDBRANCH  25  26
ENDBRANCH  22  25
ENDBRANCH   7  19
BRANCH   6  33
ATOM     33  C   UNL     1      -2.738  10.506  17.347  0.00  0.00    +0.000 C 
ATOM     34  N   UNL     1      -2.330  11.201  16.244  0.00  0.00    +0.000 N 
ATOM     35  O   UNL     1      -3.396   9.478  17.217  0.00  0.00    +0.000 OA
ATOM     36  H   UNL     1      -1.957  12.138  16.344  0.00  0.00    +0.000 HD
ATOM     37  H   UNL     1      -2.681  10.898  15.347  0.00  0.00    +0.000 HD
ENDBRANCH   6  33
TORSDOF 7
ENDMDL
MODEL 2
REMARK VINA RESULT:      -7.8      3.347      5.022
REMARK  Name = 
REMARK  7 active torsions:
REMARK  status: ('A' for Active; 'I' for Inactive)
REMARK    1  A    between atoms: C_2  and  C_3
REMARK    2  A    between atoms: C_7  and  C_8
REMARK    3  A    between atoms: C_13  and  C_14
REMARK    4  A    between atoms: C_17  and  C_18
REMARK    5  A    between atoms: C_21  and  O_22
REMARK    6  A    between atoms: O_22  and  C_23
REMARK    7  A    between atoms: C_23  and  C_24
REMARK                            x       y       z     vdW  Elec       q    Type
REMARK                         _______ _______ _______ _____ _____    ______ ____
ROOT
ATOM      1  C   UNL     1      -0.785  13.349  19.583  0.00  0.00    +0.000 C 
ATOM      2  C   UNL     1      -1.239  14.303  20.703  0.00  0.00    +0.000 C 
ATOM      3  C   UNL     1      -1.939  13.535  21.820  0.00  0.00    +0.000 C 
ATOM      4  N   UNL     1      -1.052  12.502  22.346  0.00  0.00    +0.000 N 
ATOM      5  C   UNL     1      -0.359  11.738  21.456  0.00  0.00    +0.000 A 
ATOM      6  C   UNL     1       0.242  10.492  21.553  0.00  0.00    +0.000 A 
ATOM      7  C   UNL     1       0.709  10.213  20.222  0.00  0.00    +0.000 A 
ATOM      8  N   UNL     1       0.427  11.239  19.392  0.00  0.00    +0.000 NA
ATOM      9  N   UNL     1      -0.182  12.145  20.162  0.00  0.00    +0.000 N 
ATOM     10  H   UNL     1      -1.448  12.021  23.156  0.00  0.00    +0.000 HD
ENDROOT
BRANCH   1  15
ATOM     11  C   UNL     1       2.368  15.660  20.257  0.00  0.00    +0.000 C 
ATOM     12  O   UNL     1       1.866  16.468  21.033  0.00  0.00    +0.000 OA
ATOM     13  N   UNL     1       1.730  15.192  19.137  0.00  0.00    +0.000 N 
ATOM     14  C   UNL     1       0.372  15.526  18.725  0.00  0.00    +0.000 C 
ATOM     15  C   UNL     1       0.131  14.021  18.545  0.00  0.00    +0.000 C 
ATOM     16  C   UNL     1       1.660  13.825  18.622  0.00  0.00    +0.000 C 
BRANCH  11  18
ATOM     17  C   UNL     1       4.072  14.384  21.477  0.00  0.00    +0.000 C 
ATOM     18  C   UNL     1       3.754  15.154  20.428  0.00  0.00    +0.000 C 
ENDBRANCH  11  18
ENDBRANCH   1  15
BRANCH   7  19
ATOM     19  C   UNL     1       1.406   9.037  19.684  0.00  0.00    +0.000 A 
ATOM     20  C   UNL     1       1.622   7.926  20.514  0.00  0.00    +0.000 A 
ATOM     21  C   UNL     1       2.242   6.771  20.031  0.00  0.00    +0.000 A 
ATOM     22  C   UNL     1       2.635   6.697  18.695  0.00  0.00    +0.000 A 
ATOM     23  C   UNL     1       2.463   7.806  17.869  0.00  0.00    +0.000 A 
ATOM     24  C   UNL     1       1.838   8.962  18.354  0.00  0.00    +0.000 A 
BRANCH  22  25
ATOM     25  O   UNL     1       3.182   5.591  18.102  0.00  0.00    +0.000 OA
BRANCH  25  26
ATOM     26  C   UNL     1       4.135   5.875  17.075  0.00  0.00    +0.000 C 
BRANCH  26  27
ATOM     27  C   UNL     1       5.494   6.072  17.692  0.00  0.00    +0.000 A 
ATOM     28  C   UNL     1       6.379   7.027  17.179  0.00  0.00    +0.000 A 
ATOM     29  C   UNL     1       7.633   7.214  17.764  0.00  0.00    +0.000 A 
ATOM     30  C   UNL     1       8.012   6.447  18.866  0.00  0.00    +0.000 A 
ATOM     31  C   UNL     1       7.141   5.492  19.382  0.00  0.00    +0.000 A 
ATOM     32  C   UNL     1       5.887   5.303  18.799  0.00  0.00    +0.000 A 
ENDBRANCH  26  27
ENDBRANCH  25  26
ENDBRANCH  22  25
ENDBRANCH   7  19
BRANCH   6  33
ATOM     33  C   UNL     1       0.297   9.670  22.746  0.00  0.00    +0.000 C 
ATOM     34  N   UNL     1      -0.866   9.029  23.064  0.00  0.00    +0.000 N 
ATOM     35  O   UNL     1       1.285   9.543  23.463  0.00  0.00    +0.000 OA
ATOM     36  H   UNL     1      -1.728   9.276  22.592  0.00  0.00    +0.000 HD
ATOM     37  H   UNL     1      -0.905   8.549  23.952  0.00  0.00    +0.000 HD
ENDBRANCH   6  33
TORSDOF 7
ENDMDL
MODEL 3
REMARK VINA RESULT:      -7.6      3.664      5.321
REMARK  Name = 
REMARK  7 active torsions:
REMARK  status: ('A' for Active; 'I' for Inactive)
REMARK    1  A    between atoms: C_2  and  C_3
REMARK    2  A    between atoms: C_7  and  C_8
REMARK    3  A    between atoms: C_13  and  C_14
REMARK    4  A    between atoms: C_17  and  C_18
REMARK    5  A    between atoms: C_21  and  O_22
REMARK    6  A    between atoms: O_22  and  C_23
REMARK    7  A    between atoms: C_23  and  C_24
REMARK                            x       y       z     vdW  Elec       q    Type
REMARK                         _______ _______ _______ _____ _____    ______ ____
ROOT
ATOM      1  C   UNL     1       0.096  13.365  19.600  0.00  0.00    +0.000 C 
ATOM      2  C   UNL     1      -0.241  14.432  20.658  0.00  0.00    +0.000 C 
ATOM      3  C   UNL     1      -1.161  13.861  21.731  0.00  0.00    +0.000 C 
ATOM      4  N   UNL     1      -0.540  12.695  22.351  0.00  0.00    +0.000 N 
ATOM      5  C   UNL     1       0.051  11.775  21.538  0.00  0.00    +0.000 A 
ATOM      6  C   UNL     1       0.382  10.440  21.712  0.00  0.00    +0.000 A 
ATOM      7  C   UNL     1       0.883  10.023  20.431  0.00  0.00    +0.000 A 
ATOM      8  N   UNL     1       0.874  11.051  19.556  0.00  0.00    +0.000 NA
ATOM      9  N   UNL     1       0.402  12.089  20.254  0.00  0.00    +0.000 N 
ATOM     10  H   UNL     1      -1.083  12.332  23.137  0.00  0.00    +0.000 HD
ENDROOT
BRANCH   1  15
ATOM     11  C   UNL     1       3.383  15.431  20.419  0.00  0.00    +0.000 C 
ATOM     12  O   UNL     1       2.883  16.379  21.017  0.00  0.00    +0.000 OA
ATOM     13  N   UNL     1       2.838  14.882  19.285  0.00  0.00    +0.000 N 
ATOM     14  C   UNL     1       1.588  15.288  18.656  0.00  0.00    +0.000 C 
ATOM     15  C   UNL     1       1.203  13.802  18.624  0.00  0.00    +0.000 C 
ATOM     16  C   UNL     1       2.679  13.472  18.932  0.00  0.00    +0.000 C 
BRANCH  11  18
ATOM     17  C   UNL     1       5.819  15.192  20.251  0.00  0.00    +0.000 C 
ATOM     18  C   UNL     1       4.671  14.821  20.836  0.00  0.00    +0.000 C 
ENDBRANCH  11  18
ENDBRANCH   1  15
BRANCH   7  19
ATOM     19  C   UNL     1       1.369   8.713  19.978  0.00  0.00    +0.000 A 
ATOM     20  C   UNL     1       1.863   8.577  18.671  0.00  0.00    +0.000 A 
ATOM     21  C   UNL     1       2.376   7.361  18.213  0.00  0.00    +0.000 A 
ATOM     22  C   UNL     1       2.428   6.260  19.067  0.00  0.00    +0.000 A 
ATOM     23  C   UNL     1       1.905   6.369  20.354  0.00  0.00    +0.000 A 
ATOM     24  C   UNL     1       1.396   7.589  20.813  0.00  0.00    +0.000 A 
BRANCH  22  25
ATOM     25  O   UNL     1       2.975   5.047  18.745  0.00  0.00    +0.000 OA
BRANCH  25  26
ATOM     26  C   UNL     1       4.296   4.837  19.250  0.00  0.00    +0.000 C 
BRANCH  26  27
ATOM     27  C   UNL     1       5.252   4.664  18.099  0.00  0.00    +0.000 A 
ATOM     28  C   UNL     1       6.614   4.947  18.256  0.00  0.00    +0.000 A 
ATOM     29  C   UNL     1       7.497   4.772  17.188  0.00  0.00    +0.000 A 
ATOM     30  C   UNL     1       7.027   4.314  15.958  0.00  0.00    +0.000 A 
ATOM     31  C   UNL     1       5.673   4.034  15.791  0.00  0.00    +0.000 A 
ATOM     32  C   UNL     1       4.788   4.208  16.856  0.00  0.00    +0.000 A 
ENDBRANCH  26  27
ENDBRANCH  25  26
ENDBRANCH  22  25
ENDBRANCH   7  19
BRANCH   6  33
ATOM     33  C   UNL     1       0.183   9.670  22.924  0.00  0.00    +0.000 C 
ATOM     34  N   UNL     1      -1.050   9.097  23.053  0.00  0.00    +0.000 N 
ATOM     35  O   UNL     1       1.021   9.529  23.810  0.00  0.00    +0.000 OA
ATOM     36  H   UNL     1      -1.801   9.363  22.426  0.00  0.00    +0.000 HD
ATOM     37  H   UNL     1      -1.270   8.659  23.936  0.00  0.00    +0.000 HD
ENDBRANCH   6  33
TORSDOF 7
ENDMDL
MODEL 4
REMARK VINA RESULT:      -7.6      0.646      1.058
REMARK  Name = 
REMARK  7 active torsions:
REMARK  status: ('A' for Active; 'I' for Inactive)
REMARK    1  A    between atoms: C_2  and  C_3
REMARK    2  A    between atoms: C_7  and  C_8
REMARK    3  A    between atoms: C_13  and  C_14
REMARK    4  A    between atoms: C_17  and  C_18
REMARK    5  A    between atoms: C_21  and  O_22
REMARK    6  A    between atoms: O_22  and  C_23
REMARK    7  A    between atoms: C_23  and  C_24
REMARK                            x       y       z     vdW  Elec       q    Type
REMARK                         _______ _______ _______ _____ _____    ______ ____
ROOT
ATOM      1  C   UNL     1      -1.747  13.595  21.230  0.00  0.00    +0.000 C 
ATOM      2  C   UNL     1      -3.202  14.098  21.186  0.00  0.00    +0.000 C 
ATOM      3  C   UNL     1      -3.760  14.023  19.769  0.00  0.00    +0.000 C 
ATOM      4  N   UNL     1      -3.669  12.654  19.270  0.00  0.00    +0.000 N 
ATOM      5  C   UNL     1      -2.509  11.971  19.478  0.00  0.00    +0.000 A 
ATOM      6  C   UNL     1      -1.942  10.868  18.859  0.00  0.00    +0.000 A 
ATOM      7  C   UNL     1      -0.659  10.721  19.488  0.00  0.00    +0.000 A 
ATOM      8  N   UNL     1      -0.482  11.662  20.440  0.00  0.00    +0.000 NA
ATOM      9  N   UNL     1      -1.614  12.372  20.432  0.00  0.00    +0.000 N 
ATOM     10  H   UNL     1      -4.114  12.539  18.357  0.00  0.00    +0.000 HD
ENDROOT
BRANCH   1  15
ATOM     11  C   UNL     1      -1.986  16.159  24.248  0.00  0.00    +0.000 C 
ATOM     12  O   UNL     1      -1.547  17.163  23.696  0.00  0.00    +0.000 OA
ATOM     13  N   UNL     1      -1.450  14.907  24.077  0.00  0.00    +0.000 N 
ATOM     14  C   UNL     1      -0.337  14.569  23.200  0.00  0.00    +0.000 C 
ATOM     15  C   UNL     1      -1.204  13.422  22.659  0.00  0.00    +0.000 C 
ATOM     16  C   UNL     1      -2.137  13.633  23.871  0.00  0.00    +0.000 C 
BRANCH  11  18
ATOM     17  C   UNL     1      -4.349  16.531  24.792  0.00  0.00    +0.000 C 
ATOM     18  C   UNL     1      -3.117  16.214  25.210  0.00  0.00    +0.000 C 
ENDBRANCH  11  18
ENDBRANCH   1  15
BRANCH   7  19
ATOM     19  C   UNL     1       0.415   9.747  19.248  0.00  0.00    +0.000 A 
ATOM     20  C   UNL     1       0.839   8.918  20.299  0.00  0.00    +0.000 A 
ATOM     21  C   UNL     1       1.826   7.949  20.103  0.00  0.00    +0.000 A 
ATOM     22  C   UNL     1       2.391   7.774  18.840  0.00  0.00    +0.000 A 
ATOM     23  C   UNL     1       2.010   8.616  17.798  0.00  0.00    +0.000 A 
ATOM     24  C   UNL     1       1.017   9.584  17.995  0.00  0.00    +0.000 A 
BRANCH  22  25
ATOM     25  O   UNL     1       3.309   6.809  18.523  0.00  0.00    +0.000 OA
BRANCH  25  26
ATOM     26  C   UNL     1       3.524   5.832  19.544  0.00  0.00    +0.000 C 
BRANCH  26  27
ATOM     27  C   UNL     1       2.633   4.644  19.298  0.00  0.00    +0.000 A 
ATOM     28  C   UNL     1       1.648   4.286  20.226  0.00  0.00    +0.000 A 
ATOM     29  C   UNL     1       0.816   3.191  19.985  0.00  0.00    +0.000 A 
ATOM     30  C   UNL     1       0.962   2.445  18.815  0.00  0.00    +0.000 A 
ATOM     31  C   UNL     1       1.940   2.790  17.887  0.00  0.00    +0.000 A 
ATOM     32  C   UNL     1       2.773   3.884  18.126  0.00  0.00    +0.000 A 
ENDBRANCH  26  27
ENDBRANCH  25  26
ENDBRANCH  22  25
ENDBRANCH   7  19
BRANCH   6  33
ATOM     33  C   UNL     1      -2.535  10.109  17.775  0.00  0.00    +0.000 C 
ATOM     34  N   UNL     1      -2.069  10.415  16.528  0.00  0.00    +0.000 N 
ATOM     35  O   UNL     1      -3.409   9.258  17.912  0.00  0.00    +0.000 OA
ATOM     36  H   UNL     1      -1.493  11.238  16.390  0.00  0.00    +0.000 HD
ATOM     37  H   UNL     1      -2.543  10.000  15.739  0.00  0.00    +0.000 HD
ENDBRANCH   6  33
TORSDOF 7
ENDMDL
MODEL 5
REMARK VINA RESULT:      -7.5      0.879      1.255
REMARK  Name = 
REMARK  7 active torsions:
REMARK  status: ('A' for Active; 'I' for Inactive)
REMARK    1  A    between atoms: C_2  and  C_3
REMARK    2  A    between atoms: C_7  and  C_8
REMARK    3  A    between atoms: C_13  and  C_14
REMARK    4  A    between atoms: C_17  and  C_18
REMARK    5  A    between atoms: C_21  and  O_22
REMARK    6  A    between atoms: O_22  and  C_23
REMARK    7  A    between atoms: C_23  and  C_24
REMARK                            x       y       z     vdW  Elec       q    Type
REMARK                         _______ _______ _______ _____ _____    ______ ____
ROOT
ATOM      1  C   UNL     1      -3.124  13.559  21.632  0.00  0.00    +0.000 C 
ATOM      2  C   UNL     1      -4.560  14.031  21.337  0.00  0.00    +0.000 C 
ATOM      3  C   UNL     1      -4.777  14.207  19.838  0.00  0.00    +0.000 C 
ATOM      4  N   UNL     1      -4.489  12.956  19.143  0.00  0.00    +0.000 N 
ATOM      5  C   UNL     1      -3.364  12.271  19.495  0.00  0.00    +0.000 A 
ATOM      6  C   UNL     1      -2.603  11.314  18.842  0.00  0.00    +0.000 A 
ATOM      7  C   UNL     1      -1.489  11.080  19.719  0.00  0.00    +0.000 A 
ATOM      8  N   UNL     1      -1.593  11.833  20.835  0.00  0.00    +0.000 NA
ATOM      9  N   UNL     1      -2.737  12.509  20.686  0.00  0.00    +0.000 N 
ATOM     10  H   UNL     1      -4.706  13.003  18.146  0.00  0.00    +0.000 HD
ENDROOT
BRANCH   1  15
ATOM     11  C   UNL     1      -1.217  15.553  24.483  0.00  0.00    +0.000 C 
ATOM     12  O   UNL     1      -0.161  15.782  23.900  0.00  0.00    +0.000 OA
ATOM     13  N   UNL     1      -1.874  14.351  24.412  0.00  0.00    +0.000 N 
ATOM     14  C   UNL     1      -1.465  13.201  23.616  0.00  0.00    +0.000 C 
ATOM     15  C   UNL     1      -2.909  13.137  23.096  0.00  0.00    +0.000 C 
ATOM     16  C   UNL     1      -3.303  14.093  24.242  0.00  0.00    +0.000 C 
BRANCH  11  18
ATOM     17  C   UNL     1      -1.157  17.130  26.361  0.00  0.00    +0.000 C 
ATOM     18  C   UNL     1      -1.858  16.550  25.378  0.00  0.00    +0.000 C 
ENDBRANCH  11  18
ENDBRANCH   1  15
BRANCH   7  19
ATOM     19  C   UNL     1      -0.329  10.191  19.571  0.00  0.00    +0.000 A 
ATOM     20  C   UNL     1       0.152   9.497  20.692  0.00  0.00    +0.000 A 
ATOM     21  C   UNL     1       1.225   8.608  20.587  0.00  0.00    +0.000 A 
ATOM     22  C   UNL     1       1.821   8.377  19.348  0.00  0.00    +0.000 A 
ATOM     23  C   UNL     1       1.380   9.088  18.234  0.00  0.00    +0.000 A 
ATOM     24  C   UNL     1       0.302   9.975  18.340  0.00  0.00    +0.000 A 
BRANCH  22  25
ATOM     25  O   UNL     1       2.826   7.475  19.121  0.00  0.00    +0.000 OA
BRANCH  25  26
ATOM     26  C   UNL     1       2.583   6.572  18.040  0.00  0.00    +0.000 C 
BRANCH  26  27
ATOM     27  C   UNL     1       2.159   5.235  18.589  0.00  0.00    +0.000 A 
ATOM     28  C   UNL     1       1.819   5.094  19.939  0.00  0.00    +0.000 A 
ATOM     29  C   UNL     1       1.414   3.854  20.438  0.00  0.00    +0.000 A 
ATOM     30  C   UNL     1       1.346   2.747  19.593  0.00  0.00    +0.000 A 
ATOM     31  C   UNL     1       1.686   2.876  18.249  0.00  0.00    +0.000 A 
ATOM     32  C   UNL     1       2.091   4.114  17.747  0.00  0.00    +0.000 A 
ENDBRANCH  26  27
ENDBRANCH  25  26
ENDBRANCH  22  25
ENDBRANCH   7  19
BRANCH   6  33
ATOM     33  C   UNL     1      -2.886  10.756  17.534  0.00  0.00    +0.000 C 
ATOM     34  N   UNL     1      -2.451  11.504  16.477  0.00  0.00    +0.000 N 
ATOM     35  O   UNL     1      -3.486   9.704  17.336  0.00  0.00    +0.000 OA
ATOM     36  H   UNL     1      -2.129  12.454  16.626  0.00  0.00    +0.000 HD
ATOM     37  H   UNL     1      -2.737  11.214  15.552  0.00  0.00    +0.000 HD
ENDBRANCH   6  33
TORSDOF 7
ENDMDL
MODEL 6
REMARK VINA RESULT:      -7.5      2.774      4.238
REMARK  Name = 
REMARK  7 active torsions:
REMARK  status: ('A' for Active; 'I' for Inactive)
REMARK    1  A    between atoms: C_2  and  C_3
REMARK    2  A    between atoms: C_7  and  C_8
REMARK    3  A    between atoms: C_13  and  C_14
REMARK    4  A    between atoms: C_17  and  C_18
REMARK    5  A    between atoms: C_21  and  O_22
REMARK    6  A    between atoms: O_22  and  C_23
REMARK    7  A    between atoms: C_23  and  C_24
REMARK                            x       y       z     vdW  Elec       q    Type
REMARK                         _______ _______ _______ _____ _____    ______ ____
ROOT
ATOM      1  C   UNL     1      -1.145  13.188  19.510  0.00  0.00    +0.000 C 
ATOM      2  C   UNL     1      -1.742  14.074  20.619  0.00  0.00    +0.000 C 
ATOM      3  C   UNL     1      -2.437  13.226  21.678  0.00  0.00    +0.000 C 
ATOM      4  N   UNL     1      -1.498  12.259  22.237  0.00  0.00    +0.000 N 
ATOM      5  C   UNL     1      -0.693  11.575  21.376  0.00  0.00    +0.000 A 
ATOM      6  C   UNL     1       0.004  10.382  21.486  0.00  0.00    +0.000 A 
ATOM      7  C   UNL     1       0.569  10.173  20.181  0.00  0.00    +0.000 A 
ATOM      8  N   UNL     1       0.250  11.190  19.354  0.00  0.00    +0.000 NA
ATOM      9  N   UNL     1      -0.477  12.025  20.103  0.00  0.00    +0.000 N 
ATOM     10  H   UNL     1      -1.897  11.728  23.014  0.00  0.00    +0.000 HD
ENDROOT
BRANCH   1  15
ATOM     11  C   UNL     1       1.649  15.859  20.404  0.00  0.00    +0.000 C 
ATOM     12  O   UNL     1       0.993  16.606  21.124  0.00  0.00    +0.000 OA
ATOM     13  N   UNL     1       1.165  15.311  19.243  0.00  0.00    +0.000 N 
ATOM     14  C   UNL     1      -0.183  15.481  18.717  0.00  0.00    +0.000 C 
ATOM     15  C   UNL     1      -0.231  13.956  18.540  0.00  0.00    +0.000 C 
ATOM     16  C   UNL     1       1.299  13.943  18.746  0.00  0.00    +0.000 C 
BRANCH  11  18
ATOM     17  C   UNL     1       3.403  14.961  21.865  0.00  0.00    +0.000 C 
ATOM     18  C   UNL     1       3.066  15.521  20.696  0.00  0.00    +0.000 C 
ENDBRANCH  11  18
ENDBRANCH   1  15
BRANCH   7  19
ATOM     19  C   UNL     1       1.393   9.072  19.664  0.00  0.00    +0.000 A 
ATOM     20  C   UNL     1       1.924   9.161  18.368  0.00  0.00    +0.000 A 
ATOM     21  C   UNL     1       2.748   8.157  17.852  0.00  0.00    +0.000 A 
ATOM     22  C   UNL     1       3.078   7.054  18.638  0.00  0.00    +0.000 A 
ATOM     23  C   UNL     1       2.526   6.932  19.912  0.00  0.00    +0.000 A 
ATOM     24  C   UNL     1       1.704   7.941  20.429  0.00  0.00    +0.000 A 
BRANCH  22  25
ATOM     25  O   UNL     1       3.932   6.053  18.260  0.00  0.00    +0.000 OA
BRANCH  25  26
ATOM     26  C   UNL     1       3.434   5.205  17.223  0.00  0.00    +0.000 C 
BRANCH  26  27
ATOM     27  C   UNL     1       2.826   3.970  17.832  0.00  0.00    +0.000 A 
ATOM     28  C   UNL     1       3.630   2.877  18.178  0.00  0.00    +0.000 A 
ATOM     29  C   UNL     1       3.062   1.739  18.756  0.00  0.00    +0.000 A 
ATOM     30  C   UNL     1       1.688   1.685  18.991  0.00  0.00    +0.000 A 
ATOM     31  C   UNL     1       0.880   2.765  18.646  0.00  0.00    +0.000 A 
ATOM     32  C   UNL     1       1.444   3.903  18.069  0.00  0.00    +0.000 A 
ENDBRANCH  26  27
ENDBRANCH  25  26
ENDBRANCH  22  25
ENDBRANCH   7  19
BRANCH   6  33
ATOM     33  C   UNL     1       0.060   9.541  22.666  0.00  0.00    +0.000 C 
ATOM     34  N   UNL     1      -0.893   8.563  22.729  0.00  0.00    +0.000 N 
ATOM     35  O   UNL     1       0.870   9.668  23.579  0.00  0.00    +0.000 OA
ATOM     36  H   UNL     1      -1.672   8.573  22.081  0.00  0.00    +0.000 HD
ATOM     37  H   UNL     1      -0.965   8.039  23.589  0.00  0.00    +0.000 HD
ENDBRANCH   6  33
TORSDOF 7
ENDMDL
MODEL 7
REMARK VINA RESULT:      -7.5      2.463      3.461
REMARK  Name = 
REMARK  7 active torsions:
REMARK  status: ('A' for Active; 'I' for Inactive)
REMARK    1  A    between atoms: C_2  and  C_3
REMARK    2  A    between atoms: C_7  and  C_8
REMARK    3  A    between atoms: C_13  and  C_14
REMARK    4  A    between atoms: C_17  and  C_18
REMARK    5  A    between atoms: C_21  and  O_22
REMARK    6  A    between atoms: O_22  and  C_23
REMARK    7  A    between atoms: C_23  and  C_24
REMARK                            x       y       z     vdW  Elec       q    Type
REMARK                         _______ _______ _______ _____ _____    ______ ____
ROOT
ATOM      1  C   UNL     1      -1.704  13.212  23.350  0.00  0.00    +0.000 C 
ATOM      2  C   UNL     1      -1.929  14.731  23.469  0.00  0.00    +0.000 C 
ATOM      3  C   UNL     1      -0.615  15.489  23.304  0.00  0.00    +0.000 C 
ATOM      4  N   UNL     1      -0.005  15.153  22.022  0.00  0.00    +0.000 N 
ATOM      5  C   UNL     1       0.026  13.843  21.649  0.00  0.00    +0.000 A 
ATOM      6  C   UNL     1       0.810  13.139  20.748  0.00  0.00    +0.000 A 
ATOM      7  C   UNL     1       0.403  11.770  20.910  0.00  0.00    +0.000 A 
ATOM      8  N   UNL     1      -0.578  11.668  21.831  0.00  0.00    +0.000 NA
ATOM      9  N   UNL     1      -0.803  12.924  22.231  0.00  0.00    +0.000 N 
ATOM     10  H   UNL     1       0.834  15.706  21.830  0.00  0.00    +0.000 HD
ENDROOT
BRANCH   1  15
ATOM     11  C   UNL     1      -5.411  14.611  23.142  0.00  0.00    +0.000 C 
ATOM     12  O   UNL     1      -5.391  15.383  24.097  0.00  0.00    +0.000 OA
ATOM     13  N   UNL     1      -4.845  13.362  23.168  0.00  0.00    +0.000 N 
ATOM     14  C   UNL     1      -4.105  12.784  24.283  0.00  0.00    +0.000 C 
ATOM     15  C   UNL     1      -3.013  12.407  23.271  0.00  0.00    +0.000 C 
ATOM     16  C   UNL     1      -4.032  12.698  22.150  0.00  0.00    +0.000 C 
BRANCH  11  18
ATOM     17  C   UNL     1      -5.647  15.909  21.073  0.00  0.00    +0.000 C 
ATOM     18  C   UNL     1      -6.110  14.939  21.873  0.00  0.00    +0.000 C 
ENDBRANCH  11  18
ENDBRANCH   1  15
BRANCH   7  19
ATOM     19  C   UNL     1       0.884  10.548  20.251  0.00  0.00    +0.000 A 
ATOM     20  C   UNL     1       1.165  10.574  18.876  0.00  0.00    +0.000 A 
ATOM     21  C   UNL     1       1.665   9.448  18.217  0.00  0.00    +0.000 A 
ATOM     22  C   UNL     1       1.918   8.278  18.931  0.00  0.00    +0.000 A 
ATOM     23  C   UNL     1       1.606   8.224  20.288  0.00  0.00    +0.000 A 
ATOM     24  C   UNL     1       1.110   9.355  20.948  0.00  0.00    +0.000 A 
BRANCH  22  25
ATOM     25  O   UNL     1       2.474   7.144  18.401  0.00  0.00    +0.000 OA
BRANCH  25  26
ATOM     26  C   UNL     1       2.992   6.227  19.368  0.00  0.00    +0.000 C 
BRANCH  26  27
ATOM     27  C   UNL     1       2.279   4.908  19.242  0.00  0.00    +0.000 A 
ATOM     28  C   UNL     1       1.481   4.426  20.286  0.00  0.00    +0.000 A 
ATOM     29  C   UNL     1       0.811   3.207  20.157  0.00  0.00    +0.000 A 
ATOM     30  C   UNL     1       0.933   2.462  18.985  0.00  0.00    +0.000 A 
ATOM     31  C   UNL     1       1.727   2.930  17.942  0.00  0.00    +0.000 A 
ATOM     32  C   UNL     1       2.398   4.147  18.068  0.00  0.00    +0.000 A 
ENDBRANCH  26  27
ENDBRANCH  25  26
ENDBRANCH  22  25
ENDBRANCH   7  19
BRANCH   6  33
ATOM     33  C   UNL     1       1.842  13.705  19.902  0.00  0.00    +0.000 C 
ATOM     34  N   UNL     1       1.404  14.218  18.714  0.00  0.00    +0.000 N 
ATOM     35  O   UNL     1       3.038  13.728  20.177  0.00  0.00    +0.000 OA
ATOM     36  H   UNL     1       0.458  14.033  18.401  0.00  0.00    +0.000 HD
ATOM     37  H   UNL     1       2.104  14.507  18.046  0.00  0.00    +0.000 HD
ENDBRANCH   6  33
TORSDOF 7
ENDMDL
MODEL 8
REMARK VINA RESULT:      -7.5      2.923      4.207
REMARK  Name = 
REMARK  7 active torsions:
REMARK  status: ('A' for Active; 'I' for Inactive)
REMARK    1  A    between atoms: C_2  and  C_3
REMARK    2  A    between atoms: C_7  and  C_8
REMARK    3  A    between atoms: C_13  and  C_14
REMARK    4  A    between atoms: C_17  and  C_18
REMARK    5  A    between atoms: C_21  and  O_22
REMARK    6  A    between atoms: O_22  and  C_23
REMARK    7  A    between atoms: C_23  and  C_24
REMARK                            x       y       z     vdW  Elec       q    Type
REMARK                         _______ _______ _______ _____ _____    ______ ____
ROOT
ATOM      1  C   UNL     1      -0.926  13.674  19.787  0.00  0.00    +0.000 C 
ATOM      2  C   UNL     1      -1.402  14.573  20.943  0.00  0.00    +0.000 C 
ATOM      3  C   UNL     1      -2.173  13.762  21.979  0.00  0.00    +0.000 C 
ATOM      4  N   UNL     1      -1.341  12.672  22.478  0.00  0.00    +0.000 N 
ATOM      5  C   UNL     1      -0.631  11.941  21.574  0.00  0.00    +0.000 A 
ATOM      6  C   UNL     1      -0.072  10.673  21.620  0.00  0.00    +0.000 A 
ATOM      7  C   UNL     1       0.447  10.459  20.297  0.00  0.00    +0.000 A 
ATOM      8  N   UNL     1       0.232  11.542  19.519  0.00  0.00    +0.000 NA
ATOM      9  N   UNL     1      -0.384  12.419  20.317  0.00  0.00    +0.000 N 
ATOM     10  H   UNL     1      -1.786  12.156  23.240  0.00  0.00    +0.000 HD
ENDROOT
BRANCH   1  15
ATOM     11  C   UNL     1       1.396  16.798  20.554  0.00  0.00    +0.000 C 
ATOM     12  O   UNL     1       0.557  17.566  21.016  0.00  0.00    +0.000 OA
ATOM     13  N   UNL     1       1.171  16.002  19.460  0.00  0.00    +0.000 N 
ATOM     14  C   UNL     1      -0.081  15.903  18.721  0.00  0.00    +0.000 C 
ATOM     15  C   UNL     1       0.055  14.377  18.832  0.00  0.00    +0.000 C 
ATOM     16  C   UNL     1       1.523  14.597  19.256  0.00  0.00    +0.000 C 
BRANCH  11  18
ATOM     17  C   UNL     1       2.963  16.465  22.413  0.00  0.00    +0.000 C 
ATOM     18  C   UNL     1       2.771  16.702  21.108  0.00  0.00    +0.000 C 
ENDBRANCH  11  18
ENDBRANCH   1  15
BRANCH   7  19
ATOM     19  C   UNL     1       1.133   9.296  19.718  0.00  0.00    +0.000 A 
ATOM     20  C   UNL     1       1.392   9.268  18.339  0.00  0.00    +0.000 A 
ATOM     21  C   UNL     1       2.080   8.202  17.754  0.00  0.00    +0.000 A 
ATOM     22  C   UNL     1       2.546   7.153  18.546  0.00  0.00    +0.000 A 
ATOM     23  C   UNL     1       2.261   7.149  19.910  0.00  0.00    +0.000 A 
ATOM     24  C   UNL     1       1.576   8.220  20.495  0.00  0.00    +0.000 A 
BRANCH  22  25
ATOM     25  O   UNL     1       3.292   6.100  18.088  0.00  0.00    +0.000 OA
BRANCH  25  26
ATOM     26  C   UNL     1       2.537   4.927  17.778  0.00  0.00    +0.000 C 
BRANCH  26  27
ATOM     27  C   UNL     1       2.389   4.083  19.017  0.00  0.00    +0.000 A 
ATOM     28  C   UNL     1       1.124   3.830  19.560  0.00  0.00    +0.000 A 
ATOM     29  C   UNL     1       0.993   3.035  20.701  0.00  0.00    +0.000 A 
ATOM     30  C   UNL     1       2.125   2.488  21.307  0.00  0.00    +0.000 A 
ATOM     31  C   UNL     1       3.387   2.737  20.776  0.00  0.00    +0.000 A 
ATOM     32  C   UNL     1       3.521   3.531  19.636  0.00  0.00    +0.000 A 
ENDBRANCH  26  27
ENDBRANCH  25  26
ENDBRANCH  22  25
ENDBRANCH   7  19
BRANCH   6  33
ATOM     33  C   UNL     1      -0.094   9.780  22.762  0.00  0.00    +0.000 C 
ATOM     34  N   UNL     1      -0.972   8.737  22.668  0.00  0.00    +0.000 N 
ATOM     35  O   UNL     1       0.589   9.917  23.772  0.00  0.00    +0.000 OA
ATOM     36  H   UNL     1      -1.667   8.725  21.930  0.00  0.00    +0.000 HD
ATOM     37  H   UNL     1      -1.107   8.167  23.490  0.00  0.00    +0.000 HD
ENDBRANCH   6  33
TORSDOF 7
ENDMDL
MODEL 9
REMARK VINA RESULT:      -7.5      2.939      4.368
REMARK  Name = 
REMARK  7 active torsions:
REMARK  status: ('A' for Active; 'I' for Inactive)
REMARK    1  A    between atoms: C_2  and  C_3
REMARK    2  A    between atoms: C_7  and  C_8
REMARK    3  A    between atoms: C_13  and  C_14
REMARK    4  A    between atoms: C_17  and  C_18
REMARK    5  A    between atoms: C_21  and  O_22
REMARK    6  A    between atoms: O_22  and  C_23
REMARK    7  A    between atoms: C_23  and  C_24
REMARK                            x       y       z     vdW  Elec       q    Type
REMARK                         _______ _______ _______ _____ _____    ______ ____
ROOT
ATOM      1  C   UNL     1      -1.069  13.379  19.701  0.00  0.00    +0.000 C 
ATOM      2  C   UNL     1      -1.524  14.286  20.859  0.00  0.00    +0.000 C 
ATOM      3  C   UNL     1      -2.165  13.464  21.972  0.00  0.00    +0.000 C 
ATOM      4  N   UNL     1      -1.229  12.450  22.446  0.00  0.00    +0.000 N 
ATOM      5  C   UNL     1      -0.535  11.734  21.516  0.00  0.00    +0.000 A 
ATOM      6  C   UNL     1       0.111  10.508  21.563  0.00  0.00    +0.000 A 
ATOM      7  C   UNL     1       0.551  10.282  20.213  0.00  0.00    +0.000 A 
ATOM      8  N   UNL     1       0.210  11.319  19.419  0.00  0.00    +0.000 NA
ATOM      9  N   UNL     1      -0.408  12.182  20.230  0.00  0.00    +0.000 N 
ATOM     10  H   UNL     1      -1.584  11.934  23.252  0.00  0.00    +0.000 HD
ENDROOT
BRANCH   1  15
ATOM     11  C   UNL     1       1.895  15.934  20.356  0.00  0.00    +0.000 C 
ATOM     12  O   UNL     1       1.330  16.708  21.124  0.00  0.00    +0.000 OA
ATOM     13  N   UNL     1       1.296  15.407  19.240  0.00  0.00    +0.000 N 
ATOM     14  C   UNL     1      -0.082  15.631  18.824  0.00  0.00    +0.000 C 
ATOM     15  C   UNL     1      -0.206  14.110  18.657  0.00  0.00    +0.000 C 
ATOM     16  C   UNL     1       1.334  14.034  18.738  0.00  0.00    +0.000 C 
BRANCH  11  18
ATOM     17  C   UNL     1       4.039  15.119  19.486  0.00  0.00    +0.000 C 
ATOM     18  C   UNL     1       3.316  15.539  20.533  0.00  0.00    +0.000 C 
ENDBRANCH  11  18
ENDBRANCH   1  15
BRANCH   7  19
ATOM     19  C   UNL     1       1.273   9.146  19.624  0.00  0.00    +0.000 A 
ATOM     20  C   UNL     1       1.611   8.051  20.434  0.00  0.00    +0.000 A 
ATOM     21  C   UNL     1       2.258   6.932  19.905  0.00  0.00    +0.000 A 
ATOM     22  C   UNL     1       2.557   6.877  18.545  0.00  0.00    +0.000 A 
ATOM     23  C   UNL     1       2.264   7.973  17.736  0.00  0.00    +0.000 A 
ATOM     24  C   UNL     1       1.611   9.092  18.266  0.00  0.00    +0.000 A 
BRANCH  22  25
ATOM     25  O   UNL     1       3.122   5.802  17.912  0.00  0.00    +0.000 OA
BRANCH  25  26
ATOM     26  C   UNL     1       2.267   4.662  17.797  0.00  0.00    +0.000 C 
BRANCH  26  27
ATOM     27  C   UNL     1       2.262   3.904  19.098  0.00  0.00    +0.000 A 
ATOM     28  C   UNL     1       3.453   3.401  19.634  0.00  0.00    +0.000 A 
ATOM     29  C   UNL     1       3.443   2.710  20.847  0.00  0.00    +0.000 A 
ATOM     30  C   UNL     1       2.244   2.517  21.534  0.00  0.00    +0.000 A 
ATOM     31  C   UNL     1       1.053   3.011  21.007  0.00  0.00    +0.000 A 
ATOM     32  C   UNL     1       1.060   3.701  19.794  0.00  0.00    +0.000 A 
ENDBRANCH  26  27
ENDBRANCH  25  26
ENDBRANCH  22  25
ENDBRANCH   7  19
BRANCH   6  33
ATOM     33  C   UNL     1       0.228   9.658  22.731  0.00  0.00    +0.000 C 
ATOM     34  N   UNL     1      -0.875   8.903  23.014  0.00  0.00    +0.000 N 
ATOM     35  O   UNL     1       1.216   9.598  23.457  0.00  0.00    +0.000 OA
ATOM     36  H   UNL     1      -1.751   9.087  22.537  0.00  0.00    +0.000 HD
ATOM     37  H   UNL     1      -0.879   8.394  23.886  0.00  0.00    +0.000 HD
ENDBRANCH   6  33
TORSDOF 7
ENDMDL
