MODEL 1
REMARK VINA RESULT:      -8.8      0.000      0.000
REMARK  Name = 
REMARK  5 active torsions:
REMARK  status: ('A' for Active; 'I' for Inactive)
REMARK    1  A    between atoms: O_1  and  C_2
REMARK    2  A    between atoms: C_8  and  C_9
REMARK    3  A    between atoms: C_9  and  C_10
REMARK    4  A    between atoms: C_10  and  N_11
REMARK    5  A    between atoms: N_14  and  C_15
REMARK                            x       y       z     vdW  Elec       q    Type
REMARK                         _______ _______ _______ _____ _____    ______ ____
ROOT
ATOM      1  N   UNL     1       7.643   7.095  17.558  0.00  0.00    +0.000 NA
ATOM      2  C   UNL     1       7.753   5.958  18.504  0.00  0.00    +0.000 C 
ATOM      3  C   UNL     1       6.477   5.547  19.294  0.00  0.00    +0.000 C 
ATOM      4  N   UNL     1       5.229   5.618  18.506  0.00  0.00    +0.000 N 
ATOM      5  C   UNL     1       5.156   6.695  17.497  0.00  0.00    +0.000 C 
ATOM      6  C   UNL     1       6.466   6.820  16.706  0.00  0.00    +0.000 C 
ENDROOT
BRANCH   4   7
ATOM      7  C   UNL     1       4.401   4.514  18.254  0.00  0.00    +0.000 A 
ATOM      8  C   UNL     1       4.651   3.657  17.172  0.00  0.00    +0.000 A 
ATOM      9  C   UNL     1       3.743   2.660  16.811  0.00  0.00    +0.000 A 
ATOM     10  C   UNL     1       2.556   2.505  17.519  0.00  0.00    +0.000 A 
ATOM     11  C   UNL     1       2.278   3.311  18.627  0.00  0.00    +0.000 A 
ATOM     12  C   UNL     1       1.061   3.164  19.319  0.00  0.00    +0.000 A 
ATOM     13  C   UNL     1       0.758   3.955  20.428  0.00  0.00    +0.000 A 
ATOM     14  C   UNL     1       1.693   4.863  20.895  0.00  0.00    +0.000 A 
ATOM     15  C   UNL     1       2.911   5.000  20.228  0.00  0.00    +0.000 A 
ATOM     16  C   UNL     1       3.217   4.286  19.040  0.00  0.00    +0.000 A 
ENDBRANCH   4   7
BRANCH   1  17
ATOM     17  C   UNL     1       7.513   8.419  18.212  0.00  0.00    +0.000 C 
BRANCH  17  18
ATOM     18  C   UNL     1       8.450   9.481  17.622  0.00  0.00    +0.000 C 
BRANCH  18  25
ATOM     19  C   UNL     1      11.774  12.836  17.446  0.00  0.00    +0.000 A 
ATOM     20  C   UNL     1      12.229  13.212  18.704  0.00  0.00    +0.000 A 
ATOM     21  C   UNL     1      11.662  12.657  19.854  0.00  0.00    +0.000 A 
ATOM     22  C   UNL     1      10.638  11.717  19.686  0.00  0.00    +0.000 A 
ATOM     23  N   UNL     1       9.924  11.014  20.625  0.00  0.00    +0.000 N 
ATOM     24  C   UNL     1       9.034  10.175  20.020  0.00  0.00    +0.000 A 
ATOM     25  C   UNL     1       9.171  10.307  18.650  0.00  0.00    +0.000 A 
ATOM     26  C   UNL     1      10.171  11.311  18.432  0.00  0.00    +0.000 A 
ATOM     27  C   UNL     1      10.754  11.895  17.287  0.00  0.00    +0.000 A 
ATOM     28  H   UNL     1      10.067  11.089  21.626  0.00  0.00    +0.000 HD
BRANCH  19  29
ATOM     29  O   UNL     1      12.321  13.370  16.313  0.00  0.00    +0.000 OA
ATOM     30  H   UNL     1      12.093  12.801  15.562  0.00  0.00    +0.000 HD
ENDBRANCH  19  29
ENDBRANCH  18  25
ENDBRANCH  17  18
ENDBRANCH   1  17
TORSDOF 5
ENDMDL
MODEL 2
REMARK VINA RESULT:      -8.5      1.914      2.357
REMARK  Name = 
REMARK  5 active torsions:
REMARK  status: ('A' for Active; 'I' for Inactive)
REMARK    1  A    between atoms: O_1  and  C_2
REMARK    2  A    between atoms: C_8  and  C_9
REMARK    3  A    between atoms: C_9  and  C_10
REMARK    4  A    between atoms: C_10  and  N_11
REMARK    5  A    between atoms: N_14  and  C_15
REMARK                            x       y       z     vdW  Elec       q    Type
REMARK                         _______ _______ _______ _____ _____    ______ ____
ROOT
ATOM      1  N   UNL     1       7.679   7.123  17.133  0.00  0.00    +0.000 NA
ATOM      2  C   UNL     1       7.818   6.050  18.147  0.00  0.00    +0.000 C 
ATOM      3  C   UNL     1       6.574   5.711  19.018  0.00  0.00    +0.000 C 
ATOM      4  N   UNL     1       5.293   5.748  18.283  0.00  0.00    +0.000 N 
ATOM      5  C   UNL     1       5.188   6.757  17.209  0.00  0.00    +0.000 C 
ATOM      6  C   UNL     1       6.462   6.810  16.354  0.00  0.00    +0.000 C 
ENDROOT
BRANCH   4   7
ATOM      7  C   UNL     1       4.441   4.643  18.142  0.00  0.00    +0.000 A 
ATOM      8  C   UNL     1       4.645   3.701  17.122  0.00  0.00    +0.000 A 
ATOM      9  C   UNL     1       3.711   2.695  16.867  0.00  0.00    +0.000 A 
ATOM     10  C   UNL     1       2.544   2.615  17.620  0.00  0.00    +0.000 A 
ATOM     11  C   UNL     1       2.313   3.508  18.671  0.00  0.00    +0.000 A 
ATOM     12  C   UNL     1       1.116   3.435  19.408  0.00  0.00    +0.000 A 
ATOM     13  C   UNL     1       0.860   4.314  20.462  0.00  0.00    +0.000 A 
ATOM     14  C   UNL     1       1.823   5.239  20.828  0.00  0.00    +0.000 A 
ATOM     15  C   UNL     1       3.021   5.304  20.117  0.00  0.00    +0.000 A 
ATOM     16  C   UNL     1       3.279   4.495  18.978  0.00  0.00    +0.000 A 
ENDBRANCH   4   7
BRANCH   1  17
ATOM     17  C   UNL     1       7.594   8.489  17.703  0.00  0.00    +0.000 C 
BRANCH  17  18
ATOM     18  C   UNL     1       8.661   8.767  18.770  0.00  0.00    +0.000 C 
BRANCH  18  25
ATOM     19  C   UNL     1       9.187  12.058  22.120  0.00  0.00    +0.000 A 
ATOM     20  C   UNL     1       9.572  13.293  21.610  0.00  0.00    +0.000 A 
ATOM     21  C   UNL     1       9.824  13.443  20.244  0.00  0.00    +0.000 A 
ATOM     22  C   UNL     1       9.666  12.317  19.426  0.00  0.00    +0.000 A 
ATOM     23  N   UNL     1       9.830  12.185  18.069  0.00  0.00    +0.000 N 
ATOM     24  C   UNL     1       9.543  10.910  17.675  0.00  0.00    +0.000 A 
ATOM     25  C   UNL     1       9.161  10.184  18.789  0.00  0.00    +0.000 A 
ATOM     26  C   UNL     1       9.267  11.068  19.912  0.00  0.00    +0.000 A 
ATOM     27  C   UNL     1       9.030  10.941  21.297  0.00  0.00    +0.000 A 
ATOM     28  H   UNL     1      10.096  12.941  17.449  0.00  0.00    +0.000 HD
BRANCH  19  29
ATOM     29  O   UNL     1       8.937  11.898  23.455  0.00  0.00    +0.000 OA
ATOM     30  H   UNL     1       8.444  12.670  23.772  0.00  0.00    +0.000 HD
ENDBRANCH  19  29
ENDBRANCH  18  25
ENDBRANCH  17  18
ENDBRANCH   1  17
TORSDOF 5
ENDMDL
MODEL 3
REMARK VINA RESULT:      -8.2      1.511      1.570
REMARK  Name = 
REMARK  5 active torsions:
REMARK  status: ('A' for Active; 'I' for Inactive)
REMARK    1  A    between atoms: O_1  and  C_2
REMARK    2  A    between atoms: C_8  and  C_9
REMARK    3  A    between atoms: C_9  and  C_10
REMARK    4  A    between atoms: C_10  and  N_11
REMARK    5  A    between atoms: N_14  and  C_15
REMARK                            x       y       z     vdW  Elec       q    Type
REMARK                         _______ _______ _______ _____ _____    ______ ____
ROOT
ATOM      1  N   UNL     1       7.438   7.166  17.204  0.00  0.00    +0.000 NA
ATOM      2  C   UNL     1       7.687   6.039  18.136  0.00  0.00    +0.000 C 
ATOM      3  C   UNL     1       6.518   5.592  19.061  0.00  0.00    +0.000 C 
ATOM      4  N   UNL     1       5.190   5.617  18.412  0.00  0.00    +0.000 N 
ATOM      5  C   UNL     1       4.974   6.685  17.413  0.00  0.00    +0.000 C 
ATOM      6  C   UNL     1       6.186   6.847  16.485  0.00  0.00    +0.000 C 
ENDROOT
BRANCH   4   7
ATOM      7  C   UNL     1       4.378   4.486  18.254  0.00  0.00    +0.000 A 
ATOM      8  C   UNL     1       4.634   3.548  17.242  0.00  0.00    +0.000 A 
ATOM      9  C   UNL     1       3.737   2.514  16.968  0.00  0.00    +0.000 A 
ATOM     10  C   UNL     1       2.557   2.399  17.694  0.00  0.00    +0.000 A 
ATOM     11  C   UNL     1       2.274   3.286  18.736  0.00  0.00    +0.000 A 
ATOM     12  C   UNL     1       1.063   3.178  19.446  0.00  0.00    +0.000 A 
ATOM     13  C   UNL     1       0.755   4.050  20.492  0.00  0.00    +0.000 A 
ATOM     14  C   UNL     1       1.680   5.006  20.878  0.00  0.00    +0.000 A 
ATOM     15  C   UNL     1       2.892   5.106  20.194  0.00  0.00    +0.000 A 
ATOM     16  C   UNL     1       3.202   4.304  19.064  0.00  0.00    +0.000 A 
ENDBRANCH   4   7
BRANCH   1  17
ATOM     17  C   UNL     1       7.336   8.489  17.864  0.00  0.00    +0.000 C 
BRANCH  17  18
ATOM     18  C   UNL     1       8.459   9.454  17.465  0.00  0.00    +0.000 C 
BRANCH  18  25
ATOM     19  C   UNL     1       8.336  14.152  17.964  0.00  0.00    +0.000 A 
ATOM     20  C   UNL     1       8.967  14.589  19.122  0.00  0.00    +0.000 A 
ATOM     21  C   UNL     1       9.497  13.666  20.027  0.00  0.00    +0.000 A 
ATOM     22  C   UNL     1       9.373  12.306  19.717  0.00  0.00    +0.000 A 
ATOM     23  N   UNL     1       9.808  11.202  20.409  0.00  0.00    +0.000 N 
ATOM     24  C   UNL     1       9.500  10.060  19.728  0.00  0.00    +0.000 A 
ATOM     25  C   UNL     1       8.866  10.412  18.550  0.00  0.00    +0.000 A 
ATOM     26  C   UNL     1       8.755  11.841  18.552  0.00  0.00    +0.000 A 
ATOM     27  C   UNL     1       8.219  12.794  17.661  0.00  0.00    +0.000 A 
ATOM     28  H   UNL     1      10.315  11.240  21.285  0.00  0.00    +0.000 HD
BRANCH  19  29
ATOM     29  O   UNL     1       7.813  15.044  17.069  0.00  0.00    +0.000 OA
ATOM     30  H   UNL     1       8.409  15.807  17.010  0.00  0.00    +0.000 HD
ENDBRANCH  19  29
ENDBRANCH  18  25
ENDBRANCH  17  18
ENDBRANCH   1  17
TORSDOF 5
ENDMDL
MODEL 4
REMARK VINA RESULT:      -8.0      4.191      6.950
REMARK  Name = 
REMARK  5 active torsions:
REMARK  status: ('A' for Active; 'I' for Inactive)
REMARK    1  A    between atoms: O_1  and  C_2
REMARK    2  A    between atoms: C_8  and  C_9
REMARK    3  A    between atoms: C_9  and  C_10
REMARK    4  A    between atoms: C_10  and  N_11
REMARK    5  A    between atoms: N_14  and  C_15
REMARK                            x       y       z     vdW  Elec       q    Type
REMARK                         _______ _______ _______ _____ _____    ______ ____
ROOT
ATOM      1  N   UNL     1       1.938   4.352  18.889  0.00  0.00    +0.000 NA
ATOM      2  C   UNL     1       1.467   4.951  20.162  0.00  0.00    +0.000 C 
ATOM      3  C   UNL     1       2.067   6.324  20.582  0.00  0.00    +0.000 C 
ATOM      4  N   UNL     1       2.273   7.263  19.460  0.00  0.00    +0.000 N 
ATOM      5  C   UNL     1       2.653   6.658  18.167  0.00  0.00    +0.000 C 
ATOM      6  C   UNL     1       1.818   5.406  17.860  0.00  0.00    +0.000 C 
ENDROOT
BRANCH   4   7
ATOM      7  C   UNL     1       1.653   8.517  19.368  0.00  0.00    +0.000 A 
ATOM      8  C   UNL     1       1.826   9.326  18.235  0.00  0.00    +0.000 A 
ATOM      9  C   UNL     1       1.356  10.640  18.203  0.00  0.00    +0.000 A 
ATOM     10  C   UNL     1       0.709  11.179  19.310  0.00  0.00    +0.000 A 
ATOM     11  C   UNL     1       0.480  10.402  20.449  0.00  0.00    +0.000 A 
ATOM     12  C   UNL     1      -0.150  10.967  21.573  0.00  0.00    +0.000 A 
ATOM     13  C   UNL     1      -0.392  10.213  22.723  0.00  0.00    +0.000 A 
ATOM     14  C   UNL     1      -0.057   8.870  22.741  0.00  0.00    +0.000 A 
ATOM     15  C   UNL     1       0.548   8.296  21.623  0.00  0.00    +0.000 A 
ATOM     16  C   UNL     1       0.899   9.050  20.472  0.00  0.00    +0.000 A 
ENDBRANCH   4   7
BRANCH   1  17
ATOM     17  C   UNL     1       3.325   3.832  18.941  0.00  0.00    +0.000 C 
BRANCH  17  18
ATOM     18  C   UNL     1       3.905   3.515  17.556  0.00  0.00    +0.000 C 
BRANCH  18  25
ATOM     19  C   UNL     1       7.583   5.755  19.502  0.00  0.00    +0.000 A 
ATOM     20  C   UNL     1       8.139   6.713  18.662  0.00  0.00    +0.000 A 
ATOM     21  C   UNL     1       7.646   6.885  17.366  0.00  0.00    +0.000 A 
ATOM     22  C   UNL     1       6.581   6.069  16.961  0.00  0.00    +0.000 A 
ATOM     23  N   UNL     1       5.904   6.034  15.768  0.00  0.00    +0.000 N 
ATOM     24  C   UNL     1       4.909   5.101  15.810  0.00  0.00    +0.000 A 
ATOM     25  C   UNL     1       4.912   4.516  17.064  0.00  0.00    +0.000 A 
ATOM     26  C   UNL     1       5.996   5.109  17.791  0.00  0.00    +0.000 A 
ATOM     27  C   UNL     1       6.520   4.948  19.091  0.00  0.00    +0.000 A 
ATOM     28  H   UNL     1       6.099   6.643  14.981  0.00  0.00    +0.000 HD
BRANCH  19  29
ATOM     29  O   UNL     1       8.056   5.577  20.773  0.00  0.00    +0.000 OA
ATOM     30  H   UNL     1       8.843   5.013  20.733  0.00  0.00    +0.000 HD
ENDBRANCH  19  29
ENDBRANCH  18  25
ENDBRANCH  17  18
ENDBRANCH   1  17
TORSDOF 5
ENDMDL
MODEL 5
REMARK VINA RESULT:      -7.9      5.565      7.991
REMARK  Name = 
REMARK  5 active torsions:
REMARK  status: ('A' for Active; 'I' for Inactive)
REMARK    1  A    between atoms: O_1  and  C_2
REMARK    2  A    between atoms: C_8  and  C_9
REMARK    3  A    between atoms: C_9  and  C_10
REMARK    4  A    between atoms: C_10  and  N_11
REMARK    5  A    between atoms: N_14  and  C_15
REMARK                            x       y       z     vdW  Elec       q    Type
REMARK                         _______ _______ _______ _____ _____    ______ ____
ROOT
ATOM      1  N   UNL     1       4.286   5.866  18.355  0.00  0.00    +0.000 NA
ATOM      2  C   UNL     1       4.241   7.297  17.970  0.00  0.00    +0.000 C 
ATOM      3  C   UNL     1       2.851   7.996  17.938  0.00  0.00    +0.000 C 
ATOM      4  N   UNL     1       1.944   7.589  19.031  0.00  0.00    +0.000 N 
ATOM      5  C   UNL     1       2.054   6.185  19.479  0.00  0.00    +0.000 C 
ATOM      6  C   UNL     1       3.519   5.745  19.614  0.00  0.00    +0.000 C 
ENDROOT
BRANCH   4   7
ATOM      7  C   UNL     1       1.425   8.476  19.985  0.00  0.00    +0.000 A 
ATOM      8  C   UNL     1       1.715   8.320  21.349  0.00  0.00    +0.000 A 
ATOM      9  C   UNL     1       1.071   9.088  22.320  0.00  0.00    +0.000 A 
ATOM     10  C   UNL     1       0.112  10.025  21.949  0.00  0.00    +0.000 A 
ATOM     11  C   UNL     1      -0.186  10.243  20.601  0.00  0.00    +0.000 A 
ATOM     12  C   UNL     1      -1.178  11.173  20.239  0.00  0.00    +0.000 A 
ATOM     13  C   UNL     1      -1.495  11.410  18.900  0.00  0.00    +0.000 A 
ATOM     14  C   UNL     1      -0.784  10.762  17.905  0.00  0.00    +0.000 A 
ATOM     15  C   UNL     1       0.217   9.854  18.254  0.00  0.00    +0.000 A 
ATOM     16  C   UNL     1       0.502   9.512  19.603  0.00  0.00    +0.000 A 
ENDBRANCH   4   7
BRANCH   1  17
ATOM     17  C   UNL     1       3.747   4.944  17.328  0.00  0.00    +0.000 C 
BRANCH  17  18
ATOM     18  C   UNL     1       4.783   3.935  16.816  0.00  0.00    +0.000 C 
BRANCH  18  25
ATOM     19  C   UNL     1       5.875   3.346  12.256  0.00  0.00    +0.000 A 
ATOM     20  C   UNL     1       7.026   4.031  11.882  0.00  0.00    +0.000 A 
ATOM     21  C   UNL     1       7.693   4.842  12.804  0.00  0.00    +0.000 A 
ATOM     22  C   UNL     1       7.164   4.927  14.098  0.00  0.00    +0.000 A 
ATOM     23  N   UNL     1       7.616   5.627  15.189  0.00  0.00    +0.000 N 
ATOM     24  C   UNL     1       6.811   5.404  16.268  0.00  0.00    +0.000 A 
ATOM     25  C   UNL     1       5.814   4.522  15.893  0.00  0.00    +0.000 A 
ATOM     26  C   UNL     1       6.017   4.239  14.502  0.00  0.00    +0.000 A 
ATOM     27  C   UNL     1       5.356   3.435  13.549  0.00  0.00    +0.000 A 
ATOM     28  H   UNL     1       8.451   6.202  15.194  0.00  0.00    +0.000 HD
BRANCH  19  29
ATOM     29  O   UNL     1       5.213   2.548  11.364  0.00  0.00    +0.000 OA
ATOM     30  H   UNL     1       4.353   2.311  11.742  0.00  0.00    +0.000 HD
ENDBRANCH  19  29
ENDBRANCH  18  25
ENDBRANCH  17  18
ENDBRANCH   1  17
TORSDOF 5
ENDMDL
MODEL 6
REMARK VINA RESULT:      -7.8      7.438     10.364
REMARK  Name = 
REMARK  5 active torsions:
REMARK  status: ('A' for Active; 'I' for Inactive)
REMARK    1  A    between atoms: O_1  and  C_2
REMARK    2  A    between atoms: C_8  and  C_9
REMARK    3  A    between atoms: C_9  and  C_10
REMARK    4  A    between atoms: C_10  and  N_11
REMARK    5  A    between atoms: N_14  and  C_15
REMARK                            x       y       z     vdW  Elec       q    Type
REMARK                         _______ _______ _______ _____ _____    ______ ____
ROOT
ATOM      1  N   UNL     1      -0.270  10.139  20.046  0.00  0.00    +0.000 NA
ATOM      2  C   UNL     1       0.241   9.702  18.724  0.00  0.00    +0.000 C 
ATOM      3  C   UNL     1       1.650   9.043  18.675  0.00  0.00    +0.000 C 
ATOM      4  N   UNL     1       1.938   8.144  19.811  0.00  0.00    +0.000 N 
ATOM      5  C   UNL     1       1.350   8.530  21.111  0.00  0.00    +0.000 C 
ATOM      6  C   UNL     1      -0.108   8.988  20.960  0.00  0.00    +0.000 C 
ENDROOT
BRANCH   4   7
ATOM      7  C   UNL     1       2.224   6.779  19.674  0.00  0.00    +0.000 A 
ATOM      8  C   UNL     1       1.678   5.834  20.555  0.00  0.00    +0.000 A 
ATOM      9  C   UNL     1       2.088   4.500  20.534  0.00  0.00    +0.000 A 
ATOM     10  C   UNL     1       3.064   4.081  19.636  0.00  0.00    +0.000 A 
ATOM     11  C   UNL     1       3.612   4.976  18.713  0.00  0.00    +0.000 A 
ATOM     12  C   UNL     1       4.620   4.548  17.828  0.00  0.00    +0.000 A 
ATOM     13  C   UNL     1       5.184   5.421  16.896  0.00  0.00    +0.000 A 
ATOM     14  C   UNL     1       4.708   6.718  16.800  0.00  0.00    +0.000 A 
ATOM     15  C   UNL     1       3.695   7.144  17.659  0.00  0.00    +0.000 A 
ATOM     16  C   UNL     1       3.163   6.318  18.684  0.00  0.00    +0.000 A 
ENDBRANCH   4   7
BRANCH   1  17
ATOM     17  C   UNL     1       0.409  11.337  20.594  0.00  0.00    +0.000 C 
BRANCH  17  18
ATOM     18  C   UNL     1      -0.341  11.972  21.773  0.00  0.00    +0.000 C 
BRANCH  18  25
ATOM     19  C   UNL     1      -4.367  12.651  24.152  0.00  0.00    +0.000 A 
ATOM     20  C   UNL     1      -5.412  13.071  23.338  0.00  0.00    +0.000 A 
ATOM     21  C   UNL     1      -5.194  13.310  21.978  0.00  0.00    +0.000 A 
ATOM     22  C   UNL     1      -3.901  13.105  21.481  0.00  0.00    +0.000 A 
ATOM     23  N   UNL     1      -3.415  13.247  20.205  0.00  0.00    +0.000 N 
ATOM     24  C   UNL     1      -2.093  12.913  20.156  0.00  0.00    +0.000 A 
ATOM     25  C   UNL     1      -1.695  12.521  21.421  0.00  0.00    +0.000 A 
ATOM     26  C   UNL     1      -2.836  12.670  22.276  0.00  0.00    +0.000 A 
ATOM     27  C   UNL     1      -3.081  12.446  23.647  0.00  0.00    +0.000 A 
ATOM     28  H   UNL     1      -3.975  13.531  19.409  0.00  0.00    +0.000 HD
BRANCH  19  29
ATOM     29  O   UNL     1      -4.567  12.413  25.483  0.00  0.00    +0.000 OA
ATOM     30  H   UNL     1      -3.927  11.748  25.778  0.00  0.00    +0.000 HD
ENDBRANCH  19  29
ENDBRANCH  18  25
ENDBRANCH  17  18
ENDBRANCH   1  17
TORSDOF 5
ENDMDL
MODEL 7
REMARK VINA RESULT:      -7.7      6.710      9.493
REMARK  Name = 
REMARK  5 active torsions:
REMARK  status: ('A' for Active; 'I' for Inactive)
REMARK    1  A    between atoms: O_1  and  C_2
REMARK    2  A    between atoms: C_8  and  C_9
REMARK    3  A    between atoms: C_9  and  C_10
REMARK    4  A    between atoms: C_10  and  N_11
REMARK    5  A    between atoms: N_14  and  C_15
REMARK                            x       y       z     vdW  Elec       q    Type
REMARK                         _______ _______ _______ _____ _____    ______ ____
ROOT
ATOM      1  N   UNL     1       1.316  10.179  19.681  0.00  0.00    +0.000 NA
ATOM      2  C   UNL     1       1.833   9.103  20.562  0.00  0.00    +0.000 C 
ATOM      3  C   UNL     1       1.696   7.634  20.069  0.00  0.00    +0.000 C 
ATOM      4  N   UNL     1       1.935   7.458  18.621  0.00  0.00    +0.000 N 
ATOM      5  C   UNL     1       1.504   8.571  17.750  0.00  0.00    +0.000 C 
ATOM      6  C   UNL     1       1.891   9.935  18.341  0.00  0.00    +0.000 C 
ENDROOT
BRANCH   4   7
ATOM      7  C   UNL     1       2.951   6.650  18.090  0.00  0.00    +0.000 A 
ATOM      8  C   UNL     1       4.086   7.218  17.491  0.00  0.00    +0.000 A 
ATOM      9  C   UNL     1       5.017   6.432  16.811  0.00  0.00    +0.000 A 
ATOM     10  C   UNL     1       4.829   5.057  16.705  0.00  0.00    +0.000 A 
ATOM     11  C   UNL     1       3.733   4.440  17.314  0.00  0.00    +0.000 A 
ATOM     12  C   UNL     1       3.537   3.053  17.176  0.00  0.00    +0.000 A 
ATOM     13  C   UNL     1       2.452   2.411  17.775  0.00  0.00    +0.000 A 
ATOM     14  C   UNL     1       1.581   3.139  18.567  0.00  0.00    +0.000 A 
ATOM     15  C   UNL     1       1.780   4.511  18.728  0.00  0.00    +0.000 A 
ATOM     16  C   UNL     1       2.813   5.218  18.057  0.00  0.00    +0.000 A 
ENDBRANCH   4   7
BRANCH   1  17
ATOM     17  C   UNL     1      -0.162  10.246  19.608  0.00  0.00    +0.000 C 
BRANCH  17  18
ATOM     18  C   UNL     1      -0.712  11.670  19.755  0.00  0.00    +0.000 C 
BRANCH  18  25
ATOM     19  C   UNL     1      -3.093  10.798  15.767  0.00  0.00    +0.000 A 
ATOM     20  C   UNL     1      -4.407  11.248  15.812  0.00  0.00    +0.000 A 
ATOM     21  C   UNL     1      -4.914  11.826  16.979  0.00  0.00    +0.000 A 
ATOM     22  C   UNL     1      -4.053  11.936  18.078  0.00  0.00    +0.000 A 
ATOM     23  N   UNL     1      -4.279  12.466  19.324  0.00  0.00    +0.000 N 
ATOM     24  C   UNL     1      -3.148  12.397  20.085  0.00  0.00    +0.000 A 
ATOM     25  C   UNL     1      -2.144  11.828  19.324  0.00  0.00    +0.000 A 
ATOM     26  C   UNL     1      -2.723  11.504  18.054  0.00  0.00    +0.000 A 
ATOM     27  C   UNL     1      -2.240  10.914  16.867  0.00  0.00    +0.000 A 
ATOM     28  H   UNL     1      -5.156  12.879  19.619  0.00  0.00    +0.000 HD
BRANCH  19  29
ATOM     29  O   UNL     1      -2.584  10.231  14.631  0.00  0.00    +0.000 OA
ATOM     30  H   UNL     1      -3.208  10.381  13.905  0.00  0.00    +0.000 HD
ENDBRANCH  19  29
ENDBRANCH  18  25
ENDBRANCH  17  18
ENDBRANCH   1  17
TORSDOF 5
ENDMDL
MODEL 8
REMARK VINA RESULT:      -7.7      5.388      7.557
REMARK  Name = 
REMARK  5 active torsions:
REMARK  status: ('A' for Active; 'I' for Inactive)
REMARK    1  A    between atoms: O_1  and  C_2
REMARK    2  A    between atoms: C_8  and  C_9
REMARK    3  A    between atoms: C_9  and  C_10
REMARK    4  A    between atoms: C_10  and  N_11
REMARK    5  A    between atoms: N_14  and  C_15
REMARK                            x       y       z     vdW  Elec       q    Type
REMARK                         _______ _______ _______ _____ _____    ______ ____
ROOT
ATOM      1  N   UNL     1       1.843   4.085  19.259  0.00  0.00    +0.000 NA
ATOM      2  C   UNL     1       1.203   4.795  20.393  0.00  0.00    +0.000 C 
ATOM      3  C   UNL     1       1.794   6.172  20.812  0.00  0.00    +0.000 C 
ATOM      4  N   UNL     1       2.225   7.016  19.678  0.00  0.00    +0.000 N 
ATOM      5  C   UNL     1       2.778   6.301  18.508  0.00  0.00    +0.000 C 
ATOM      6  C   UNL     1       1.942   5.063  18.154  0.00  0.00    +0.000 C 
ENDROOT
BRANCH   4   7
ATOM      7  C   UNL     1       1.690   8.281  19.399  0.00  0.00    +0.000 A 
ATOM      8  C   UNL     1       1.949   8.922  18.178  0.00  0.00    +0.000 A 
ATOM      9  C   UNL     1       1.566  10.246  17.958  0.00  0.00    +0.000 A 
ATOM     10  C   UNL     1       0.923  10.965  18.960  0.00  0.00    +0.000 A 
ATOM     11  C   UNL     1       0.610  10.360  20.181  0.00  0.00    +0.000 A 
ATOM     12  C   UNL     1      -0.017  11.105  21.198  0.00  0.00    +0.000 A 
ATOM     13  C   UNL     1      -0.341  10.526  22.426  0.00  0.00    +0.000 A 
ATOM     14  C   UNL     1      -0.095   9.179  22.631  0.00  0.00    +0.000 A 
ATOM     15  C   UNL     1       0.505   8.427  21.620  0.00  0.00    +0.000 A 
ATOM     16  C   UNL     1       0.939   9.000  20.395  0.00  0.00    +0.000 A 
ENDBRANCH   4   7
BRANCH   1  17
ATOM     17  C   UNL     1       3.177   3.519  19.572  0.00  0.00    +0.000 C 
BRANCH  17  18
ATOM     18  C   UNL     1       3.919   2.997  18.335  0.00  0.00    +0.000 C 
BRANCH  18  25
ATOM     19  C   UNL     1       5.874   4.109  14.179  0.00  0.00    +0.000 A 
ATOM     20  C   UNL     1       7.049   4.839  14.312  0.00  0.00    +0.000 A 
ATOM     21  C   UNL     1       7.501   5.222  15.577  0.00  0.00    +0.000 A 
ATOM     22  C   UNL     1       6.735   4.839  16.686  0.00  0.00    +0.000 A 
ATOM     23  N   UNL     1       6.947   5.064  18.023  0.00  0.00    +0.000 N 
ATOM     24  C   UNL     1       5.961   4.485  18.768  0.00  0.00    +0.000 A 
ATOM     25  C   UNL     1       5.085   3.846  17.910  0.00  0.00    +0.000 A 
ATOM     26  C   UNL     1       5.556   4.094  16.579  0.00  0.00    +0.000 A 
ATOM     27  C   UNL     1       5.117   3.729  15.289  0.00  0.00    +0.000 A 
ATOM     28  H   UNL     1       7.746   5.563  18.399  0.00  0.00    +0.000 HD
BRANCH  19  29
ATOM     29  O   UNL     1       5.421   3.728  12.946  0.00  0.00    +0.000 OA
ATOM     30  H   UNL     1       4.934   2.895  13.041  0.00  0.00    +0.000 HD
ENDBRANCH  19  29
ENDBRANCH  18  25
ENDBRANCH  17  18
ENDBRANCH   1  17
TORSDOF 5
ENDMDL
MODEL 9
REMARK VINA RESULT:      -7.6      7.073      9.771
REMARK  Name = 
REMARK  5 active torsions:
REMARK  status: ('A' for Active; 'I' for Inactive)
REMARK    1  A    between atoms: O_1  and  C_2
REMARK    2  A    between atoms: C_8  and  C_9
REMARK    3  A    between atoms: C_9  and  C_10
REMARK    4  A    between atoms: C_10  and  N_11
REMARK    5  A    between atoms: N_14  and  C_15
REMARK                            x       y       z     vdW  Elec       q    Type
REMARK                         _______ _______ _______ _____ _____    ______ ____
ROOT
ATOM      1  N   UNL     1       1.295  10.175  19.247  0.00  0.00    +0.000 NA
ATOM      2  C   UNL     1       1.128  11.614  18.930  0.00  0.00    +0.000 C 
ATOM      3  C   UNL     1      -0.239  12.074  18.346  0.00  0.00    +0.000 C 
ATOM      4  N   UNL     1      -1.410  11.401  18.946  0.00  0.00    +0.000 N 
ATOM      5  C   UNL     1      -1.216   9.992  19.347  0.00  0.00    +0.000 C 
ATOM      6  C   UNL     1       0.126   9.786  20.065  0.00  0.00    +0.000 C 
ENDROOT
BRANCH   4   7
ATOM      7  C   UNL     1      -2.433  12.075  19.628  0.00  0.00    +0.000 A 
ATOM      8  C   UNL     1      -2.187  12.709  20.855  0.00  0.00    +0.000 A 
ATOM      9  C   UNL     1      -3.228  13.234  21.622  0.00  0.00    +0.000 A 
ATOM     10  C   UNL     1      -4.544  13.127  21.183  0.00  0.00    +0.000 A 
ATOM     11  C   UNL     1      -4.838  12.536  19.951  0.00  0.00    +0.000 A 
ATOM     12  C   UNL     1      -6.175  12.408  19.530  0.00  0.00    +0.000 A 
ATOM     13  C   UNL     1      -6.496  11.823  18.305  0.00  0.00    +0.000 A 
ATOM     14  C   UNL     1      -5.480  11.410  17.459  0.00  0.00    +0.000 A 
ATOM     15  C   UNL     1      -4.151  11.553  17.858  0.00  0.00    +0.000 A 
ATOM     16  C   UNL     1      -3.786  12.053  19.136  0.00  0.00    +0.000 A 
ENDBRANCH   4   7
BRANCH   1  17
ATOM     17  C   UNL     1       1.408   9.300  18.055  0.00  0.00    +0.000 C 
BRANCH  17  18
ATOM     18  C   UNL     1       2.841   8.819  17.791  0.00  0.00    +0.000 C 
BRANCH  18  25
ATOM     19  C   UNL     1       5.519   5.473  15.800  0.00  0.00    +0.000 A 
ATOM     20  C   UNL     1       5.264   4.204  16.306  0.00  0.00    +0.000 A 
ATOM     21  C   UNL     1       4.345   4.031  17.344  0.00  0.00    +0.000 A 
ATOM     22  C   UNL     1       3.698   5.171  17.837  0.00  0.00    +0.000 A 
ATOM     23  N   UNL     1       2.754   5.289  18.827  0.00  0.00    +0.000 N 
ATOM     24  C   UNL     1       2.368   6.591  18.967  0.00  0.00    +0.000 A 
ATOM     25  C   UNL     1       3.055   7.352  18.039  0.00  0.00    +0.000 A 
ATOM     26  C   UNL     1       3.926   6.457  17.336  0.00  0.00    +0.000 A 
ATOM     27  C   UNL     1       4.868   6.604  16.296  0.00  0.00    +0.000 A 
ATOM     28  H   UNL     1       2.376   4.509  19.353  0.00  0.00    +0.000 HD
BRANCH  19  29
ATOM     29  O   UNL     1       6.416   5.656  14.784  0.00  0.00    +0.000 OA
ATOM     30  H   UNL     1       7.276   5.308  15.066  0.00  0.00    +0.000 HD
ENDBRANCH  19  29
ENDBRANCH  18  25
ENDBRANCH  17  18
ENDBRANCH   1  17
TORSDOF 5
ENDMDL
