MODEL 1
REMARK VINA RESULT:      -7.7      0.000      0.000
REMARK  Name = 
REMARK  3 active torsions:
REMARK  status: ('A' for Active; 'I' for Inactive)
REMARK    1  A    between atoms: C_2  and  C_3
REMARK    2  A    between atoms: C_3  and  C_4
REMARK    3  A    between atoms: C_12  and  C_13
REMARK                            x       y       z     vdW  Elec       q    Type
REMARK                         _______ _______ _______ _____ _____    ______ ____
ROOT
ATOM      1  O   UNL     1       4.069   1.025  17.570  0.00  0.00    +0.000 OA
ATOM      2  C   UNL     1       3.693   2.204  17.562  0.00  0.00    +0.000 C 
ATOM      3  N   UNL     1       4.591   3.153  17.177  0.00  0.00    +0.000 N 
ATOM      4  C   UNL     1       4.410   4.499  17.250  0.00  0.00    +0.000 A 
ATOM      5  N   UNL     1       3.468   5.162  17.864  0.00  0.00    +0.000 NA
ATOM      6  C   UNL     1       3.661   6.523  17.694  0.00  0.00    +0.000 A 
ATOM      7  C   UNL     1       4.711   6.847  16.855  0.00  0.00    +0.000 A 
ATOM      8  S   UNL     1       5.573   5.424  16.419  0.00  0.00    +0.000 S 
ATOM      9  H   UNL     1       5.474   2.815  16.826  0.00  0.00    +0.000 HD
ENDROOT
BRANCH   6  10
ATOM     10  C   UNL     1       2.782   7.483  18.354  0.00  0.00    +0.000 A 
ATOM     11  C   UNL     1       2.360   8.626  17.656  0.00  0.00    +0.000 A 
ATOM     12  C   UNL     1       1.490   9.546  18.246  0.00  0.00    +0.000 A 
ATOM     13  C   UNL     1       1.034   9.322  19.541  0.00  0.00    +0.000 A 
ATOM     14  F   UNL     1       0.197  10.201  20.105  0.00  0.00    +0.000 F 
ATOM     15  C   UNL     1       1.430   8.202  20.251  0.00  0.00    +0.000 A 
ATOM     16  C   UNL     1       2.298   7.289  19.656  0.00  0.00    +0.000 A 
ATOM     17  F   UNL     1       2.636   6.201  20.364  0.00  0.00    +0.000 F 
ENDBRANCH   6  10
BRANCH   2  18
ATOM     18  C   UNL     1       2.259   2.563  17.916  0.00  0.00    +0.000 C 
BRANCH  18  19
ATOM     19  C   UNL     1       2.031   2.684  19.394  0.00  0.00    +0.000 A 
ATOM     20  C   UNL     1       0.868   2.881  20.112  0.00  0.00    +0.000 A 
ATOM     21  C   UNL     1       1.098   2.947  21.517  0.00  0.00    +0.000 A 
ATOM     22  C   UNL     1       2.428   2.796  21.830  0.00  0.00    +0.000 A 
ATOM     23  S   UNL     1       3.394   2.580  20.438  0.00  0.00    +0.000 S 
ENDBRANCH  18  19
ENDBRANCH   2  18
TORSDOF 3
ENDMDL
MODEL 2
REMARK VINA RESULT:      -7.4      3.786      6.821
REMARK  Name = 
REMARK  3 active torsions:
REMARK  status: ('A' for Active; 'I' for Inactive)
REMARK    1  A    between atoms: C_2  and  C_3
REMARK    2  A    between atoms: C_3  and  C_4
REMARK    3  A    between atoms: C_12  and  C_13
REMARK                            x       y       z     vdW  Elec       q    Type
REMARK                         _______ _______ _______ _____ _____    ______ ____
ROOT
ATOM      1  O   UNL     1       0.856   9.247  21.601  0.00  0.00    +0.000 OA
ATOM      2  C   UNL     1       1.288   8.506  20.708  0.00  0.00    +0.000 C 
ATOM      3  N   UNL     1       1.536   7.206  21.029  0.00  0.00    +0.000 N 
ATOM      4  C   UNL     1       2.149   6.291  20.231  0.00  0.00    +0.000 A 
ATOM      5  N   UNL     1       2.795   6.487  19.113  0.00  0.00    +0.000 NA
ATOM      6  C   UNL     1       3.274   5.281  18.627  0.00  0.00    +0.000 A 
ATOM      7  C   UNL     1       2.879   4.176  19.360  0.00  0.00    +0.000 A 
ATOM      8  S   UNL     1       2.045   4.682  20.776  0.00  0.00    +0.000 S 
ATOM      9  H   UNL     1       1.251   6.912  21.950  0.00  0.00    +0.000 HD
ENDROOT
BRANCH   6  10
ATOM     10  C   UNL     1       4.101   5.244  17.426  0.00  0.00    +0.000 A 
ATOM     11  C   UNL     1       4.500   6.449  16.825  0.00  0.00    +0.000 A 
ATOM     12  C   UNL     1       5.322   6.448  15.695  0.00  0.00    +0.000 A 
ATOM     13  C   UNL     1       5.753   5.238  15.163  0.00  0.00    +0.000 A 
ATOM     14  F   UNL     1       6.544   5.237  14.084  0.00  0.00    +0.000 F 
ATOM     15  C   UNL     1       5.378   4.035  15.737  0.00  0.00    +0.000 A 
ATOM     16  C   UNL     1       4.559   4.043  16.864  0.00  0.00    +0.000 A 
ATOM     17  F   UNL     1       4.242   2.859  17.410  0.00  0.00    +0.000 F 
ENDBRANCH   6  10
BRANCH   2  18
ATOM     18  C   UNL     1       1.478   9.027  19.293  0.00  0.00    +0.000 C 
BRANCH  18  19
ATOM     19  C   UNL     1       0.597  10.198  18.974  0.00  0.00    +0.000 A 
ATOM     20  C   UNL     1      -0.743  10.251  18.641  0.00  0.00    +0.000 A 
ATOM     21  C   UNL     1      -1.194  11.582  18.403  0.00  0.00    +0.000 A 
ATOM     22  C   UNL     1      -0.187  12.505  18.562  0.00  0.00    +0.000 A 
ATOM     23  S   UNL     1       1.293  11.769  18.992  0.00  0.00    +0.000 S 
ENDBRANCH  18  19
ENDBRANCH   2  18
TORSDOF 3
ENDMDL
MODEL 3
REMARK VINA RESULT:      -7.3      4.009      6.599
REMARK  Name = 
REMARK  3 active torsions:
REMARK  status: ('A' for Active; 'I' for Inactive)
REMARK    1  A    between atoms: C_2  and  C_3
REMARK    2  A    between atoms: C_3  and  C_4
REMARK    3  A    between atoms: C_12  and  C_13
REMARK                            x       y       z     vdW  Elec       q    Type
REMARK                         _______ _______ _______ _____ _____    ______ ____
ROOT
ATOM      1  O   UNL     1       8.384   5.441  13.319  0.00  0.00    +0.000 OA
ATOM      2  C   UNL     1       7.411   5.325  14.077  0.00  0.00    +0.000 C 
ATOM      3  N   UNL     1       7.591   5.635  15.390  0.00  0.00    +0.000 N 
ATOM      4  C   UNL     1       6.692   5.427  16.389  0.00  0.00    +0.000 A 
ATOM      5  N   UNL     1       5.588   4.730  16.359  0.00  0.00    +0.000 NA
ATOM      6  C   UNL     1       4.971   4.771  17.600  0.00  0.00    +0.000 A 
ATOM      7  C   UNL     1       5.594   5.599  18.517  0.00  0.00    +0.000 A 
ATOM      8  S   UNL     1       7.070   6.190  17.863  0.00  0.00    +0.000 S 
ATOM      9  H   UNL     1       8.483   6.038  15.635  0.00  0.00    +0.000 HD
ENDROOT
BRANCH   6  10
ATOM     10  C   UNL     1       3.757   4.001  17.847  0.00  0.00    +0.000 A 
ATOM     11  C   UNL     1       3.850   2.618  18.071  0.00  0.00    +0.000 A 
ATOM     12  C   UNL     1       2.710   1.858  18.347  0.00  0.00    +0.000 A 
ATOM     13  C   UNL     1       1.469   2.483  18.404  0.00  0.00    +0.000 A 
ATOM     14  F   UNL     1       0.378   1.757  18.673  0.00  0.00    +0.000 F 
ATOM     15  C   UNL     1       1.348   3.846  18.192  0.00  0.00    +0.000 A 
ATOM     16  C   UNL     1       2.489   4.597  17.918  0.00  0.00    +0.000 A 
ATOM     17  F   UNL     1       2.337   5.919  17.748  0.00  0.00    +0.000 F 
ENDBRANCH   6  10
BRANCH   2  18
ATOM     18  C   UNL     1       6.054   4.905  13.536  0.00  0.00    +0.000 C 
BRANCH  18  19
ATOM     19  C   UNL     1       6.128   3.726  12.612  0.00  0.00    +0.000 A 
ATOM     20  C   UNL     1       7.219   3.033  12.123  0.00  0.00    +0.000 A 
ATOM     21  C   UNL     1       6.843   1.969  11.253  0.00  0.00    +0.000 A 
ATOM     22  C   UNL     1       5.479   1.879  11.105  0.00  0.00    +0.000 A 
ATOM     23  S   UNL     1       4.657   3.074  12.007  0.00  0.00    +0.000 S 
ENDBRANCH  18  19
ENDBRANCH   2  18
TORSDOF 3
ENDMDL
MODEL 4
REMARK VINA RESULT:      -7.3      2.155      4.047
REMARK  Name = 
REMARK  3 active torsions:
REMARK  status: ('A' for Active; 'I' for Inactive)
REMARK    1  A    between atoms: C_2  and  C_3
REMARK    2  A    between atoms: C_3  and  C_4
REMARK    3  A    between atoms: C_12  and  C_13
REMARK                            x       y       z     vdW  Elec       q    Type
REMARK                         _______ _______ _______ _____ _____    ______ ____
ROOT
ATOM      1  O   UNL     1       6.211   3.574  14.652  0.00  0.00    +0.000 OA
ATOM      2  C   UNL     1       5.647   4.237  15.532  0.00  0.00    +0.000 C 
ATOM      3  N   UNL     1       4.714   3.609  16.299  0.00  0.00    +0.000 N 
ATOM      4  C   UNL     1       3.891   4.205  17.202  0.00  0.00    +0.000 A 
ATOM      5  N   UNL     1       3.671   5.479  17.386  0.00  0.00    +0.000 NA
ATOM      6  C   UNL     1       2.750   5.655  18.407  0.00  0.00    +0.000 A 
ATOM      7  C   UNL     1       2.374   4.485  19.041  0.00  0.00    +0.000 A 
ATOM      8  S   UNL     1       3.051   3.133  18.223  0.00  0.00    +0.000 S 
ATOM      9  H   UNL     1       4.621   2.614  16.162  0.00  0.00    +0.000 HD
ENDROOT
BRANCH   6  10
ATOM     10  C   UNL     1       2.275   6.991  18.752  0.00  0.00    +0.000 A 
ATOM     11  C   UNL     1       2.220   7.982  17.759  0.00  0.00    +0.000 A 
ATOM     12  C   UNL     1       1.736   9.261  18.048  0.00  0.00    +0.000 A 
ATOM     13  C   UNL     1       1.300   9.552  19.336  0.00  0.00    +0.000 A 
ATOM     14  F   UNL     1       0.833  10.775  19.612  0.00  0.00    +0.000 F 
ATOM     15  C   UNL     1       1.339   8.593  20.334  0.00  0.00    +0.000 A 
ATOM     16  C   UNL     1       1.823   7.320  20.038  0.00  0.00    +0.000 A 
ATOM     17  F   UNL     1       1.817   6.409  21.023  0.00  0.00    +0.000 F 
ENDBRANCH   6  10
BRANCH   2  18
ATOM     18  C   UNL     1       6.032   5.687  15.776  0.00  0.00    +0.000 C 
BRANCH  18  19
ATOM     19  C   UNL     1       6.875   5.874  17.002  0.00  0.00    +0.000 A 
ATOM     20  C   UNL     1       7.360   4.952  17.910  0.00  0.00    +0.000 A 
ATOM     21  C   UNL     1       8.122   5.559  18.950  0.00  0.00    +0.000 A 
ATOM     22  C   UNL     1       8.197   6.925  18.806  0.00  0.00    +0.000 A 
ATOM     23  S   UNL     1       7.351   7.471  17.426  0.00  0.00    +0.000 S 
ENDBRANCH  18  19
ENDBRANCH   2  18
TORSDOF 3
ENDMDL
MODEL 5
REMARK VINA RESULT:      -7.3      3.706      6.813
REMARK  Name = 
REMARK  3 active torsions:
REMARK  status: ('A' for Active; 'I' for Inactive)
REMARK    1  A    between atoms: C_2  and  C_3
REMARK    2  A    between atoms: C_3  and  C_4
REMARK    3  A    between atoms: C_12  and  C_13
REMARK                            x       y       z     vdW  Elec       q    Type
REMARK                         _______ _______ _______ _____ _____    ______ ____
ROOT
ATOM      1  O   UNL     1       0.806   9.099  21.744  0.00  0.00    +0.000 OA
ATOM      2  C   UNL     1       1.260   8.379  20.845  0.00  0.00    +0.000 C 
ATOM      3  N   UNL     1       1.477   7.066  21.134  0.00  0.00    +0.000 N 
ATOM      4  C   UNL     1       2.107   6.166  20.332  0.00  0.00    +0.000 A 
ATOM      5  N   UNL     1       2.797   6.387  19.246  0.00  0.00    +0.000 NA
ATOM      6  C   UNL     1       3.277   5.189  18.741  0.00  0.00    +0.000 A 
ATOM      7  C   UNL     1       2.838   4.069  19.423  0.00  0.00    +0.000 A 
ATOM      8  S   UNL     1       1.958   4.543  20.822  0.00  0.00    +0.000 S 
ATOM      9  H   UNL     1       1.153   6.748  22.035  0.00  0.00    +0.000 HD
ENDROOT
BRANCH   6  10
ATOM     10  C   UNL     1       4.148   5.176  17.570  0.00  0.00    +0.000 A 
ATOM     11  C   UNL     1       4.627   3.950  17.080  0.00  0.00    +0.000 A 
ATOM     12  C   UNL     1       5.434   3.900  15.940  0.00  0.00    +0.000 A 
ATOM     13  C   UNL     1       5.761   5.081  15.282  0.00  0.00    +0.000 A 
ATOM     14  F   UNL     1       6.530   5.033  14.188  0.00  0.00    +0.000 F 
ATOM     15  C   UNL     1       5.299   6.303  15.741  0.00  0.00    +0.000 A 
ATOM     16  C   UNL     1       4.495   6.345  16.878  0.00  0.00    +0.000 A 
ATOM     17  F   UNL     1       4.042   7.543  17.274  0.00  0.00    +0.000 F 
ENDBRANCH   6  10
BRANCH   2  18
ATOM     18  C   UNL     1       1.512   8.940  19.455  0.00  0.00    +0.000 C 
BRANCH  18  19
ATOM     19  C   UNL     1       0.637  10.114  19.128  0.00  0.00    +0.000 A 
ATOM     20  C   UNL     1      -0.685  10.168  18.731  0.00  0.00    +0.000 A 
ATOM     21  C   UNL     1      -1.134  11.503  18.511  0.00  0.00    +0.000 A 
ATOM     22  C   UNL     1      -0.144  12.427  18.747  0.00  0.00    +0.000 A 
ATOM     23  S   UNL     1       1.319  11.689  19.228  0.00  0.00    +0.000 S 
ENDBRANCH  18  19
ENDBRANCH   2  18
TORSDOF 3
ENDMDL
MODEL 6
REMARK VINA RESULT:      -7.2      1.305      1.709
REMARK  Name = 
REMARK  3 active torsions:
REMARK  status: ('A' for Active; 'I' for Inactive)
REMARK    1  A    between atoms: C_2  and  C_3
REMARK    2  A    between atoms: C_3  and  C_4
REMARK    3  A    between atoms: C_12  and  C_13
REMARK                            x       y       z     vdW  Elec       q    Type
REMARK                         _______ _______ _______ _____ _____    ______ ____
ROOT
ATOM      1  O   UNL     1       4.041   1.893  17.167  0.00  0.00    +0.000 OA
ATOM      2  C   UNL     1       3.542   3.010  17.356  0.00  0.00    +0.000 C 
ATOM      3  N   UNL     1       4.304   4.101  17.065  0.00  0.00    +0.000 N 
ATOM      4  C   UNL     1       3.987   5.393  17.348  0.00  0.00    +0.000 A 
ATOM      5  N   UNL     1       3.029   5.849  18.109  0.00  0.00    +0.000 NA
ATOM      6  C   UNL     1       3.064   7.235  18.132  0.00  0.00    +0.000 A 
ATOM      7  C   UNL     1       4.008   7.793  17.289  0.00  0.00    +0.000 A 
ATOM      8  S   UNL     1       4.979   6.554  16.597  0.00  0.00    +0.000 S 
ATOM      9  H   UNL     1       5.188   3.920  16.616  0.00  0.00    +0.000 HD
ENDROOT
BRANCH   6  10
ATOM     10  C   UNL     1       2.141   7.984  18.978  0.00  0.00    +0.000 A 
ATOM     11  C   UNL     1       1.892   7.543  20.288  0.00  0.00    +0.000 A 
ATOM     12  C   UNL     1       1.042   8.258  21.135  0.00  0.00    +0.000 A 
ATOM     13  C   UNL     1       0.438   9.423  20.675  0.00  0.00    +0.000 A 
ATOM     14  F   UNL     1      -0.373  10.110  21.488  0.00  0.00    +0.000 F 
ATOM     15  C   UNL     1       0.668   9.883  19.389  0.00  0.00    +0.000 A 
ATOM     16  C   UNL     1       1.518   9.165  18.550  0.00  0.00    +0.000 A 
ATOM     17  F   UNL     1       1.740   9.658  17.322  0.00  0.00    +0.000 F 
ENDBRANCH   6  10
BRANCH   2  18
ATOM     18  C   UNL     1       2.109   3.147  17.845  0.00  0.00    +0.000 C 
BRANCH  18  19
ATOM     19  C   UNL     1       1.976   2.988  19.330  0.00  0.00    +0.000 A 
ATOM     20  C   UNL     1       0.866   3.070  20.148  0.00  0.00    +0.000 A 
ATOM     21  C   UNL     1       1.184   2.861  21.522  0.00  0.00    +0.000 A 
ATOM     22  C   UNL     1       2.525   2.623  21.712  0.00  0.00    +0.000 A 
ATOM     23  S   UNL     1       3.396   2.657  20.243  0.00  0.00    +0.000 S 
ENDBRANCH  18  19
ENDBRANCH   2  18
TORSDOF 3
ENDMDL
MODEL 7
REMARK VINA RESULT:      -7.1      2.010      4.089
REMARK  Name = 
REMARK  3 active torsions:
REMARK  status: ('A' for Active; 'I' for Inactive)
REMARK    1  A    between atoms: C_2  and  C_3
REMARK    2  A    between atoms: C_3  and  C_4
REMARK    3  A    between atoms: C_12  and  C_13
REMARK                            x       y       z     vdW  Elec       q    Type
REMARK                         _______ _______ _______ _____ _____    ______ ____
ROOT
ATOM      1  O   UNL     1       5.615   3.519  15.549  0.00  0.00    +0.000 OA
ATOM      2  C   UNL     1       5.115   4.363  16.304  0.00  0.00    +0.000 C 
ATOM      3  N   UNL     1       4.274   3.921  17.280  0.00  0.00    +0.000 N 
ATOM      4  C   UNL     1       3.520   4.703  18.097  0.00  0.00    +0.000 A 
ATOM      5  N   UNL     1       3.281   5.983  18.006  0.00  0.00    +0.000 NA
ATOM      6  C   UNL     1       2.453   6.383  19.043  0.00  0.00    +0.000 A 
ATOM      7  C   UNL     1       2.170   5.388  19.960  0.00  0.00    +0.000 A 
ATOM      8  S   UNL     1       2.808   3.888  19.411  0.00  0.00    +0.000 S 
ATOM      9  H   UNL     1       4.198   2.920  17.383  0.00  0.00    +0.000 HD
ENDROOT
BRANCH   6  10
ATOM     10  C   UNL     1       1.973   7.759  19.118  0.00  0.00    +0.000 A 
ATOM     11  C   UNL     1       1.966   8.552  17.958  0.00  0.00    +0.000 A 
ATOM     12  C   UNL     1       1.479   9.861  17.988  0.00  0.00    +0.000 A 
ATOM     13  C   UNL     1       0.991  10.382  19.182  0.00  0.00    +0.000 A 
ATOM     14  F   UNL     1       0.521  11.635  19.209  0.00  0.00    +0.000 F 
ATOM     15  C   UNL     1       0.982   9.623  20.339  0.00  0.00    +0.000 A 
ATOM     16  C   UNL     1       1.469   8.318  20.302  0.00  0.00    +0.000 A 
ATOM     17  F   UNL     1       1.415   7.602  21.435  0.00  0.00    +0.000 F 
ENDBRANCH   6  10
BRANCH   2  18
ATOM     18  C   UNL     1       5.479   5.833  16.172  0.00  0.00    +0.000 C 
BRANCH  18  19
ATOM     19  C   UNL     1       6.528   6.269  17.150  0.00  0.00    +0.000 A 
ATOM     20  C   UNL     1       7.165   7.486  17.304  0.00  0.00    +0.000 A 
ATOM     21  C   UNL     1       8.117   7.473  18.365  0.00  0.00    +0.000 A 
ATOM     22  C   UNL     1       8.179   6.249  18.989  0.00  0.00    +0.000 A 
ATOM     23  S   UNL     1       7.098   5.122  18.297  0.00  0.00    +0.000 S 
ENDBRANCH  18  19
ENDBRANCH   2  18
TORSDOF 3
ENDMDL
MODEL 8
REMARK VINA RESULT:      -7.1      3.814      6.919
REMARK  Name = 
REMARK  3 active torsions:
REMARK  status: ('A' for Active; 'I' for Inactive)
REMARK    1  A    between atoms: C_2  and  C_3
REMARK    2  A    between atoms: C_3  and  C_4
REMARK    3  A    between atoms: C_12  and  C_13
REMARK                            x       y       z     vdW  Elec       q    Type
REMARK                         _______ _______ _______ _____ _____    ______ ____
ROOT
ATOM      1  O   UNL     1       0.664   9.173  21.516  0.00  0.00    +0.000 OA
ATOM      2  C   UNL     1       1.215   8.442  20.683  0.00  0.00    +0.000 C 
ATOM      3  N   UNL     1       1.488   7.159  21.048  0.00  0.00    +0.000 N 
ATOM      4  C   UNL     1       2.219   6.263  20.331  0.00  0.00    +0.000 A 
ATOM      5  N   UNL     1       2.964   6.476  19.280  0.00  0.00    +0.000 NA
ATOM      6  C   UNL     1       3.543   5.288  18.864  0.00  0.00    +0.000 A 
ATOM      7  C   UNL     1       3.127   4.175  19.572  0.00  0.00    +0.000 A 
ATOM      8  S   UNL     1       2.133   4.658  20.890  0.00  0.00    +0.000 S 
ATOM      9  H   UNL     1       1.126   6.863  21.942  0.00  0.00    +0.000 HD
ENDROOT
BRANCH   6  10
ATOM     10  C   UNL     1       4.487   5.274  17.751  0.00  0.00    +0.000 A 
ATOM     11  C   UNL     1       5.595   6.136  17.776  0.00  0.00    +0.000 A 
ATOM     12  C   UNL     1       6.537   6.122  16.744  0.00  0.00    +0.000 A 
ATOM     13  C   UNL     1       6.375   5.240  15.682  0.00  0.00    +0.000 A 
ATOM     14  F   UNL     1       7.279   5.224  14.695  0.00  0.00    +0.000 F 
ATOM     15  C   UNL     1       5.294   4.376  15.633  0.00  0.00    +0.000 A 
ATOM     16  C   UNL     1       4.359   4.395  16.666  0.00  0.00    +0.000 A 
ATOM     17  F   UNL     1       3.342   3.523  16.599  0.00  0.00    +0.000 F 
ENDBRANCH   6  10
BRANCH   2  18
ATOM     18  C   UNL     1       1.523   8.954  19.285  0.00  0.00    +0.000 C 
BRANCH  18  19
ATOM     19  C   UNL     1       0.892  10.283  18.994  0.00  0.00    +0.000 A 
ATOM     20  C   UNL     1       1.416  11.560  19.052  0.00  0.00    +0.000 A 
ATOM     21  C   UNL     1       0.461  12.558  18.700  0.00  0.00    +0.000 A 
ATOM     22  C   UNL     1      -0.761  12.015  18.381  0.00  0.00    +0.000 A 
ATOM     23  S   UNL     1      -0.758  10.312  18.511  0.00  0.00    +0.000 S 
ENDBRANCH  18  19
ENDBRANCH   2  18
TORSDOF 3
ENDMDL
MODEL 9
REMARK VINA RESULT:      -7.0      2.139      4.403
REMARK  Name = 
REMARK  3 active torsions:
REMARK  status: ('A' for Active; 'I' for Inactive)
REMARK    1  A    between atoms: C_2  and  C_3
REMARK    2  A    between atoms: C_3  and  C_4
REMARK    3  A    between atoms: C_12  and  C_13
REMARK                            x       y       z     vdW  Elec       q    Type
REMARK                         _______ _______ _______ _____ _____    ______ ____
ROOT
ATOM      1  O   UNL     1       4.929   4.007  15.920  0.00  0.00    +0.000 OA
ATOM      2  C   UNL     1       4.491   4.787  16.776  0.00  0.00    +0.000 C 
ATOM      3  N   UNL     1       3.700   4.272  17.757  0.00  0.00    +0.000 N 
ATOM      4  C   UNL     1       3.010   4.990  18.684  0.00  0.00    +0.000 A 
ATOM      5  N   UNL     1       2.792   6.277  18.721  0.00  0.00    +0.000 NA
ATOM      6  C   UNL     1       2.034   6.595  19.837  0.00  0.00    +0.000 A 
ATOM      7  C   UNL     1       1.785   5.525  20.677  0.00  0.00    +0.000 A 
ATOM      8  S   UNL     1       2.360   4.071  19.961  0.00  0.00    +0.000 S 
ATOM      9  H   UNL     1       3.610   3.268  17.776  0.00  0.00    +0.000 HD
ENDROOT
BRANCH   6  10
ATOM     10  C   UNL     1       1.587   7.966  20.061  0.00  0.00    +0.000 A 
ATOM     11  C   UNL     1       1.325   8.401  21.370  0.00  0.00    +0.000 A 
ATOM     12  C   UNL     1       0.931   9.718  21.622  0.00  0.00    +0.000 A 
ATOM     13  C   UNL     1       0.802  10.608  20.562  0.00  0.00    +0.000 A 
ATOM     14  F   UNL     1       0.428  11.870  20.803  0.00  0.00    +0.000 F 
ATOM     15  C   UNL     1       1.057  10.207  19.261  0.00  0.00    +0.000 A 
ATOM     16  C   UNL     1       1.450   8.893  19.017  0.00  0.00    +0.000 A 
ATOM     17  F   UNL     1       1.718   8.550  17.749  0.00  0.00    +0.000 F 
ENDBRANCH   6  10
BRANCH   2  18
ATOM     18  C   UNL     1       4.876   6.258  16.753  0.00  0.00    +0.000 C 
BRANCH  18  19
ATOM     19  C   UNL     1       6.157   6.542  17.478  0.00  0.00    +0.000 A 
ATOM     20  C   UNL     1       7.050   7.589  17.354  0.00  0.00    +0.000 A 
ATOM     21  C   UNL     1       8.160   7.469  18.239  0.00  0.00    +0.000 A 
ATOM     22  C   UNL     1       8.082   6.336  19.015  0.00  0.00    +0.000 A 
ATOM     23  S   UNL     1       6.681   5.421  18.673  0.00  0.00    +0.000 S 
ENDBRANCH  18  19
ENDBRANCH   2  18
TORSDOF 3
ENDMDL
