MODEL 1
REMARK VINA RESULT:      -8.3      0.000      0.000
REMARK  Name = 
REMARK  12 active torsions:
REMARK  status: ('A' for Active; 'I' for Inactive)
REMARK    1  A    between atoms: C_1  and  O_2
REMARK    2  A    between atoms: O_2  and  C_3
REMARK    3  A    between atoms: C_5  and  C_6
REMARK    4  A    between atoms: C_7  and  C_8
REMARK    5  A    between atoms: C_8  and  C_10
REMARK    6  A    between atoms: C_11  and  O_12
REMARK    7  A    between atoms: C_11  and  C_13
REMARK    8  A    between atoms: C_14  and  C_15
REMARK    9  A    between atoms: C_18  and  O_19
REMARK   10  A    between atoms: O_19  and  C_20
REMARK   11  A    between atoms: C_20  and  C_21
REMARK   12  A    between atoms: C_32  and  O_33
REMARK                            x       y       z     vdW  Elec       q    Type
REMARK                         _______ _______ _______ _____ _____    ______ ____
ROOT
ATOM      1  C   UNL     1       9.761  10.395  19.625  0.00  0.00    +0.000 C 
ATOM      2  C   UNL     1       9.018  10.415  18.504  0.00  0.00    +0.000 C 
ENDROOT
BRANCH   1   3
ATOM      3  C   UNL     1      10.587  11.559  20.040  0.00  0.00    +0.000 C 
ATOM      4  O   UNL     1      11.590  11.894  19.419  0.00  0.00    +0.000 OA
BRANCH   3   6
ATOM      5  C   UNL     1       8.795  12.255  21.581  0.00  0.00    +0.000 C 
ATOM      6  C   UNL     1      10.097  12.279  21.246  0.00  0.00    +0.000 C 
BRANCH   5   9
ATOM      7  C   UNL     1       6.538  12.986  24.545  0.00  0.00    +0.000 A 
ATOM      8  C   UNL     1       7.106  12.386  23.405  0.00  0.00    +0.000 A 
ATOM      9  C   UNL     1       8.231  12.931  22.765  0.00  0.00    +0.000 A 
ATOM     10  C   UNL     1       8.815  14.078  23.313  0.00  0.00    +0.000 A 
ATOM     11  C   UNL     1       8.261  14.689  24.441  0.00  0.00    +0.000 A 
ATOM     12  C   UNL     1       7.124  14.151  25.051  0.00  0.00    +0.000 A 
BRANCH   7  14
ATOM     13  C   UNL     1       5.655  11.139  25.788  0.00  0.00    +0.000 C 
ATOM     14  O   UNL     1       5.440  12.316  25.020  0.00  0.00    +0.000 OA
ENDBRANCH   7  14
BRANCH  12  15
ATOM     15  O   UNL     1       6.616  14.794  26.148  0.00  0.00    +0.000 OA
ATOM     16  H   UNL     1       6.063  15.537  25.855  0.00  0.00    +0.000 HD
ENDBRANCH  12  15
ENDBRANCH   5   9
ENDBRANCH   3   6
ENDBRANCH   1   3
BRANCH   2  17
ATOM     17  O   UNL     1       8.953  11.489  17.642  0.00  0.00    +0.000 OA
ATOM     18  H   UNL     1       9.218  11.178  16.749  0.00  0.00    +0.000 HD
ENDBRANCH   2  17
BRANCH   2  19
ATOM     19  C   UNL     1       8.212   9.273  18.116  0.00  0.00    +0.000 C 
ATOM     20  C   UNL     1       8.423   7.997  18.488  0.00  0.00    +0.000 C 
BRANCH  20  21
ATOM     21  C   UNL     1       7.560   6.883  18.069  0.00  0.00    +0.000 A 
ATOM     22  C   UNL     1       6.751   7.013  16.933  0.00  0.00    +0.000 A 
ATOM     23  C   UNL     1       5.947   5.947  16.508  0.00  0.00    +0.000 A 
ATOM     24  C   UNL     1       5.959   4.735  17.200  0.00  0.00    +0.000 A 
ATOM     25  C   UNL     1       6.743   4.608  18.344  0.00  0.00    +0.000 A 
ATOM     26  C   UNL     1       7.555   5.663  18.756  0.00  0.00    +0.000 A 
BRANCH  24  27
ATOM     27  O   UNL     1       5.186   3.733  16.677  0.00  0.00    +0.000 OA
BRANCH  27  28
ATOM     28  C   UNL     1       3.807   4.078  16.499  0.00  0.00    +0.000 C 
BRANCH  28  29
ATOM     29  C   UNL     1       3.000   3.727  17.724  0.00  0.00    +0.000 A 
ATOM     30  C   UNL     1       2.557   4.758  18.572  0.00  0.00    +0.000 A 
ATOM     31  C   UNL     1       1.817   4.461  19.714  0.00  0.00    +0.000 A 
ATOM     32  C   UNL     1       1.507   3.140  20.003  0.00  0.00    +0.000 A 
ATOM     33  F   UNL     1       0.811   2.854  21.111  0.00  0.00    +0.000 F 
ATOM     34  C   UNL     1       1.908   2.109  19.162  0.00  0.00    +0.000 A 
ATOM     35  C   UNL     1       2.647   2.402  18.016  0.00  0.00    +0.000 A 
ENDBRANCH  28  29
ENDBRANCH  27  28
ENDBRANCH  24  27
ENDBRANCH  20  21
ENDBRANCH   2  19
TORSDOF 11
ENDMDL
MODEL 2
REMARK VINA RESULT:      -8.3      0.998      1.946
REMARK  Name = 
REMARK  12 active torsions:
REMARK  status: ('A' for Active; 'I' for Inactive)
REMARK    1  A    between atoms: C_1  and  O_2
REMARK    2  A    between atoms: O_2  and  C_3
REMARK    3  A    between atoms: C_5  and  C_6
REMARK    4  A    between atoms: C_7  and  C_8
REMARK    5  A    between atoms: C_8  and  C_10
REMARK    6  A    between atoms: C_11  and  O_12
REMARK    7  A    between atoms: C_11  and  C_13
REMARK    8  A    between atoms: C_14  and  C_15
REMARK    9  A    between atoms: C_18  and  O_19
REMARK   10  A    between atoms: O_19  and  C_20
REMARK   11  A    between atoms: C_20  and  C_21
REMARK   12  A    between atoms: C_32  and  O_33
REMARK                            x       y       z     vdW  Elec       q    Type
REMARK                         _______ _______ _______ _____ _____    ______ ____
ROOT
ATOM      1  C   UNL     1       9.934  10.891  19.291  0.00  0.00    +0.000 C 
ATOM      2  C   UNL     1       8.996  10.862  18.328  0.00  0.00    +0.000 C 
ENDROOT
BRANCH   1   3
ATOM      3  C   UNL     1      10.607  12.154  19.692  0.00  0.00    +0.000 C 
ATOM      4  O   UNL     1      11.473  12.674  18.996  0.00  0.00    +0.000 OA
BRANCH   3   6
ATOM      5  C   UNL     1       9.240  12.086  21.740  0.00  0.00    +0.000 C 
ATOM      6  C   UNL     1      10.143  12.731  20.982  0.00  0.00    +0.000 C 
BRANCH   5   9
ATOM      7  C   UNL     1       8.261  14.487  24.514  0.00  0.00    +0.000 A 
ATOM      8  C   UNL     1       8.740  13.962  23.298  0.00  0.00    +0.000 A 
ATOM      9  C   UNL     1       8.737  12.583  23.035  0.00  0.00    +0.000 A 
ATOM     10  C   UNL     1       8.202  11.724  24.002  0.00  0.00    +0.000 A 
ATOM     11  C   UNL     1       7.726  12.228  25.216  0.00  0.00    +0.000 A 
ATOM     12  C   UNL     1       7.761  13.601  25.475  0.00  0.00    +0.000 A 
BRANCH   7  14
ATOM     13  C   UNL     1       9.606  16.418  24.958  0.00  0.00    +0.000 C 
ATOM     14  O   UNL     1       8.355  15.852  24.589  0.00  0.00    +0.000 OA
ENDBRANCH   7  14
BRANCH  12  15
ATOM     15  O   UNL     1       7.292  14.041  26.683  0.00  0.00    +0.000 OA
ATOM     16  H   UNL     1       6.548  13.481  26.960  0.00  0.00    +0.000 HD
ENDBRANCH  12  15
ENDBRANCH   5   9
ENDBRANCH   3   6
ENDBRANCH   1   3
BRANCH   2  17
ATOM     17  O   UNL     1       8.577  11.972  17.625  0.00  0.00    +0.000 OA
ATOM     18  H   UNL     1       8.510  12.722  18.255  0.00  0.00    +0.000 HD
ENDBRANCH   2  17
BRANCH   2  19
ATOM     19  C   UNL     1       8.343   9.621  17.953  0.00  0.00    +0.000 C 
ATOM     20  C   UNL     1       8.496   8.433  18.566  0.00  0.00    +0.000 C 
BRANCH  20  21
ATOM     21  C   UNL     1       7.795   7.212  18.143  0.00  0.00    +0.000 A 
ATOM     22  C   UNL     1       6.994   7.226  16.994  0.00  0.00    +0.000 A 
ATOM     23  C   UNL     1       6.346   6.061  16.565  0.00  0.00    +0.000 A 
ATOM     24  C   UNL     1       6.507   4.866  17.267  0.00  0.00    +0.000 A 
ATOM     25  C   UNL     1       7.282   4.851  18.424  0.00  0.00    +0.000 A 
ATOM     26  C   UNL     1       7.940   6.006  18.840  0.00  0.00    +0.000 A 
BRANCH  24  27
ATOM     27  O   UNL     1       5.881   3.767  16.741  0.00  0.00    +0.000 OA
BRANCH  27  28
ATOM     28  C   UNL     1       4.578   4.025  16.207  0.00  0.00    +0.000 C 
BRANCH  28  29
ATOM     29  C   UNL     1       3.511   3.782  17.245  0.00  0.00    +0.000 A 
ATOM     30  C   UNL     1       3.295   2.471  17.711  0.00  0.00    +0.000 A 
ATOM     31  C   UNL     1       2.310   2.217  18.663  0.00  0.00    +0.000 A 
ATOM     32  C   UNL     1       1.552   3.267  19.160  0.00  0.00    +0.000 A 
ATOM     33  F   UNL     1       0.593   3.019  20.061  0.00  0.00    +0.000 F 
ATOM     34  C   UNL     1       1.770   4.573  18.735  0.00  0.00    +0.000 A 
ATOM     35  C   UNL     1       2.757   4.833  17.785  0.00  0.00    +0.000 A 
ENDBRANCH  28  29
ENDBRANCH  27  28
ENDBRANCH  24  27
ENDBRANCH  20  21
ENDBRANCH   2  19
TORSDOF 11
ENDMDL
MODEL 3
REMARK VINA RESULT:      -8.2      6.390     11.261
REMARK  Name = 
REMARK  12 active torsions:
REMARK  status: ('A' for Active; 'I' for Inactive)
REMARK    1  A    between atoms: C_1  and  O_2
REMARK    2  A    between atoms: O_2  and  C_3
REMARK    3  A    between atoms: C_5  and  C_6
REMARK    4  A    between atoms: C_7  and  C_8
REMARK    5  A    between atoms: C_8  and  C_10
REMARK    6  A    between atoms: C_11  and  O_12
REMARK    7  A    between atoms: C_11  and  C_13
REMARK    8  A    between atoms: C_14  and  C_15
REMARK    9  A    between atoms: C_18  and  O_19
REMARK   10  A    between atoms: O_19  and  C_20
REMARK   11  A    between atoms: C_20  and  C_21
REMARK   12  A    between atoms: C_32  and  O_33
REMARK                            x       y       z     vdW  Elec       q    Type
REMARK                         _______ _______ _______ _____ _____    ______ ____
ROOT
ATOM      1  C   UNL     1       1.715   4.220  19.522  0.00  0.00    +0.000 C 
ATOM      2  C   UNL     1       2.310   5.276  20.104  0.00  0.00    +0.000 C 
ENDROOT
BRANCH   1   3
ATOM      3  C   UNL     1       2.494   3.055  19.027  0.00  0.00    +0.000 C 
ATOM      4  O   UNL     1       2.134   1.901  19.235  0.00  0.00    +0.000 OA
BRANCH   3   6
ATOM      5  C   UNL     1       3.636   3.961  17.041  0.00  0.00    +0.000 C 
ATOM      6  C   UNL     1       3.721   3.401  18.260  0.00  0.00    +0.000 C 
BRANCH   5   9
ATOM      7  C   UNL     1       6.852   5.677  15.979  0.00  0.00    +0.000 A 
ATOM      8  C   UNL     1       5.719   5.287  16.717  0.00  0.00    +0.000 A 
ATOM      9  C   UNL     1       4.802   4.345  16.222  0.00  0.00    +0.000 A 
ATOM     10  C   UNL     1       5.060   3.757  14.978  0.00  0.00    +0.000 A 
ATOM     11  C   UNL     1       6.179   4.137  14.231  0.00  0.00    +0.000 A 
ATOM     12  C   UNL     1       7.067   5.097  14.725  0.00  0.00    +0.000 A 
BRANCH   7  14
ATOM     13  C   UNL     1       7.519   6.706  18.037  0.00  0.00    +0.000 C 
ATOM     14  O   UNL     1       7.621   6.613  16.622  0.00  0.00    +0.000 OA
ENDBRANCH   7  14
BRANCH  12  15
ATOM     15  O   UNL     1       8.141   5.440  13.948  0.00  0.00    +0.000 OA
ATOM     16  H   UNL     1       8.629   4.636  13.704  0.00  0.00    +0.000 HD
ENDBRANCH  12  15
ENDBRANCH   5   9
ENDBRANCH   3   6
ENDBRANCH   1   3
BRANCH   2  17
ATOM     17  O   UNL     1       3.672   5.388  20.289  0.00  0.00    +0.000 OA
ATOM     18  H   UNL     1       4.116   4.809  19.633  0.00  0.00    +0.000 HD
ENDBRANCH   2  17
BRANCH   2  19
ATOM     19  C   UNL     1       1.535   6.403  20.588  0.00  0.00    +0.000 C 
ATOM     20  C   UNL     1       1.816   7.702  20.377  0.00  0.00    +0.000 C 
BRANCH  20  21
ATOM     21  C   UNL     1       0.982   8.799  20.888  0.00  0.00    +0.000 A 
ATOM     22  C   UNL     1       0.600   8.822  22.235  0.00  0.00    +0.000 A 
ATOM     23  C   UNL     1      -0.171   9.878  22.738  0.00  0.00    +0.000 A 
ATOM     24  C   UNL     1      -0.550  10.932  21.906  0.00  0.00    +0.000 A 
ATOM     25  C   UNL     1      -0.195  10.904  20.560  0.00  0.00    +0.000 A 
ATOM     26  C   UNL     1       0.586   9.861  20.065  0.00  0.00    +0.000 A 
BRANCH  24  27
ATOM     27  O   UNL     1      -1.252  11.948  22.499  0.00  0.00    +0.000 OA
BRANCH  27  28
ATOM     28  C   UNL     1      -2.314  12.481  21.700  0.00  0.00    +0.000 C 
BRANCH  28  29
ATOM     29  C   UNL     1      -3.584  12.609  22.503  0.00  0.00    +0.000 A 
ATOM     30  C   UNL     1      -4.781  12.945  21.844  0.00  0.00    +0.000 A 
ATOM     31  C   UNL     1      -5.966  13.078  22.563  0.00  0.00    +0.000 A 
ATOM     32  C   UNL     1      -5.962  12.865  23.934  0.00  0.00    +0.000 A 
ATOM     33  F   UNL     1      -7.099  13.011  24.627  0.00  0.00    +0.000 F 
ATOM     34  C   UNL     1      -4.797  12.502  24.600  0.00  0.00    +0.000 A 
ATOM     35  C   UNL     1      -3.608  12.364  23.884  0.00  0.00    +0.000 A 
ENDBRANCH  28  29
ENDBRANCH  27  28
ENDBRANCH  24  27
ENDBRANCH  20  21
ENDBRANCH   2  19
TORSDOF 11
ENDMDL
MODEL 4
REMARK VINA RESULT:      -8.2      0.912      1.882
REMARK  Name = 
REMARK  12 active torsions:
REMARK  status: ('A' for Active; 'I' for Inactive)
REMARK    1  A    between atoms: C_1  and  O_2
REMARK    2  A    between atoms: O_2  and  C_3
REMARK    3  A    between atoms: C_5  and  C_6
REMARK    4  A    between atoms: C_7  and  C_8
REMARK    5  A    between atoms: C_8  and  C_10
REMARK    6  A    between atoms: C_11  and  O_12
REMARK    7  A    between atoms: C_11  and  C_13
REMARK    8  A    between atoms: C_14  and  C_15
REMARK    9  A    between atoms: C_18  and  O_19
REMARK   10  A    between atoms: O_19  and  C_20
REMARK   11  A    between atoms: C_20  and  C_21
REMARK   12  A    between atoms: C_32  and  O_33
REMARK                            x       y       z     vdW  Elec       q    Type
REMARK                         _______ _______ _______ _____ _____    ______ ____
ROOT
ATOM      1  C   UNL     1       9.462  10.605  20.037  0.00  0.00    +0.000 C 
ATOM      2  C   UNL     1       9.147  10.533  18.732  0.00  0.00    +0.000 C 
ENDROOT
BRANCH   1   3
ATOM      3  C   UNL     1      10.191  11.769  20.605  0.00  0.00    +0.000 C 
ATOM      4  O   UNL     1      11.227  12.191  20.102  0.00  0.00    +0.000 OA
BRANCH   3   6
ATOM      5  C   UNL     1       8.512  11.791  22.407  0.00  0.00    +0.000 C 
ATOM      6  C   UNL     1       9.564  12.376  21.810  0.00  0.00    +0.000 C 
BRANCH   5   9
ATOM      7  C   UNL     1       7.867  13.864  25.523  0.00  0.00    +0.000 A 
ATOM      8  C   UNL     1       8.470  13.319  24.374  0.00  0.00    +0.000 A 
ATOM      9  C   UNL     1       7.841  12.321  23.610  0.00  0.00    +0.000 A 
ATOM     10  C   UNL     1       6.562  11.901  23.993  0.00  0.00    +0.000 A 
ATOM     11  C   UNL     1       5.951  12.429  25.133  0.00  0.00    +0.000 A 
ATOM     12  C   UNL     1       6.602  13.401  25.899  0.00  0.00    +0.000 A 
BRANCH   7  14
ATOM     13  C   UNL     1       8.537  16.158  25.684  0.00  0.00    +0.000 C 
ATOM     14  O   UNL     1       8.638  14.815  26.140  0.00  0.00    +0.000 OA
ENDBRANCH   7  14
BRANCH  12  15
ATOM     15  O   UNL     1       5.963  13.878  27.012  0.00  0.00    +0.000 OA
ATOM     16  H   UNL     1       6.078  13.248  27.742  0.00  0.00    +0.000 HD
ENDBRANCH  12  15
ENDBRANCH   5   9
ENDBRANCH   3   6
ENDBRANCH   1   3
BRANCH   2  17
ATOM     17  O   UNL     1       9.467  11.505  17.807  0.00  0.00    +0.000 OA
ATOM     18  H   UNL     1       9.870  12.260  18.287  0.00  0.00    +0.000 HD
ENDBRANCH   2  17
BRANCH   2  19
ATOM     19  C   UNL     1       8.429   9.393  18.194  0.00  0.00    +0.000 C 
ATOM     20  C   UNL     1       8.471   8.137  18.675  0.00  0.00    +0.000 C 
BRANCH  20  21
ATOM     21  C   UNL     1       7.709   7.025  18.089  0.00  0.00    +0.000 A 
ATOM     22  C   UNL     1       7.848   5.730  18.606  0.00  0.00    +0.000 A 
ATOM     23  C   UNL     1       7.104   4.669  18.074  0.00  0.00    +0.000 A 
ATOM     24  C   UNL     1       6.199   4.893  17.036  0.00  0.00    +0.000 A 
ATOM     25  C   UNL     1       6.074   6.173  16.501  0.00  0.00    +0.000 A 
ATOM     26  C   UNL     1       6.802   7.231  17.042  0.00  0.00    +0.000 A 
BRANCH  24  27
ATOM     27  O   UNL     1       5.475   3.807  16.621  0.00  0.00    +0.000 OA
BRANCH  27  28
ATOM     28  C   UNL     1       4.082   4.068  16.411  0.00  0.00    +0.000 C 
BRANCH  28  29
ATOM     29  C   UNL     1       3.268   3.656  17.612  0.00  0.00    +0.000 A 
ATOM     30  C   UNL     1       2.029   4.280  17.847  0.00  0.00    +0.000 A 
ATOM     31  C   UNL     1       1.261   3.924  18.953  0.00  0.00    +0.000 A 
ATOM     32  C   UNL     1       1.719   2.939  19.816  0.00  0.00    +0.000 A 
ATOM     33  F   UNL     1       0.989   2.611  20.889  0.00  0.00    +0.000 F 
ATOM     34  C   UNL     1       2.926   2.288  19.584  0.00  0.00    +0.000 A 
ATOM     35  C   UNL     1       3.698   2.639  18.477  0.00  0.00    +0.000 A 
ENDBRANCH  28  29
ENDBRANCH  27  28
ENDBRANCH  24  27
ENDBRANCH  20  21
ENDBRANCH   2  19
TORSDOF 11
ENDMDL
MODEL 5
REMARK VINA RESULT:      -8.1      2.952      3.340
REMARK  Name = 
REMARK  12 active torsions:
REMARK  status: ('A' for Active; 'I' for Inactive)
REMARK    1  A    between atoms: C_1  and  O_2
REMARK    2  A    between atoms: O_2  and  C_3
REMARK    3  A    between atoms: C_5  and  C_6
REMARK    4  A    between atoms: C_7  and  C_8
REMARK    5  A    between atoms: C_8  and  C_10
REMARK    6  A    between atoms: C_11  and  O_12
REMARK    7  A    between atoms: C_11  and  C_13
REMARK    8  A    between atoms: C_14  and  C_15
REMARK    9  A    between atoms: C_18  and  O_19
REMARK   10  A    between atoms: O_19  and  C_20
REMARK   11  A    between atoms: C_20  and  C_21
REMARK   12  A    between atoms: C_32  and  O_33
REMARK                            x       y       z     vdW  Elec       q    Type
REMARK                         _______ _______ _______ _____ _____    ______ ____
ROOT
ATOM      1  C   UNL     1       9.615  10.865  20.036  0.00  0.00    +0.000 C 
ATOM      2  C   UNL     1       9.307  10.305  18.852  0.00  0.00    +0.000 C 
ENDROOT
BRANCH   1   3
ATOM      3  C   UNL     1      10.468  12.078  20.131  0.00  0.00    +0.000 C 
ATOM      4  O   UNL     1      11.690  12.017  20.044  0.00  0.00    +0.000 OA
BRANCH   3   6
ATOM      5  C   UNL     1       8.716  13.695  19.512  0.00  0.00    +0.000 C 
ATOM      6  C   UNL     1       9.728  13.354  20.328  0.00  0.00    +0.000 C 
BRANCH   5   9
ATOM      7  C   UNL     1       5.774  16.092  19.380  0.00  0.00    +0.000 A 
ATOM      8  C   UNL     1       6.574  14.939  19.261  0.00  0.00    +0.000 A 
ATOM      9  C   UNL     1       7.925  14.933  19.646  0.00  0.00    +0.000 A 
ATOM     10  C   UNL     1       8.462  16.101  20.199  0.00  0.00    +0.000 A 
ATOM     11  C   UNL     1       7.683  17.255  20.320  0.00  0.00    +0.000 A 
ATOM     12  C   UNL     1       6.347  17.254  19.906  0.00  0.00    +0.000 A 
BRANCH   7  14
ATOM     13  C   UNL     1       4.291  15.241  17.702  0.00  0.00    +0.000 C 
ATOM     14  O   UNL     1       4.488  15.905  18.944  0.00  0.00    +0.000 OA
ENDBRANCH   7  14
BRANCH  12  15
ATOM     15  O   UNL     1       5.632  18.413  20.038  0.00  0.00    +0.000 OA
ATOM     16  H   UNL     1       5.689  18.722  20.957  0.00  0.00    +0.000 HD
ENDBRANCH  12  15
ENDBRANCH   5   9
ENDBRANCH   3   6
ENDBRANCH   1   3
BRANCH   2  17
ATOM     17  O   UNL     1       9.748  10.783  17.636  0.00  0.00    +0.000 OA
ATOM     18  H   UNL     1      10.481  10.206  17.331  0.00  0.00    +0.000 HD
ENDBRANCH   2  17
BRANCH   2  19
ATOM     19  C   UNL     1       8.467   9.125  18.775  0.00  0.00    +0.000 C 
ATOM     20  C   UNL     1       8.168   8.442  17.655  0.00  0.00    +0.000 C 
BRANCH  20  21
ATOM     21  C   UNL     1       7.317   7.244  17.645  0.00  0.00    +0.000 A 
ATOM     22  C   UNL     1       6.079   7.268  16.990  0.00  0.00    +0.000 A 
ATOM     23  C   UNL     1       5.274   6.123  16.950  0.00  0.00    +0.000 A 
ATOM     24  C   UNL     1       5.704   4.937  17.546  0.00  0.00    +0.000 A 
ATOM     25  C   UNL     1       6.923   4.913  18.220  0.00  0.00    +0.000 A 
ATOM     26  C   UNL     1       7.731   6.048  18.244  0.00  0.00    +0.000 A 
BRANCH  24  27
ATOM     27  O   UNL     1       4.876   3.854  17.406  0.00  0.00    +0.000 OA
BRANCH  27  28
ATOM     28  C   UNL     1       3.480   4.171  17.411  0.00  0.00    +0.000 C 
BRANCH  28  29
ATOM     29  C   UNL     1       2.829   3.726  18.696  0.00  0.00    +0.000 A 
ATOM     30  C   UNL     1       1.438   3.875  18.847  0.00  0.00    +0.000 A 
ATOM     31  C   UNL     1       0.812   3.480  20.027  0.00  0.00    +0.000 A 
ATOM     32  C   UNL     1       1.568   2.926  21.050  0.00  0.00    +0.000 A 
ATOM     33  F   UNL     1       0.968   2.564  22.191  0.00  0.00    +0.000 F 
ATOM     34  C   UNL     1       2.939   2.742  20.909  0.00  0.00    +0.000 A 
ATOM     35  C   UNL     1       3.570   3.133  19.729  0.00  0.00    +0.000 A 
ENDBRANCH  28  29
ENDBRANCH  27  28
ENDBRANCH  24  27
ENDBRANCH  20  21
ENDBRANCH   2  19
TORSDOF 11
ENDMDL
MODEL 6
REMARK VINA RESULT:      -8.1      4.048     10.299
REMARK  Name = 
REMARK  12 active torsions:
REMARK  status: ('A' for Active; 'I' for Inactive)
REMARK    1  A    between atoms: C_1  and  O_2
REMARK    2  A    between atoms: O_2  and  C_3
REMARK    3  A    between atoms: C_5  and  C_6
REMARK    4  A    between atoms: C_7  and  C_8
REMARK    5  A    between atoms: C_8  and  C_10
REMARK    6  A    between atoms: C_11  and  O_12
REMARK    7  A    between atoms: C_11  and  C_13
REMARK    8  A    between atoms: C_14  and  C_15
REMARK    9  A    between atoms: C_18  and  O_19
REMARK   10  A    between atoms: O_19  and  C_20
REMARK   11  A    between atoms: C_20  and  C_21
REMARK   12  A    between atoms: C_32  and  O_33
REMARK                            x       y       z     vdW  Elec       q    Type
REMARK                         _______ _______ _______ _____ _____    ______ ____
ROOT
ATOM      1  C   UNL     1       7.254   7.210  17.046  0.00  0.00    +0.000 C 
ATOM      2  C   UNL     1       7.992   7.712  18.052  0.00  0.00    +0.000 C 
ENDROOT
BRANCH   1   3
ATOM      3  C   UNL     1       6.908   5.767  16.971  0.00  0.00    +0.000 C 
ATOM      4  O   UNL     1       7.635   4.957  16.405  0.00  0.00    +0.000 OA
BRANCH   3   6
ATOM      5  C   UNL     1       5.624   4.532  18.672  0.00  0.00    +0.000 C 
ATOM      6  C   UNL     1       5.633   5.391  17.638  0.00  0.00    +0.000 C 
BRANCH   5   9
ATOM      7  C   UNL     1       2.238   4.724  20.380  0.00  0.00    +0.000 A 
ATOM      8  C   UNL     1       3.422   5.072  19.701  0.00  0.00    +0.000 A 
ATOM      9  C   UNL     1       4.407   4.118  19.395  0.00  0.00    +0.000 A 
ATOM     10  C   UNL     1       4.169   2.783  19.744  0.00  0.00    +0.000 A 
ATOM     11  C   UNL     1       3.001   2.423  20.422  0.00  0.00    +0.000 A 
ATOM     12  C   UNL     1       2.043   3.388  20.745  0.00  0.00    +0.000 A 
BRANCH   7  14
ATOM     13  C   UNL     1       1.929   7.099  20.402  0.00  0.00    +0.000 C 
ATOM     14  O   UNL     1       1.406   5.792  20.598  0.00  0.00    +0.000 OA
ENDBRANCH   7  14
BRANCH  12  15
ATOM     15  O   UNL     1       0.921   2.983  21.417  0.00  0.00    +0.000 OA
ATOM     16  H   UNL     1       1.184   2.448  22.184  0.00  0.00    +0.000 HD
ENDBRANCH  12  15
ENDBRANCH   5   9
ENDBRANCH   3   6
ENDBRANCH   1   3
BRANCH   2  17
ATOM     17  O   UNL     1       8.499   6.956  19.087  0.00  0.00    +0.000 OA
ATOM     18  H   UNL     1       8.550   6.023  18.786  0.00  0.00    +0.000 HD
ENDBRANCH   2  17
BRANCH   2  19
ATOM     19  C   UNL     1       8.315   9.125  18.115  0.00  0.00    +0.000 C 
ATOM     20  C   UNL     1       9.112   9.711  19.027  0.00  0.00    +0.000 C 
BRANCH  20  21
ATOM     21  C   UNL     1       9.409  11.151  19.030  0.00  0.00    +0.000 A 
ATOM     22  C   UNL     1       9.014  11.950  17.950  0.00  0.00    +0.000 A 
ATOM     23  C   UNL     1       9.267  13.328  17.956  0.00  0.00    +0.000 A 
ATOM     24  C   UNL     1       9.898  13.924  19.048  0.00  0.00    +0.000 A 
ATOM     25  C   UNL     1      10.315  13.132  20.115  0.00  0.00    +0.000 A 
ATOM     26  C   UNL     1      10.048  11.764  20.115  0.00  0.00    +0.000 A 
BRANCH  24  27
ATOM     27  O   UNL     1      10.050  15.285  18.990  0.00  0.00    +0.000 OA
BRANCH  27  28
ATOM     28  C   UNL     1       9.497  15.991  20.106  0.00  0.00    +0.000 C 
BRANCH  28  29
ATOM     29  C   UNL     1       7.997  16.096  19.991  0.00  0.00    +0.000 A 
ATOM     30  C   UNL     1       7.442  16.906  18.982  0.00  0.00    +0.000 A 
ATOM     31  C   UNL     1       6.061  17.027  18.858  0.00  0.00    +0.000 A 
ATOM     32  C   UNL     1       5.232  16.334  19.728  0.00  0.00    +0.000 A 
ATOM     33  F   UNL     1       3.904  16.466  19.620  0.00  0.00    +0.000 F 
ATOM     34  C   UNL     1       5.759  15.505  20.712  0.00  0.00    +0.000 A 
ATOM     35  C   UNL     1       7.142  15.377  20.838  0.00  0.00    +0.000 A 
ENDBRANCH  28  29
ENDBRANCH  27  28
ENDBRANCH  24  27
ENDBRANCH  20  21
ENDBRANCH   2  19
TORSDOF 11
ENDMDL
MODEL 7
REMARK VINA RESULT:      -7.9      3.028      3.496
REMARK  Name = 
REMARK  12 active torsions:
REMARK  status: ('A' for Active; 'I' for Inactive)
REMARK    1  A    between atoms: C_1  and  O_2
REMARK    2  A    between atoms: O_2  and  C_3
REMARK    3  A    between atoms: C_5  and  C_6
REMARK    4  A    between atoms: C_7  and  C_8
REMARK    5  A    between atoms: C_8  and  C_10
REMARK    6  A    between atoms: C_11  and  O_12
REMARK    7  A    between atoms: C_11  and  C_13
REMARK    8  A    between atoms: C_14  and  C_15
REMARK    9  A    between atoms: C_18  and  O_19
REMARK   10  A    between atoms: O_19  and  C_20
REMARK   11  A    between atoms: C_20  and  C_21
REMARK   12  A    between atoms: C_32  and  O_33
REMARK                            x       y       z     vdW  Elec       q    Type
REMARK                         _______ _______ _______ _____ _____    ______ ____
ROOT
ATOM      1  C   UNL     1       9.858  10.855  17.945  0.00  0.00    +0.000 C 
ATOM      2  C   UNL     1       9.317  10.160  18.962  0.00  0.00    +0.000 C 
ENDROOT
BRANCH   1   3
ATOM      3  C   UNL     1      10.565  12.144  18.164  0.00  0.00    +0.000 C 
ATOM      4  O   UNL     1      11.746  12.292  17.867  0.00  0.00    +0.000 OA
BRANCH   3   6
ATOM      5  C   UNL     1       9.242  14.214  17.987  0.00  0.00    +0.000 C 
ATOM      6  C   UNL     1       9.731  13.225  18.754  0.00  0.00    +0.000 C 
BRANCH   5   9
ATOM      7  C   UNL     1       6.608  16.071  19.995  0.00  0.00    +0.000 A 
ATOM      8  C   UNL     1       7.429  15.053  19.475  0.00  0.00    +0.000 A 
ATOM      9  C   UNL     1       8.398  15.314  18.491  0.00  0.00    +0.000 A 
ATOM     10  C   UNL     1       8.565  16.635  18.059  0.00  0.00    +0.000 A 
ATOM     11  C   UNL     1       7.755  17.656  18.563  0.00  0.00    +0.000 A 
ATOM     12  C   UNL     1       6.776  17.376  19.521  0.00  0.00    +0.000 A 
BRANCH   7  14
ATOM     13  C   UNL     1       4.444  15.173  20.492  0.00  0.00    +0.000 C 
ATOM     14  O   UNL     1       5.718  15.620  20.936  0.00  0.00    +0.000 OA
ENDBRANCH   7  14
BRANCH  12  15
ATOM     15  O   UNL     1       6.003  18.411  19.974  0.00  0.00    +0.000 OA
ATOM     16  H   UNL     1       5.198  18.469  19.435  0.00  0.00    +0.000 HD
ENDBRANCH  12  15
ENDBRANCH   5   9
ENDBRANCH   3   6
ENDBRANCH   1   3
BRANCH   2  17
ATOM     17  O   UNL     1       9.356  10.565  20.279  0.00  0.00    +0.000 OA
ATOM     18  H   UNL     1       9.120  11.518  20.311  0.00  0.00    +0.000 HD
ENDBRANCH   2  17
BRANCH   2  19
ATOM     19  C   UNL     1       8.636   8.900  18.732  0.00  0.00    +0.000 C 
ATOM     20  C   UNL     1       7.771   8.643  17.733  0.00  0.00    +0.000 C 
BRANCH  20  21
ATOM     21  C   UNL     1       7.121   7.337  17.548  0.00  0.00    +0.000 A 
ATOM     22  C   UNL     1       7.628   6.203  18.195  0.00  0.00    +0.000 A 
ATOM     23  C   UNL     1       6.998   4.961  18.048  0.00  0.00    +0.000 A 
ATOM     24  C   UNL     1       5.845   4.842  17.272  0.00  0.00    +0.000 A 
ATOM     25  C   UNL     1       5.350   5.961  16.606  0.00  0.00    +0.000 A 
ATOM     26  C   UNL     1       5.967   7.199  16.766  0.00  0.00    +0.000 A 
BRANCH  24  27
ATOM     27  O   UNL     1       5.266   3.601  17.234  0.00  0.00    +0.000 OA
BRANCH  27  28
ATOM     28  C   UNL     1       3.848   3.614  17.036  0.00  0.00    +0.000 C 
BRANCH  28  29
ATOM     29  C   UNL     1       3.118   3.354  18.330  0.00  0.00    +0.000 A 
ATOM     30  C   UNL     1       1.722   3.521  18.374  0.00  0.00    +0.000 A 
ATOM     31  C   UNL     1       1.024   3.297  19.558  0.00  0.00    +0.000 A 
ATOM     32  C   UNL     1       1.714   2.894  20.693  0.00  0.00    +0.000 A 
ATOM     33  F   UNL     1       1.044   2.696  21.836  0.00  0.00    +0.000 F 
ATOM     34  C   UNL     1       3.089   2.693  20.662  0.00  0.00    +0.000 A 
ATOM     35  C   UNL     1       3.792   2.914  19.478  0.00  0.00    +0.000 A 
ENDBRANCH  28  29
ENDBRANCH  27  28
ENDBRANCH  24  27
ENDBRANCH  20  21
ENDBRANCH   2  19
TORSDOF 11
ENDMDL
MODEL 8
REMARK VINA RESULT:      -7.9      4.328     10.908
REMARK  Name = 
REMARK  12 active torsions:
REMARK  status: ('A' for Active; 'I' for Inactive)
REMARK    1  A    between atoms: C_1  and  O_2
REMARK    2  A    between atoms: O_2  and  C_3
REMARK    3  A    between atoms: C_5  and  C_6
REMARK    4  A    between atoms: C_7  and  C_8
REMARK    5  A    between atoms: C_8  and  C_10
REMARK    6  A    between atoms: C_11  and  O_12
REMARK    7  A    between atoms: C_11  and  C_13
REMARK    8  A    between atoms: C_14  and  C_15
REMARK    9  A    between atoms: C_18  and  O_19
REMARK   10  A    between atoms: O_19  and  C_20
REMARK   11  A    between atoms: C_20  and  C_21
REMARK   12  A    between atoms: C_32  and  O_33
REMARK                            x       y       z     vdW  Elec       q    Type
REMARK                         _______ _______ _______ _____ _____    ______ ____
ROOT
ATOM      1  C   UNL     1       7.299   6.947  16.943  0.00  0.00    +0.000 C 
ATOM      2  C   UNL     1       7.942   7.468  18.003  0.00  0.00    +0.000 C 
ENDROOT
BRANCH   1   3
ATOM      3  C   UNL     1       6.973   5.500  16.856  0.00  0.00    +0.000 C 
ATOM      4  O   UNL     1       7.727   4.699  16.313  0.00  0.00    +0.000 OA
BRANCH   3   6
ATOM      5  C   UNL     1       5.653   4.565  18.714  0.00  0.00    +0.000 C 
ATOM      6  C   UNL     1       5.683   5.107  17.485  0.00  0.00    +0.000 C 
BRANCH   5   9
ATOM      7  C   UNL     1       2.240   4.788  20.364  0.00  0.00    +0.000 A 
ATOM      8  C   UNL     1       3.440   5.125  19.710  0.00  0.00    +0.000 A 
ATOM      9  C   UNL     1       4.417   4.161  19.411  0.00  0.00    +0.000 A 
ATOM     10  C   UNL     1       4.154   2.826  19.742  0.00  0.00    +0.000 A 
ATOM     11  C   UNL     1       2.969   2.476  20.396  0.00  0.00    +0.000 A 
ATOM     12  C   UNL     1       2.019   3.452  20.711  0.00  0.00    +0.000 A 
BRANCH   7  14
ATOM     13  C   UNL     1       1.955   7.166  20.373  0.00  0.00    +0.000 C 
ATOM     14  O   UNL     1       1.419   5.865  20.578  0.00  0.00    +0.000 OA
ENDBRANCH   7  14
BRANCH  12  15
ATOM     15  O   UNL     1       0.881   3.055  21.360  0.00  0.00    +0.000 OA
ATOM     16  H   UNL     1       0.932   3.326  22.291  0.00  0.00    +0.000 HD
ENDBRANCH  12  15
ENDBRANCH   5   9
ENDBRANCH   3   6
ENDBRANCH   1   3
BRANCH   2  17
ATOM     17  O   UNL     1       8.363   6.729  19.089  0.00  0.00    +0.000 OA
ATOM     18  H   UNL     1       7.833   7.006  19.868  0.00  0.00    +0.000 HD
ENDBRANCH   2  17
BRANCH   2  19
ATOM     19  C   UNL     1       8.247   8.885  18.075  0.00  0.00    +0.000 C 
ATOM     20  C   UNL     1       9.149   9.456  18.894  0.00  0.00    +0.000 C 
BRANCH  20  21
ATOM     21  C   UNL     1       9.420  10.901  18.912  0.00  0.00    +0.000 A 
ATOM     22  C   UNL     1       8.833  11.736  17.952  0.00  0.00    +0.000 A 
ATOM     23  C   UNL     1       9.061  13.117  17.977  0.00  0.00    +0.000 A 
ATOM     24  C   UNL     1       9.859  13.682  18.972  0.00  0.00    +0.000 A 
ATOM     25  C   UNL     1      10.465  12.855  19.915  0.00  0.00    +0.000 A 
ATOM     26  C   UNL     1      10.224  11.483  19.899  0.00  0.00    +0.000 A 
BRANCH  24  27
ATOM     27  O   UNL     1       9.977  15.047  18.951  0.00  0.00    +0.000 OA
BRANCH  27  28
ATOM     28  C   UNL     1       9.064  15.735  19.813  0.00  0.00    +0.000 C 
BRANCH  28  29
ATOM     29  C   UNL     1       9.671  15.960  21.175  0.00  0.00    +0.000 A 
ATOM     30  C   UNL     1      10.850  16.722  21.282  0.00  0.00    +0.000 A 
ATOM     31  C   UNL     1      11.437  16.938  22.527  0.00  0.00    +0.000 A 
ATOM     32  C   UNL     1      10.844  16.408  23.664  0.00  0.00    +0.000 A 
ATOM     33  F   UNL     1      11.420  16.601  24.858  0.00  0.00    +0.000 F 
ATOM     34  C   UNL     1       9.663  15.678  23.583  0.00  0.00    +0.000 A 
ATOM     35  C   UNL     1       9.070  15.461  22.340  0.00  0.00    +0.000 A 
ENDBRANCH  28  29
ENDBRANCH  27  28
ENDBRANCH  24  27
ENDBRANCH  20  21
ENDBRANCH   2  19
TORSDOF 11
ENDMDL
MODEL 9
REMARK VINA RESULT:      -7.9      1.014      1.396
REMARK  Name = 
REMARK  12 active torsions:
REMARK  status: ('A' for Active; 'I' for Inactive)
REMARK    1  A    between atoms: C_1  and  O_2
REMARK    2  A    between atoms: O_2  and  C_3
REMARK    3  A    between atoms: C_5  and  C_6
REMARK    4  A    between atoms: C_7  and  C_8
REMARK    5  A    between atoms: C_8  and  C_10
REMARK    6  A    between atoms: C_11  and  O_12
REMARK    7  A    between atoms: C_11  and  C_13
REMARK    8  A    between atoms: C_14  and  C_15
REMARK    9  A    between atoms: C_18  and  O_19
REMARK   10  A    between atoms: O_19  and  C_20
REMARK   11  A    between atoms: C_20  and  C_21
REMARK   12  A    between atoms: C_32  and  O_33
REMARK                            x       y       z     vdW  Elec       q    Type
REMARK                         _______ _______ _______ _____ _____    ______ ____
ROOT
ATOM      1  C   UNL     1      10.093  10.795  19.141  0.00  0.00    +0.000 C 
ATOM      2  C   UNL     1       9.052  10.818  18.290  0.00  0.00    +0.000 C 
ENDROOT
BRANCH   1   3
ATOM      3  C   UNL     1      10.776  12.041  19.579  0.00  0.00    +0.000 C 
ATOM      4  O   UNL     1      11.698  12.532  18.937  0.00  0.00    +0.000 OA
BRANCH   3   6
ATOM      5  C   UNL     1       9.119  12.173  21.397  0.00  0.00    +0.000 C 
ATOM      6  C   UNL     1      10.248  12.638  20.835  0.00  0.00    +0.000 C 
BRANCH   5   9
ATOM      7  C   UNL     1       7.175  14.408  23.773  0.00  0.00    +0.000 A 
ATOM      8  C   UNL     1       7.761  13.871  22.611  0.00  0.00    +0.000 A 
ATOM      9  C   UNL     1       8.537  12.701  22.646  0.00  0.00    +0.000 A 
ATOM     10  C   UNL     1       8.685  12.040  23.871  0.00  0.00    +0.000 A 
ATOM     11  C   UNL     1       8.113  12.562  25.035  0.00  0.00    +0.000 A 
ATOM     12  C   UNL     1       7.368  13.743  24.989  0.00  0.00    +0.000 A 
BRANCH   7  14
ATOM     13  C   UNL     1       5.095  15.439  23.183  0.00  0.00    +0.000 C 
ATOM     14  O   UNL     1       6.466  15.558  23.540  0.00  0.00    +0.000 OA
ENDBRANCH   7  14
BRANCH  12  15
ATOM     15  O   UNL     1       6.837  14.216  26.159  0.00  0.00    +0.000 OA
ATOM     16  H   UNL     1       7.113  13.640  26.891  0.00  0.00    +0.000 HD
ENDBRANCH  12  15
ENDBRANCH   5   9
ENDBRANCH   3   6
ENDBRANCH   1   3
BRANCH   2  17
ATOM     17  O   UNL     1       8.528  11.971  17.744  0.00  0.00    +0.000 OA
ATOM     18  H   UNL     1       7.566  11.990  17.941  0.00  0.00    +0.000 HD
ENDBRANCH   2  17
BRANCH   2  19
ATOM     19  C   UNL     1       8.391   9.594  17.878  0.00  0.00    +0.000 C 
ATOM     20  C   UNL     1       8.366   8.440  18.571  0.00  0.00    +0.000 C 
BRANCH  20  21
ATOM     21  C   UNL     1       7.668   7.235  18.101  0.00  0.00    +0.000 A 
ATOM     22  C   UNL     1       6.738   7.324  17.058  0.00  0.00    +0.000 A 
ATOM     23  C   UNL     1       6.089   6.177  16.584  0.00  0.00    +0.000 A 
ATOM     24  C   UNL     1       6.377   4.927  17.133  0.00  0.00    +0.000 A 
ATOM     25  C   UNL     1       7.282   4.834  18.187  0.00  0.00    +0.000 A 
ATOM     26  C   UNL     1       7.939   5.974  18.646  0.00  0.00    +0.000 A 
BRANCH  24  27
ATOM     27  O   UNL     1       5.737   3.856  16.566  0.00  0.00    +0.000 OA
BRANCH  27  28
ATOM     28  C   UNL     1       4.381   4.111  16.182  0.00  0.00    +0.000 C 
BRANCH  28  29
ATOM     29  C   UNL     1       3.426   3.732  17.286  0.00  0.00    +0.000 A 
ATOM     30  C   UNL     1       2.641   4.733  17.888  0.00  0.00    +0.000 A 
ATOM     31  C   UNL     1       1.758   4.412  18.915  0.00  0.00    +0.000 A 
ATOM     32  C   UNL     1       1.645   3.094  19.334  0.00  0.00    +0.000 A 
ATOM     33  F   UNL     1       0.809   2.789  20.334  0.00  0.00    +0.000 F 
ATOM     34  C   UNL     1       2.388   2.085  18.731  0.00  0.00    +0.000 A 
ATOM     35  C   UNL     1       3.272   2.401  17.700  0.00  0.00    +0.000 A 
ENDBRANCH  28  29
ENDBRANCH  27  28
ENDBRANCH  24  27
ENDBRANCH  20  21
ENDBRANCH   2  19
TORSDOF 11
ENDMDL
