MODEL 1
REMARK VINA RESULT:      -7.8      0.000      0.000
REMARK  Name = 
REMARK  7 active torsions:
REMARK  status: ('A' for Active; 'I' for Inactive)
REMARK    1  A    between atoms: C_1  and  C_2
REMARK    2  A    between atoms: C_2  and  C_3
REMARK    3  A    between atoms: C_2  and  C_4
REMARK    4  A    between atoms: C_2  and  C_5
REMARK    5  A    between atoms: C_8  and  C_9
REMARK    6  A    between atoms: C_9  and  N_10
REMARK    7  A    between atoms: C_12  and  C_13
REMARK                            x       y       z     vdW  Elec       q    Type
REMARK                         _______ _______ _______ _____ _____    ______ ____
ROOT
ATOM      1  N   UNL     1       2.718   6.196  18.343  0.00  0.00    +0.000 N 
ATOM      2  C   UNL     1       1.731   5.301  18.659  0.00  0.00    +0.000 A 
ATOM      3  C   UNL     1       2.317   4.112  19.070  0.00  0.00    +0.000 A 
ATOM      4  C   UNL     1       3.740   4.314  19.006  0.00  0.00    +0.000 A 
ATOM      5  C   UNL     1       4.907   3.561  19.231  0.00  0.00    +0.000 A 
ATOM      6  N   UNL     1       4.930   2.224  19.621  0.00  0.00    +0.000 N 
ATOM      7  N   UNL     1       6.109   4.139  19.056  0.00  0.00    +0.000 NA
ATOM      8  C   UNL     1       6.154   5.428  18.674  0.00  0.00    +0.000 A 
ATOM      9  N   UNL     1       5.124   6.240  18.405  0.00  0.00    +0.000 NA
ATOM     10  C   UNL     1       3.942   5.627  18.586  0.00  0.00    +0.000 A 
ATOM     11  H   UNL     1       4.320   2.059  20.417  0.00  0.00    +0.000 HD
ATOM     12  H   UNL     1       5.901   1.986  19.814  0.00  0.00    +0.000 HD
ENDROOT
BRANCH   3  13
ATOM     13  C   UNL     1       1.529   2.952  19.458  0.00  0.00    +0.000 C 
ATOM     14  N   UNL     1       0.432   3.188  20.229  0.00  0.00    +0.000 N 
ATOM     15  O   UNL     1       1.836   1.800  19.161  0.00  0.00    +0.000 OA
ATOM     16  H   UNL     1       0.281   4.094  20.660  0.00  0.00    +0.000 HD
ATOM     17  H   UNL     1      -0.022   2.381  20.627  0.00  0.00    +0.000 HD
ENDBRANCH   3  13
BRANCH   1  18
ATOM     18  C   UNL     1       2.509   7.469  17.666  0.00  0.00    +0.000 C 
BRANCH  18  22
ATOM     19  C   UNL     1       0.381  10.378  20.110  0.00  0.00    +0.000 A 
ATOM     20  C   UNL     1       0.484  10.523  18.717  0.00  0.00    +0.000 A 
ATOM     21  C   UNL     1       1.184   9.595  17.935  0.00  0.00    +0.000 A 
ATOM     22  C   UNL     1       1.801   8.486  18.520  0.00  0.00    +0.000 A 
ATOM     23  C   UNL     1       1.716   8.332  19.907  0.00  0.00    +0.000 A 
ATOM     24  C   UNL     1       1.012   9.259  20.685  0.00  0.00    +0.000 A 
BRANCH  19  26
ATOM     25  C   UNL     1      -0.718  10.847  22.396  0.00  0.00    +0.000 C 
ATOM     26  C   UNL     1      -0.355  11.398  20.999  0.00  0.00    +0.000 C 
ATOM     27  C   UNL     1      -1.672  11.817  20.310  0.00  0.00    +0.000 C 
ATOM     28  C   UNL     1       0.513  12.655  21.220  0.00  0.00    +0.000 C 
ENDBRANCH  19  26
ENDBRANCH  18  22
ENDBRANCH   1  18
TORSDOF 4
ENDMDL
MODEL 2
REMARK VINA RESULT:      -7.8      0.091      1.322
REMARK  Name = 
REMARK  7 active torsions:
REMARK  status: ('A' for Active; 'I' for Inactive)
REMARK    1  A    between atoms: C_1  and  C_2
REMARK    2  A    between atoms: C_2  and  C_3
REMARK    3  A    between atoms: C_2  and  C_4
REMARK    4  A    between atoms: C_2  and  C_5
REMARK    5  A    between atoms: C_8  and  C_9
REMARK    6  A    between atoms: C_9  and  N_10
REMARK    7  A    between atoms: C_12  and  C_13
REMARK                            x       y       z     vdW  Elec       q    Type
REMARK                         _______ _______ _______ _____ _____    ______ ____
ROOT
ATOM      1  N   UNL     1       2.735   6.263  18.398  0.00  0.00    +0.000 N 
ATOM      2  C   UNL     1       1.734   5.375  18.686  0.00  0.00    +0.000 A 
ATOM      3  C   UNL     1       2.299   4.167  19.071  0.00  0.00    +0.000 A 
ATOM      4  C   UNL     1       3.725   4.350  19.020  0.00  0.00    +0.000 A 
ATOM      5  C   UNL     1       4.879   3.574  19.233  0.00  0.00    +0.000 A 
ATOM      6  N   UNL     1       4.880   2.227  19.591  0.00  0.00    +0.000 N 
ATOM      7  N   UNL     1       6.091   4.137  19.080  0.00  0.00    +0.000 NA
ATOM      8  C   UNL     1       6.157   5.435  18.730  0.00  0.00    +0.000 A 
ATOM      9  N   UNL     1       5.141   6.268  18.475  0.00  0.00    +0.000 NA
ATOM     10  C   UNL     1       3.949   5.669  18.633  0.00  0.00    +0.000 A 
ATOM     11  H   UNL     1       4.262   2.052  20.379  0.00  0.00    +0.000 HD
ATOM     12  H   UNL     1       5.846   1.970  19.784  0.00  0.00    +0.000 HD
ENDROOT
BRANCH   3  13
ATOM     13  C   UNL     1       1.491   3.010  19.426  0.00  0.00    +0.000 C 
ATOM     14  N   UNL     1       0.468   3.223  20.299  0.00  0.00    +0.000 N 
ATOM     15  O   UNL     1       1.722   1.877  19.014  0.00  0.00    +0.000 OA
ATOM     16  H   UNL     1       0.392   4.096  20.812  0.00  0.00    +0.000 HD
ATOM     17  H   UNL     1       0.010   2.404  20.665  0.00  0.00    +0.000 HD
ENDBRANCH   3  13
BRANCH   1  18
ATOM     18  C   UNL     1       2.550   7.555  17.751  0.00  0.00    +0.000 C 
BRANCH  18  22
ATOM     19  C   UNL     1       0.382  10.424  20.207  0.00  0.00    +0.000 A 
ATOM     20  C   UNL     1       1.022   9.309  20.771  0.00  0.00    +0.000 A 
ATOM     21  C   UNL     1       1.704   8.378  19.978  0.00  0.00    +0.000 A 
ATOM     22  C   UNL     1       1.774   8.533  18.591  0.00  0.00    +0.000 A 
ATOM     23  C   UNL     1       1.134   9.633  18.012  0.00  0.00    +0.000 A 
ATOM     24  C   UNL     1       0.456  10.565  18.809  0.00  0.00    +0.000 A 
BRANCH  19  26
ATOM     25  C   UNL     1      -1.724  11.902  20.393  0.00  0.00    +0.000 C 
ATOM     26  C   UNL     1      -0.402  11.447  21.051  0.00  0.00    +0.000 C 
ATOM     27  C   UNL     1       0.467  12.705  21.263  0.00  0.00    +0.000 C 
ATOM     28  C   UNL     1      -0.764  10.853  22.429  0.00  0.00    +0.000 C 
ENDBRANCH  19  26
ENDBRANCH  18  22
ENDBRANCH   1  18
TORSDOF 4
ENDMDL
MODEL 3
REMARK VINA RESULT:      -7.7      3.904      7.880
REMARK  Name = 
REMARK  7 active torsions:
REMARK  status: ('A' for Active; 'I' for Inactive)
REMARK    1  A    between atoms: C_1  and  C_2
REMARK    2  A    between atoms: C_2  and  C_3
REMARK    3  A    between atoms: C_2  and  C_4
REMARK    4  A    between atoms: C_2  and  C_5
REMARK    5  A    between atoms: C_8  and  C_9
REMARK    6  A    between atoms: C_9  and  N_10
REMARK    7  A    between atoms: C_12  and  C_13
REMARK                            x       y       z     vdW  Elec       q    Type
REMARK                         _______ _______ _______ _____ _____    ______ ____
ROOT
ATOM      1  N   UNL     1       5.384   5.124  18.593  0.00  0.00    +0.000 N 
ATOM      2  C   UNL     1       4.710   6.306  18.442  0.00  0.00    +0.000 A 
ATOM      3  C   UNL     1       3.453   6.186  19.019  0.00  0.00    +0.000 A 
ATOM      4  C   UNL     1       3.378   4.854  19.557  0.00  0.00    +0.000 A 
ATOM      5  C   UNL     1       2.428   4.055  20.220  0.00  0.00    +0.000 A 
ATOM      6  N   UNL     1       1.133   4.455  20.540  0.00  0.00    +0.000 N 
ATOM      7  N   UNL     1       2.757   2.800  20.579  0.00  0.00    +0.000 NA
ATOM      8  C   UNL     1       3.993   2.352  20.293  0.00  0.00    +0.000 A 
ATOM      9  N   UNL     1       4.971   3.000  19.648  0.00  0.00    +0.000 NA
ATOM     10  C   UNL     1       4.605   4.246  19.302  0.00  0.00    +0.000 A 
ATOM     11  H   UNL     1       1.128   5.359  21.006  0.00  0.00    +0.000 HD
ATOM     12  H   UNL     1       0.724   3.717  21.110  0.00  0.00    +0.000 HD
ENDROOT
BRANCH   3  13
ATOM     13  C   UNL     1       2.486   7.273  19.006  0.00  0.00    +0.000 C 
ATOM     14  N   UNL     1       2.399   8.000  17.859  0.00  0.00    +0.000 N 
ATOM     15  O   UNL     1       1.802   7.576  19.981  0.00  0.00    +0.000 OA
ATOM     16  H   UNL     1       3.095   7.907  17.126  0.00  0.00    +0.000 HD
ATOM     17  H   UNL     1       1.850   8.844  17.900  0.00  0.00    +0.000 HD
ENDBRANCH   3  13
BRANCH   1  18
ATOM     18  C   UNL     1       6.637   4.783  17.934  0.00  0.00    +0.000 C 
BRANCH  18  22
ATOM     19  C   UNL     1       6.238   3.869  13.695  0.00  0.00    +0.000 A 
ATOM     20  C   UNL     1       7.229   4.744  14.168  0.00  0.00    +0.000 A 
ATOM     21  C   UNL     1       7.345   5.050  15.530  0.00  0.00    +0.000 A 
ATOM     22  C   UNL     1       6.474   4.487  16.467  0.00  0.00    +0.000 A 
ATOM     23  C   UNL     1       5.475   3.621  16.011  0.00  0.00    +0.000 A 
ATOM     24  C   UNL     1       5.365   3.314  14.649  0.00  0.00    +0.000 A 
BRANCH  19  26
ATOM     25  C   UNL     1       6.428   2.078  11.848  0.00  0.00    +0.000 C 
ATOM     26  C   UNL     1       6.066   3.538  12.200  0.00  0.00    +0.000 C 
ATOM     27  C   UNL     1       6.986   4.458  11.367  0.00  0.00    +0.000 C 
ATOM     28  C   UNL     1       4.605   3.762  11.756  0.00  0.00    +0.000 C 
ENDBRANCH  19  26
ENDBRANCH  18  22
ENDBRANCH   1  18
TORSDOF 4
ENDMDL
MODEL 4
REMARK VINA RESULT:      -7.5      3.898      7.888
REMARK  Name = 
REMARK  7 active torsions:
REMARK  status: ('A' for Active; 'I' for Inactive)
REMARK    1  A    between atoms: C_1  and  C_2
REMARK    2  A    between atoms: C_2  and  C_3
REMARK    3  A    between atoms: C_2  and  C_4
REMARK    4  A    between atoms: C_2  and  C_5
REMARK    5  A    between atoms: C_8  and  C_9
REMARK    6  A    between atoms: C_9  and  N_10
REMARK    7  A    between atoms: C_12  and  C_13
REMARK                            x       y       z     vdW  Elec       q    Type
REMARK                         _______ _______ _______ _____ _____    ______ ____
ROOT
ATOM      1  N   UNL     1       5.459   5.120  18.580  0.00  0.00    +0.000 N 
ATOM      2  C   UNL     1       4.776   6.295  18.413  0.00  0.00    +0.000 A 
ATOM      3  C   UNL     1       3.519   6.170  18.987  0.00  0.00    +0.000 A 
ATOM      4  C   UNL     1       3.452   4.843  19.539  0.00  0.00    +0.000 A 
ATOM      5  C   UNL     1       2.507   4.043  20.207  0.00  0.00    +0.000 A 
ATOM      6  N   UNL     1       1.207   4.436  20.518  0.00  0.00    +0.000 N 
ATOM      7  N   UNL     1       2.844   2.795  20.580  0.00  0.00    +0.000 NA
ATOM      8  C   UNL     1       4.085   2.355  20.304  0.00  0.00    +0.000 A 
ATOM      9  N   UNL     1       5.060   3.004  19.656  0.00  0.00    +0.000 NA
ATOM     10  C   UNL     1       4.685   4.243  19.295  0.00  0.00    +0.000 A 
ATOM     11  H   UNL     1       1.193   5.345  20.974  0.00  0.00    +0.000 HD
ATOM     12  H   UNL     1       0.802   3.700  21.095  0.00  0.00    +0.000 HD
ENDROOT
BRANCH   3  13
ATOM     13  C   UNL     1       2.543   7.249  18.959  0.00  0.00    +0.000 C 
ATOM     14  N   UNL     1       2.462   7.971  17.808  0.00  0.00    +0.000 N 
ATOM     15  O   UNL     1       1.845   7.549  19.924  0.00  0.00    +0.000 OA
ATOM     16  H   UNL     1       3.168   7.881  17.084  0.00  0.00    +0.000 HD
ATOM     17  H   UNL     1       1.905   8.810  17.840  0.00  0.00    +0.000 HD
ENDBRANCH   3  13
BRANCH   1  18
ATOM     18  C   UNL     1       6.717   4.782  17.928  0.00  0.00    +0.000 C 
BRANCH  18  22
ATOM     19  C   UNL     1       6.191   3.878  13.701  0.00  0.00    +0.000 A 
ATOM     20  C   UNL     1       5.383   3.287  14.686  0.00  0.00    +0.000 A 
ATOM     21  C   UNL     1       5.565   3.566  16.046  0.00  0.00    +0.000 A 
ATOM     22  C   UNL     1       6.560   4.451  16.469  0.00  0.00    +0.000 A 
ATOM     23  C   UNL     1       7.380   5.041  15.502  0.00  0.00    +0.000 A 
ATOM     24  C   UNL     1       7.192   4.763  14.142  0.00  0.00    +0.000 A 
BRANCH  19  26
ATOM     25  C   UNL     1       4.595   3.774  11.677  0.00  0.00    +0.000 C 
ATOM     26  C   UNL     1       6.034   3.567  12.201  0.00  0.00    +0.000 C 
ATOM     27  C   UNL     1       6.412   2.092  11.945  0.00  0.00    +0.000 C 
ATOM     28  C   UNL     1       6.958   4.470  11.357  0.00  0.00    +0.000 C 
ENDBRANCH  19  26
ENDBRANCH  18  22
ENDBRANCH   1  18
TORSDOF 4
ENDMDL
MODEL 5
REMARK VINA RESULT:      -7.5      3.979      7.620
REMARK  Name = 
REMARK  7 active torsions:
REMARK  status: ('A' for Active; 'I' for Inactive)
REMARK    1  A    between atoms: C_1  and  C_2
REMARK    2  A    between atoms: C_2  and  C_3
REMARK    3  A    between atoms: C_2  and  C_4
REMARK    4  A    between atoms: C_2  and  C_5
REMARK    5  A    between atoms: C_8  and  C_9
REMARK    6  A    between atoms: C_9  and  N_10
REMARK    7  A    between atoms: C_12  and  C_13
REMARK                            x       y       z     vdW  Elec       q    Type
REMARK                         _______ _______ _______ _____ _____    ______ ____
ROOT
ATOM      1  N   UNL     1       0.871   9.977  18.256  0.00  0.00    +0.000 N 
ATOM      2  C   UNL     1      -0.159   9.484  17.500  0.00  0.00    +0.000 A 
ATOM      3  C   UNL     1      -1.320  10.178  17.813  0.00  0.00    +0.000 A 
ATOM      4  C   UNL     1      -0.957  11.152  18.807  0.00  0.00    +0.000 A 
ATOM      5  C   UNL     1      -1.601  12.135  19.580  0.00  0.00    +0.000 A 
ATOM      6  N   UNL     1      -2.967  12.411  19.543  0.00  0.00    +0.000 N 
ATOM      7  N   UNL     1      -0.879  12.879  20.438  0.00  0.00    +0.000 NA
ATOM      8  C   UNL     1       0.445  12.657  20.524  0.00  0.00    +0.000 A 
ATOM      9  N   UNL     1       1.167  11.741  19.867  0.00  0.00    +0.000 NA
ATOM     10  C   UNL     1       0.412  11.016  19.025  0.00  0.00    +0.000 A 
ATOM     11  H   UNL     1      -3.295  12.530  18.588  0.00  0.00    +0.000 HD
ATOM     12  H   UNL     1      -3.120  13.238  20.118  0.00  0.00    +0.000 HD
ENDROOT
BRANCH   3  13
ATOM     13  C   UNL     1      -2.598   9.874  17.187  0.00  0.00    +0.000 C 
ATOM     14  N   UNL     1      -2.602   9.757  15.831  0.00  0.00    +0.000 N 
ATOM     15  O   UNL     1      -3.647   9.769  17.818  0.00  0.00    +0.000 OA
ATOM     16  H   UNL     1      -1.802  10.047  15.278  0.00  0.00    +0.000 HD
ATOM     17  H   UNL     1      -3.505   9.703  15.386  0.00  0.00    +0.000 HD
ENDBRANCH   3  13
BRANCH   1  18
ATOM     18  C   UNL     1       2.188   9.368  18.377  0.00  0.00    +0.000 C 
BRANCH  18  22
ATOM     19  C   UNL     1       2.136   5.201  19.640  0.00  0.00    +0.000 A 
ATOM     20  C   UNL     1       2.438   5.565  18.318  0.00  0.00    +0.000 A 
ATOM     21  C   UNL     1       2.438   6.904  17.910  0.00  0.00    +0.000 A 
ATOM     22  C   UNL     1       2.138   7.928  18.812  0.00  0.00    +0.000 A 
ATOM     23  C   UNL     1       1.826   7.582  20.131  0.00  0.00    +0.000 A 
ATOM     24  C   UNL     1       1.831   6.242  20.537  0.00  0.00    +0.000 A 
BRANCH  19  26
ATOM     25  C   UNL     1       2.093   3.582  21.648  0.00  0.00    +0.000 C 
ATOM     26  C   UNL     1       2.098   3.734  20.110  0.00  0.00    +0.000 C 
ATOM     27  C   UNL     1       3.344   2.996  19.575  0.00  0.00    +0.000 C 
ATOM     28  C   UNL     1       0.833   3.025  19.581  0.00  0.00    +0.000 C 
ENDBRANCH  19  26
ENDBRANCH  18  22
ENDBRANCH   1  18
TORSDOF 4
ENDMDL
MODEL 6
REMARK VINA RESULT:      -7.5      3.965      7.598
REMARK  Name = 
REMARK  7 active torsions:
REMARK  status: ('A' for Active; 'I' for Inactive)
REMARK    1  A    between atoms: C_1  and  C_2
REMARK    2  A    between atoms: C_2  and  C_3
REMARK    3  A    between atoms: C_2  and  C_4
REMARK    4  A    between atoms: C_2  and  C_5
REMARK    5  A    between atoms: C_8  and  C_9
REMARK    6  A    between atoms: C_9  and  N_10
REMARK    7  A    between atoms: C_12  and  C_13
REMARK                            x       y       z     vdW  Elec       q    Type
REMARK                         _______ _______ _______ _____ _____    ______ ____
ROOT
ATOM      1  N   UNL     1       0.883   9.981  18.357  0.00  0.00    +0.000 N 
ATOM      2  C   UNL     1      -0.146   9.559  17.557  0.00  0.00    +0.000 A 
ATOM      3  C   UNL     1      -1.313  10.198  17.951  0.00  0.00    +0.000 A 
ATOM      4  C   UNL     1      -0.957  11.061  19.045  0.00  0.00    +0.000 A 
ATOM      5  C   UNL     1      -1.610  11.944  19.926  0.00  0.00    +0.000 A 
ATOM      6  N   UNL     1      -2.979  12.202  19.927  0.00  0.00    +0.000 N 
ATOM      7  N   UNL     1      -0.892  12.598  20.857  0.00  0.00    +0.000 NA
ATOM      8  C   UNL     1       0.436  12.387  20.910  0.00  0.00    +0.000 A 
ATOM      9  N   UNL     1       1.166  11.560  20.152  0.00  0.00    +0.000 NA
ATOM     10  C   UNL     1       0.415  10.921  19.239  0.00  0.00    +0.000 A 
ATOM     11  H   UNL     1      -3.316  12.421  18.993  0.00  0.00    +0.000 HD
ATOM     12  H   UNL     1      -3.140  12.958  20.590  0.00  0.00    +0.000 HD
ENDROOT
BRANCH   3  13
ATOM     13  C   UNL     1      -2.592   9.946  17.303  0.00  0.00    +0.000 C 
ATOM     14  N   UNL     1      -2.574   9.813  15.948  0.00  0.00    +0.000 N 
ATOM     15  O   UNL     1      -3.657   9.898  17.913  0.00  0.00    +0.000 OA
ATOM     16  H   UNL     1      -1.751  10.060  15.409  0.00  0.00    +0.000 HD
ATOM     17  H   UNL     1      -3.469   9.797  15.485  0.00  0.00    +0.000 HD
ENDBRANCH   3  13
BRANCH   1  18
ATOM     18  C   UNL     1       2.209   9.381  18.403  0.00  0.00    +0.000 C 
BRANCH  18  22
ATOM     19  C   UNL     1       2.079   5.218  19.674  0.00  0.00    +0.000 A 
ATOM     20  C   UNL     1       1.763   6.266  20.554  0.00  0.00    +0.000 A 
ATOM     21  C   UNL     1       1.822   7.605  20.148  0.00  0.00    +0.000 A 
ATOM     22  C   UNL     1       2.195   7.943  18.844  0.00  0.00    +0.000 A 
ATOM     23  C   UNL     1       2.522   6.912  17.958  0.00  0.00    +0.000 A 
ATOM     24  C   UNL     1       2.458   5.573  18.366  0.00  0.00    +0.000 A 
BRANCH  19  26
ATOM     25  C   UNL     1       3.243   2.920  19.552  0.00  0.00    +0.000 C 
ATOM     26  C   UNL     1       2.053   3.738  20.101  0.00  0.00    +0.000 C 
ATOM     27  C   UNL     1       0.757   3.080  19.578  0.00  0.00    +0.000 C 
ATOM     28  C   UNL     1       2.089   3.614  21.639  0.00  0.00    +0.000 C 
ENDBRANCH  19  26
ENDBRANCH  18  22
ENDBRANCH   1  18
TORSDOF 4
ENDMDL
MODEL 7
REMARK VINA RESULT:      -7.4      3.877      7.634
REMARK  Name = 
REMARK  7 active torsions:
REMARK  status: ('A' for Active; 'I' for Inactive)
REMARK    1  A    between atoms: C_1  and  C_2
REMARK    2  A    between atoms: C_2  and  C_3
REMARK    3  A    between atoms: C_2  and  C_4
REMARK    4  A    between atoms: C_2  and  C_5
REMARK    5  A    between atoms: C_8  and  C_9
REMARK    6  A    between atoms: C_9  and  N_10
REMARK    7  A    between atoms: C_12  and  C_13
REMARK                            x       y       z     vdW  Elec       q    Type
REMARK                         _______ _______ _______ _____ _____    ______ ____
ROOT
ATOM      1  N   UNL     1       1.001   9.943  18.589  0.00  0.00    +0.000 N 
ATOM      2  C   UNL     1       0.061   9.683  17.628  0.00  0.00    +0.000 A 
ATOM      3  C   UNL     1      -1.117  10.338  17.961  0.00  0.00    +0.000 A 
ATOM      4  C   UNL     1      -0.860  11.040  19.189  0.00  0.00    +0.000 A 
ATOM      5  C   UNL     1      -1.575  11.847  20.092  0.00  0.00    +0.000 A 
ATOM      6  N   UNL     1      -2.922  12.185  19.967  0.00  0.00    +0.000 N 
ATOM      7  N   UNL     1      -0.949  12.341  21.176  0.00  0.00    +0.000 NA
ATOM      8  C   UNL     1       0.351  12.046  21.357  0.00  0.00    +0.000 A 
ATOM      9  N   UNL     1       1.131  11.274  20.590  0.00  0.00    +0.000 NA
ATOM     10  C   UNL     1       0.471  10.796  19.522  0.00  0.00    +0.000 A 
ATOM     11  H   UNL     1      -3.131  12.534  19.035  0.00  0.00    +0.000 HD
ATOM     12  H   UNL     1      -3.129  12.864  20.697  0.00  0.00    +0.000 HD
ENDROOT
BRANCH   3  13
ATOM     13  C   UNL     1      -2.316  10.242  17.141  0.00  0.00    +0.000 C 
ATOM     14  N   UNL     1      -2.413  11.110  16.097  0.00  0.00    +0.000 N 
ATOM     15  O   UNL     1      -3.233   9.462  17.381  0.00  0.00    +0.000 OA
ATOM     16  H   UNL     1      -1.777  11.896  16.009  0.00  0.00    +0.000 HD
ATOM     17  H   UNL     1      -3.304  11.153  15.627  0.00  0.00    +0.000 HD
ENDBRANCH   3  13
BRANCH   1  18
ATOM     18  C   UNL     1       2.283   9.264  18.713  0.00  0.00    +0.000 C 
BRANCH  18  22
ATOM     19  C   UNL     1       1.991   4.992  19.506  0.00  0.00    +0.000 A 
ATOM     20  C   UNL     1       2.331   5.482  18.235  0.00  0.00    +0.000 A 
ATOM     21  C   UNL     1       2.408   6.857  17.977  0.00  0.00    +0.000 A 
ATOM     22  C   UNL     1       2.151   7.790  18.985  0.00  0.00    +0.000 A 
ATOM     23  C   UNL     1       1.802   7.319  20.255  0.00  0.00    +0.000 A 
ATOM     24  C   UNL     1       1.730   5.943  20.510  0.00  0.00    +0.000 A 
BRANCH  19  26
ATOM     25  C   UNL     1       0.859   2.755  18.897  0.00  0.00    +0.000 C 
ATOM     26  C   UNL     1       1.868   3.487  19.811  0.00  0.00    +0.000 C 
ATOM     27  C   UNL     1       1.395   3.300  21.268  0.00  0.00    +0.000 C 
ATOM     28  C   UNL     1       3.230   2.783  19.636  0.00  0.00    +0.000 C 
ENDBRANCH  19  26
ENDBRANCH  18  22
ENDBRANCH   1  18
TORSDOF 4
ENDMDL
MODEL 8
REMARK VINA RESULT:      -7.4      1.835      3.344
REMARK  Name = 
REMARK  7 active torsions:
REMARK  status: ('A' for Active; 'I' for Inactive)
REMARK    1  A    between atoms: C_1  and  C_2
REMARK    2  A    between atoms: C_2  and  C_3
REMARK    3  A    between atoms: C_2  and  C_4
REMARK    4  A    between atoms: C_2  and  C_5
REMARK    5  A    between atoms: C_8  and  C_9
REMARK    6  A    between atoms: C_9  and  N_10
REMARK    7  A    between atoms: C_12  and  C_13
REMARK                            x       y       z     vdW  Elec       q    Type
REMARK                         _______ _______ _______ _____ _____    ______ ____
ROOT
ATOM      1  N   UNL     1       3.785   6.061  17.577  0.00  0.00    +0.000 N 
ATOM      2  C   UNL     1       5.106   6.247  17.887  0.00  0.00    +0.000 A 
ATOM      3  C   UNL     1       5.568   5.134  18.577  0.00  0.00    +0.000 A 
ATOM      4  C   UNL     1       4.458   4.225  18.674  0.00  0.00    +0.000 A 
ATOM      5  C   UNL     1       4.193   2.968  19.249  0.00  0.00    +0.000 A 
ATOM      6  N   UNL     1       5.109   2.217  19.981  0.00  0.00    +0.000 N 
ATOM      7  N   UNL     1       2.970   2.424  19.111  0.00  0.00    +0.000 NA
ATOM      8  C   UNL     1       2.038   3.104  18.419  0.00  0.00    +0.000 A 
ATOM      9  N   UNL     1       2.156   4.309  17.850  0.00  0.00    +0.000 NA
ATOM     10  C   UNL     1       3.387   4.823  18.012  0.00  0.00    +0.000 A 
ATOM     11  H   UNL     1       5.995   2.131  19.489  0.00  0.00    +0.000 HD
ATOM     12  H   UNL     1       4.675   1.315  20.169  0.00  0.00    +0.000 HD
ENDROOT
BRANCH   3  13
ATOM     13  C   UNL     1       6.936   5.036  19.063  0.00  0.00    +0.000 C 
ATOM     14  N   UNL     1       7.836   4.435  18.238  0.00  0.00    +0.000 N 
ATOM     15  O   UNL     1       7.283   5.422  20.176  0.00  0.00    +0.000 OA
ATOM     16  H   UNL     1       7.532   3.923  17.416  0.00  0.00    +0.000 HD
ATOM     17  H   UNL     1       8.740   4.226  18.632  0.00  0.00    +0.000 HD
ENDBRANCH   3  13
BRANCH   1  18
ATOM     18  C   UNL     1       2.894   7.087  17.055  0.00  0.00    +0.000 C 
BRANCH  18  22
ATOM     19  C   UNL     1       1.058   9.470  20.204  0.00  0.00    +0.000 A 
ATOM     20  C   UNL     1       1.616   8.208  20.467  0.00  0.00    +0.000 A 
ATOM     21  C   UNL     1       2.191   7.436  19.450  0.00  0.00    +0.000 A 
ATOM     22  C   UNL     1       2.231   7.902  18.133  0.00  0.00    +0.000 A 
ATOM     23  C   UNL     1       1.672   9.153  17.852  0.00  0.00    +0.000 A 
ATOM     24  C   UNL     1       1.102   9.924  18.873  0.00  0.00    +0.000 A 
BRANCH  19  26
ATOM     25  C   UNL     1      -1.101  10.618  21.024  0.00  0.00    +0.000 C 
ATOM     26  C   UNL     1       0.392  10.328  21.297  0.00  0.00    +0.000 C 
ATOM     27  C   UNL     1       1.119  11.686  21.392  0.00  0.00    +0.000 C 
ATOM     28  C   UNL     1       0.473   9.623  22.668  0.00  0.00    +0.000 C 
ENDBRANCH  19  26
ENDBRANCH  18  22
ENDBRANCH   1  18
TORSDOF 4
ENDMDL
MODEL 9
REMARK VINA RESULT:      -7.4      1.919      3.360
REMARK  Name = 
REMARK  7 active torsions:
REMARK  status: ('A' for Active; 'I' for Inactive)
REMARK    1  A    between atoms: C_1  and  C_2
REMARK    2  A    between atoms: C_2  and  C_3
REMARK    3  A    between atoms: C_2  and  C_4
REMARK    4  A    between atoms: C_2  and  C_5
REMARK    5  A    between atoms: C_8  and  C_9
REMARK    6  A    between atoms: C_9  and  N_10
REMARK    7  A    between atoms: C_12  and  C_13
REMARK                            x       y       z     vdW  Elec       q    Type
REMARK                         _______ _______ _______ _____ _____    ______ ____
ROOT
ATOM      1  N   UNL     1       2.509   6.265  19.540  0.00  0.00    +0.000 N 
ATOM      2  C   UNL     1       3.429   6.346  18.528  0.00  0.00    +0.000 A 
ATOM      3  C   UNL     1       3.552   5.100  17.931  0.00  0.00    +0.000 A 
ATOM      4  C   UNL     1       2.643   4.225  18.620  0.00  0.00    +0.000 A 
ATOM      5  C   UNL     1       2.279   2.866  18.581  0.00  0.00    +0.000 A 
ATOM      6  N   UNL     1       2.828   1.917  17.721  0.00  0.00    +0.000 N 
ATOM      7  N   UNL     1       1.340   2.409  19.430  0.00  0.00    +0.000 NA
ATOM      8  C   UNL     1       0.775   3.276  20.290  0.00  0.00    +0.000 A 
ATOM      9  N   UNL     1       1.050   4.577  20.443  0.00  0.00    +0.000 NA
ATOM     10  C   UNL     1       1.994   4.995  19.583  0.00  0.00    +0.000 A 
ATOM     11  H   UNL     1       2.830   2.246  16.759  0.00  0.00    +0.000 HD
ATOM     12  H   UNL     1       2.294   1.059  17.842  0.00  0.00    +0.000 HD
ENDROOT
BRANCH   3  13
ATOM     13  C   UNL     1       4.471   4.856  16.829  0.00  0.00    +0.000 C 
ATOM     14  N   UNL     1       4.958   5.951  16.184  0.00  0.00    +0.000 N 
ATOM     15  O   UNL     1       4.775   3.730  16.444  0.00  0.00    +0.000 OA
ATOM     16  H   UNL     1       4.560   6.871  16.343  0.00  0.00    +0.000 HD
ATOM     17  H   UNL     1       5.465   5.784  15.330  0.00  0.00    +0.000 HD
ENDBRANCH   3  13
BRANCH   1  18
ATOM     18  C   UNL     1       2.267   7.298  20.537  0.00  0.00    +0.000 C 
BRANCH  18  22
ATOM     19  C   UNL     1      -0.328  10.520  19.177  0.00  0.00    +0.000 A 
ATOM     20  C   UNL     1      -0.418  10.003  20.479  0.00  0.00    +0.000 A 
ATOM     21  C   UNL     1       0.406   8.955  20.910  0.00  0.00    +0.000 A 
ATOM     22  C   UNL     1       1.353   8.390  20.052  0.00  0.00    +0.000 A 
ATOM     23  C   UNL     1       1.449   8.887  18.748  0.00  0.00    +0.000 A 
ATOM     24  C   UNL     1       0.627   9.938  18.323  0.00  0.00    +0.000 A 
BRANCH  19  26
ATOM     25  C   UNL     1      -2.289  12.110  19.705  0.00  0.00    +0.000 C 
ATOM     26  C   UNL     1      -1.241  11.650  18.666  0.00  0.00    +0.000 C 
ATOM     27  C   UNL     1      -2.008  11.160  17.419  0.00  0.00    +0.000 C 
ATOM     28  C   UNL     1      -0.409  12.892  18.282  0.00  0.00    +0.000 C 
ENDBRANCH  19  26
ENDBRANCH  18  22
ENDBRANCH   1  18
TORSDOF 4
ENDMDL
