MODEL 1
REMARK VINA RESULT:      -7.5      0.000      0.000
REMARK  Name = 
REMARK  8 active torsions:
REMARK  status: ('A' for Active; 'I' for Inactive)
REMARK    1  A    between atoms: C_1  and  C_2
REMARK    2  A    between atoms: C_2  and  N_3
REMARK    3  A    between atoms: C_4  and  C_5
REMARK    4  A    between atoms: C_5  and  N_6
REMARK    5  A    between atoms: N_6  and  C_7
REMARK    6  A    between atoms: N_6  and  C_8
REMARK    7  A    between atoms: C_8  and  C_9
REMARK    8  A    between atoms: C_12  and  C_13
REMARK                            x       y       z     vdW  Elec       q    Type
REMARK                         _______ _______ _______ _____ _____    ______ ____
ROOT
ATOM      1  N   UNL     1       3.599   5.741  18.002  0.00  0.00    +0.000 N 
ATOM      2  C   UNL     1       4.046   4.825  17.070  0.00  0.00    +0.000 A 
ATOM      3  N   UNL     1       3.709   3.600  17.437  0.00  0.00    +0.000 NA
ATOM      4  C   UNL     1       3.071   3.713  18.632  0.00  0.00    +0.000 A 
ATOM      5  C   UNL     1       2.535   2.701  19.430  0.00  0.00    +0.000 A 
ATOM      6  C   UNL     1       1.969   3.068  20.645  0.00  0.00    +0.000 A 
ATOM      7  F   UNL     1       1.456   2.119  21.438  0.00  0.00    +0.000 F 
ATOM      8  C   UNL     1       1.926   4.398  21.062  0.00  0.00    +0.000 A 
ATOM      9  C   UNL     1       2.442   5.421  20.262  0.00  0.00    +0.000 A 
ATOM     10  C   UNL     1       3.009   5.043  19.040  0.00  0.00    +0.000 A 
ENDROOT
BRANCH   1  12
ATOM     11  C   UNL     1       2.425   7.910  17.754  0.00  0.00    +0.000 C 
ATOM     12  C   UNL     1       3.746   7.185  17.957  0.00  0.00    +0.000 C 
ENDBRANCH   1  12
BRANCH   2  13
ATOM     13  C   UNL     1       4.833   5.188  15.836  0.00  0.00    +0.000 C 
BRANCH  13  14
ATOM     14  N   UNL     1       5.668   4.116  15.242  0.00  0.00    +0.000 NA
ATOM     15  C   UNL     1       5.352   3.909  13.827  0.00  0.00    +0.000 C 
BRANCH  14  16
ATOM     16  C   UNL     1       7.115   4.364  15.398  0.00  0.00    +0.000 C 
BRANCH  16  17
ATOM     17  C   UNL     1       7.380   5.201  16.618  0.00  0.00    +0.000 A 
ATOM     18  C   UNL     1       7.515   4.742  17.916  0.00  0.00    +0.000 A 
ATOM     19  S   UNL     1       7.788   6.053  18.981  0.00  0.00    +0.000 S 
ATOM     20  C   UNL     1       7.710   7.136  17.655  0.00  0.00    +0.000 A 
ATOM     21  C   UNL     1       7.849   8.603  17.856  0.00  0.00    +0.000 C 
ATOM     22  N   UNL     1       7.504   6.582  16.482  0.00  0.00    +0.000 NA
ENDBRANCH  16  17
ENDBRANCH  14  16
ENDBRANCH  13  14
ENDBRANCH   2  13
TORSDOF 5
ENDMDL
MODEL 2
REMARK VINA RESULT:      -7.1      1.847      3.346
REMARK  Name = 
REMARK  8 active torsions:
REMARK  status: ('A' for Active; 'I' for Inactive)
REMARK    1  A    between atoms: C_1  and  C_2
REMARK    2  A    between atoms: C_2  and  N_3
REMARK    3  A    between atoms: C_4  and  C_5
REMARK    4  A    between atoms: C_5  and  N_6
REMARK    5  A    between atoms: N_6  and  C_7
REMARK    6  A    between atoms: N_6  and  C_8
REMARK    7  A    between atoms: C_8  and  C_9
REMARK    8  A    between atoms: C_12  and  C_13
REMARK                            x       y       z     vdW  Elec       q    Type
REMARK                         _______ _______ _______ _____ _____    ______ ____
ROOT
ATOM      1  N   UNL     1       3.408   6.355  18.084  0.00  0.00    +0.000 N 
ATOM      2  C   UNL     1       4.147   5.639  17.162  0.00  0.00    +0.000 A 
ATOM      3  N   UNL     1       3.998   4.341  17.367  0.00  0.00    +0.000 NA
ATOM      4  C   UNL     1       3.186   4.209  18.450  0.00  0.00    +0.000 A 
ATOM      5  C   UNL     1       2.742   3.037  19.065  0.00  0.00    +0.000 A 
ATOM      6  C   UNL     1       1.949   3.164  20.200  0.00  0.00    +0.000 A 
ATOM      7  F   UNL     1       1.516   2.058  20.818  0.00  0.00    +0.000 F 
ATOM      8  C   UNL     1       1.598   4.411  20.713  0.00  0.00    +0.000 A 
ATOM      9  C   UNL     1       2.022   5.591  20.094  0.00  0.00    +0.000 A 
ATOM     10  C   UNL     1       2.818   5.455  18.952  0.00  0.00    +0.000 A 
ENDROOT
BRANCH   1  12
ATOM     11  C   UNL     1       1.957   8.320  17.661  0.00  0.00    +0.000 C 
ATOM     12  C   UNL     1       3.287   7.798  18.183  0.00  0.00    +0.000 C 
ENDBRANCH   1  12
BRANCH   2  13
ATOM     13  C   UNL     1       5.020   6.267  16.105  0.00  0.00    +0.000 C 
BRANCH  13  14
ATOM     14  N   UNL     1       6.485   6.162  16.305  0.00  0.00    +0.000 NA
ATOM     15  C   UNL     1       6.868   6.510  17.676  0.00  0.00    +0.000 C 
BRANCH  14  16
ATOM     16  C   UNL     1       7.015   4.827  15.964  0.00  0.00    +0.000 C 
BRANCH  16  17
ATOM     17  C   UNL     1       6.949   4.593  14.481  0.00  0.00    +0.000 A 
ATOM     18  C   UNL     1       7.728   5.205  13.517  0.00  0.00    +0.000 A 
ATOM     19  S   UNL     1       7.289   4.647  11.960  0.00  0.00    +0.000 S 
ATOM     20  C   UNL     1       6.100   3.636  12.667  0.00  0.00    +0.000 A 
ATOM     21  C   UNL     1       5.216   2.788  11.822  0.00  0.00    +0.000 C 
ATOM     22  N   UNL     1       6.020   3.685  13.977  0.00  0.00    +0.000 NA
ENDBRANCH  16  17
ENDBRANCH  14  16
ENDBRANCH  13  14
ENDBRANCH   2  13
TORSDOF 5
ENDMDL
MODEL 3
REMARK VINA RESULT:      -7.0      2.005      3.117
REMARK  Name = 
REMARK  8 active torsions:
REMARK  status: ('A' for Active; 'I' for Inactive)
REMARK    1  A    between atoms: C_1  and  C_2
REMARK    2  A    between atoms: C_2  and  N_3
REMARK    3  A    between atoms: C_4  and  C_5
REMARK    4  A    between atoms: C_5  and  N_6
REMARK    5  A    between atoms: N_6  and  C_7
REMARK    6  A    between atoms: N_6  and  C_8
REMARK    7  A    between atoms: C_8  and  C_9
REMARK    8  A    between atoms: C_12  and  C_13
REMARK                            x       y       z     vdW  Elec       q    Type
REMARK                         _______ _______ _______ _____ _____    ______ ____
ROOT
ATOM      1  N   UNL     1       3.816   5.417  18.692  0.00  0.00    +0.000 N 
ATOM      2  C   UNL     1       5.016   4.906  19.147  0.00  0.00    +0.000 A 
ATOM      3  N   UNL     1       4.878   3.628  19.459  0.00  0.00    +0.000 NA
ATOM      4  C   UNL     1       3.574   3.312  19.242  0.00  0.00    +0.000 A 
ATOM      5  C   UNL     1       2.933   2.087  19.434  0.00  0.00    +0.000 A 
ATOM      6  C   UNL     1       1.567   2.027  19.185  0.00  0.00    +0.000 A 
ATOM      7  F   UNL     1       0.921   0.869  19.370  0.00  0.00    +0.000 F 
ATOM      8  C   UNL     1       0.851   3.142  18.751  0.00  0.00    +0.000 A 
ATOM      9  C   UNL     1       1.487   4.369  18.537  0.00  0.00    +0.000 A 
ATOM     10  C   UNL     1       2.861   4.420  18.790  0.00  0.00    +0.000 A 
ENDROOT
BRANCH   1  12
ATOM     11  C   UNL     1       2.431   7.449  18.998  0.00  0.00    +0.000 C 
ATOM     12  C   UNL     1       3.553   6.768  18.232  0.00  0.00    +0.000 C 
ENDBRANCH   1  12
BRANCH   2  13
ATOM     13  C   UNL     1       6.280   5.714  19.291  0.00  0.00    +0.000 C 
BRANCH  13  14
ATOM     14  N   UNL     1       7.017   6.023  18.042  0.00  0.00    +0.000 NA
ATOM     15  C   UNL     1       8.085   7.000  18.275  0.00  0.00    +0.000 C 
BRANCH  14  16
ATOM     16  C   UNL     1       7.574   4.821  17.393  0.00  0.00    +0.000 C 
BRANCH  16  17
ATOM     17  C   UNL     1       7.018   4.661  16.006  0.00  0.00    +0.000 A 
ATOM     18  C   UNL     1       5.849   4.011  15.659  0.00  0.00    +0.000 A 
ATOM     19  S   UNL     1       5.625   4.059  13.963  0.00  0.00    +0.000 S 
ATOM     20  C   UNL     1       7.088   4.937  13.804  0.00  0.00    +0.000 A 
ATOM     21  C   UNL     1       7.596   5.343  12.466  0.00  0.00    +0.000 C 
ATOM     22  N   UNL     1       7.718   5.198  14.927  0.00  0.00    +0.000 NA
ENDBRANCH  16  17
ENDBRANCH  14  16
ENDBRANCH  13  14
ENDBRANCH   2  13
TORSDOF 5
ENDMDL
MODEL 4
REMARK VINA RESULT:      -6.8      2.176      3.019
REMARK  Name = 
REMARK  8 active torsions:
REMARK  status: ('A' for Active; 'I' for Inactive)
REMARK    1  A    between atoms: C_1  and  C_2
REMARK    2  A    between atoms: C_2  and  N_3
REMARK    3  A    between atoms: C_4  and  C_5
REMARK    4  A    between atoms: C_5  and  N_6
REMARK    5  A    between atoms: N_6  and  C_7
REMARK    6  A    between atoms: N_6  and  C_8
REMARK    7  A    between atoms: C_8  and  C_9
REMARK    8  A    between atoms: C_12  and  C_13
REMARK                            x       y       z     vdW  Elec       q    Type
REMARK                         _______ _______ _______ _____ _____    ______ ____
ROOT
ATOM      1  N   UNL     1       3.526   5.446  18.595  0.00  0.00    +0.000 N 
ATOM      2  C   UNL     1       4.854   5.155  18.841  0.00  0.00    +0.000 A 
ATOM      3  N   UNL     1       4.950   4.162  19.709  0.00  0.00    +0.000 NA
ATOM      4  C   UNL     1       3.680   3.826  20.059  0.00  0.00    +0.000 A 
ATOM      5  C   UNL     1       3.257   2.842  20.954  0.00  0.00    +0.000 A 
ATOM      6  C   UNL     1       1.891   2.721  21.181  0.00  0.00    +0.000 A 
ATOM      7  F   UNL     1       1.454   1.793  22.043  0.00  0.00    +0.000 F 
ATOM      8  C   UNL     1       0.965   3.543  20.541  0.00  0.00    +0.000 A 
ATOM      9  C   UNL     1       1.377   4.518  19.628  0.00  0.00    +0.000 A 
ATOM     10  C   UNL     1       2.753   4.633  19.404  0.00  0.00    +0.000 A 
ENDROOT
BRANCH   1  12
ATOM     11  C   UNL     1       2.580   7.728  18.401  0.00  0.00    +0.000 C 
ATOM     12  C   UNL     1       3.000   6.451  17.690  0.00  0.00    +0.000 C 
ENDBRANCH   1  12
BRANCH   2  13
ATOM     13  C   UNL     1       6.012   5.900  18.226  0.00  0.00    +0.000 C 
BRANCH  13  14
ATOM     14  N   UNL     1       6.761   5.196  17.157  0.00  0.00    +0.000 NA
ATOM     15  C   UNL     1       7.860   4.397  17.707  0.00  0.00    +0.000 C 
BRANCH  14  16
ATOM     16  C   UNL     1       5.897   4.344  16.317  0.00  0.00    +0.000 C 
BRANCH  16  17
ATOM     17  C   UNL     1       6.353   4.374  14.886  0.00  0.00    +0.000 A 
ATOM     18  C   UNL     1       5.917   3.547  13.867  0.00  0.00    +0.000 A 
ATOM     19  S   UNL     1       6.726   3.928  12.409  0.00  0.00    +0.000 S 
ATOM     20  C   UNL     1       7.597   5.159  13.224  0.00  0.00    +0.000 A 
ATOM     21  C   UNL     1       8.615   5.977  12.510  0.00  0.00    +0.000 C 
ATOM     22  N   UNL     1       7.315   5.304  14.498  0.00  0.00    +0.000 NA
ENDBRANCH  16  17
ENDBRANCH  14  16
ENDBRANCH  13  14
ENDBRANCH   2  13
TORSDOF 5
ENDMDL
MODEL 5
REMARK VINA RESULT:      -6.7      4.348      7.215
REMARK  Name = 
REMARK  8 active torsions:
REMARK  status: ('A' for Active; 'I' for Inactive)
REMARK    1  A    between atoms: C_1  and  C_2
REMARK    2  A    between atoms: C_2  and  N_3
REMARK    3  A    between atoms: C_4  and  C_5
REMARK    4  A    between atoms: C_5  and  N_6
REMARK    5  A    between atoms: N_6  and  C_7
REMARK    6  A    between atoms: N_6  and  C_8
REMARK    7  A    between atoms: C_8  and  C_9
REMARK    8  A    between atoms: C_12  and  C_13
REMARK                            x       y       z     vdW  Elec       q    Type
REMARK                         _______ _______ _______ _____ _____    ______ ____
ROOT
ATOM      1  N   UNL     1       2.373   6.728  19.192  0.00  0.00    +0.000 N 
ATOM      2  C   UNL     1       1.793   6.971  20.422  0.00  0.00    +0.000 A 
ATOM      3  N   UNL     1       1.332   5.844  20.940  0.00  0.00    +0.000 NA
ATOM      4  C   UNL     1       1.579   4.867  20.027  0.00  0.00    +0.000 A 
ATOM      5  C   UNL     1       1.271   3.508  20.105  0.00  0.00    +0.000 A 
ATOM      6  C   UNL     1       1.586   2.711  19.010  0.00  0.00    +0.000 A 
ATOM      7  F   UNL     1       1.294   1.405  19.050  0.00  0.00    +0.000 F 
ATOM      8  C   UNL     1       2.194   3.237  17.871  0.00  0.00    +0.000 A 
ATOM      9  C   UNL     1       2.524   4.593  17.791  0.00  0.00    +0.000 A 
ATOM     10  C   UNL     1       2.204   5.388  18.897  0.00  0.00    +0.000 A 
ENDROOT
BRANCH   1  12
ATOM     11  C   UNL     1       2.017   8.580  17.584  0.00  0.00    +0.000 C 
ATOM     12  C   UNL     1       3.012   7.693  18.315  0.00  0.00    +0.000 C 
ENDBRANCH   1  12
BRANCH   2  13
ATOM     13  C   UNL     1       1.682   8.337  21.051  0.00  0.00    +0.000 C 
BRANCH  13  14
ATOM     14  N   UNL     1       0.367   9.014  20.940  0.00  0.00    +0.000 NA
ATOM     15  C   UNL     1      -0.358   8.994  22.213  0.00  0.00    +0.000 C 
BRANCH  14  16
ATOM     16  C   UNL     1       0.476  10.402  20.451  0.00  0.00    +0.000 C 
BRANCH  16  17
ATOM     17  C   UNL     1      -0.712  10.761  19.604  0.00  0.00    +0.000 A 
ATOM     18  C   UNL     1      -1.658  11.729  19.884  0.00  0.00    +0.000 A 
ATOM     19  S   UNL     1      -2.842  11.774  18.649  0.00  0.00    +0.000 S 
ATOM     20  C   UNL     1      -2.022  10.512  17.829  0.00  0.00    +0.000 A 
ATOM     21  C   UNL     1      -2.552   9.956  16.555  0.00  0.00    +0.000 C 
ATOM     22  N   UNL     1      -0.930  10.074  18.411  0.00  0.00    +0.000 NA
ENDBRANCH  16  17
ENDBRANCH  14  16
ENDBRANCH  13  14
ENDBRANCH   2  13
TORSDOF 5
ENDMDL
MODEL 6
REMARK VINA RESULT:      -6.6      3.175      6.090
REMARK  Name = 
REMARK  8 active torsions:
REMARK  status: ('A' for Active; 'I' for Inactive)
REMARK    1  A    between atoms: C_1  and  C_2
REMARK    2  A    between atoms: C_2  and  N_3
REMARK    3  A    between atoms: C_4  and  C_5
REMARK    4  A    between atoms: C_5  and  N_6
REMARK    5  A    between atoms: N_6  and  C_7
REMARK    6  A    between atoms: N_6  and  C_8
REMARK    7  A    between atoms: C_8  and  C_9
REMARK    8  A    between atoms: C_12  and  C_13
REMARK                            x       y       z     vdW  Elec       q    Type
REMARK                         _______ _______ _______ _____ _____    ______ ____
ROOT
ATOM      1  N   UNL     1       5.592   4.879  17.985  0.00  0.00    +0.000 N 
ATOM      2  C   UNL     1       4.514   4.019  18.067  0.00  0.00    +0.000 A 
ATOM      3  N   UNL     1       4.340   3.396  16.914  0.00  0.00    +0.000 NA
ATOM      4  C   UNL     1       5.285   3.878  16.064  0.00  0.00    +0.000 A 
ATOM      5  C   UNL     1       5.505   3.539  14.728  0.00  0.00    +0.000 A 
ATOM      6  C   UNL     1       6.514   4.213  14.049  0.00  0.00    +0.000 A 
ATOM      7  F   UNL     1       6.743   3.919  12.763  0.00  0.00    +0.000 F 
ATOM      8  C   UNL     1       7.290   5.189  14.671  0.00  0.00    +0.000 A 
ATOM      9  C   UNL     1       7.091   5.522  16.014  0.00  0.00    +0.000 A 
ATOM     10  C   UNL     1       6.074   4.839  16.690  0.00  0.00    +0.000 A 
ENDROOT
BRANCH   1  12
ATOM     11  C   UNL     1       7.614   5.535  19.259  0.00  0.00    +0.000 C 
ATOM     12  C   UNL     1       6.122   5.727  19.038  0.00  0.00    +0.000 C 
ENDBRANCH   1  12
BRANCH   2  13
ATOM     13  C   UNL     1       3.653   3.855  19.294  0.00  0.00    +0.000 C 
BRANCH  13  14
ATOM     14  N   UNL     1       2.516   4.797  19.437  0.00  0.00    +0.000 NA
ATOM     15  C   UNL     1       1.345   4.140  20.025  0.00  0.00    +0.000 C 
BRANCH  14  16
ATOM     16  C   UNL     1       2.862   5.996  20.225  0.00  0.00    +0.000 C 
BRANCH  16  17
ATOM     17  C   UNL     1       2.343   7.238  19.555  0.00  0.00    +0.000 A 
ATOM     18  C   UNL     1       2.600   7.640  18.258  0.00  0.00    +0.000 A 
ATOM     19  S   UNL     1       1.818   9.127  17.933  0.00  0.00    +0.000 S 
ATOM     20  C   UNL     1       1.192   9.136  19.529  0.00  0.00    +0.000 A 
ATOM     21  C   UNL     1       0.352  10.263  20.015  0.00  0.00    +0.000 C 
ATOM     22  N   UNL     1       1.522   8.105  20.273  0.00  0.00    +0.000 NA
ENDBRANCH  16  17
ENDBRANCH  14  16
ENDBRANCH  13  14
ENDBRANCH   2  13
TORSDOF 5
ENDMDL
MODEL 7
REMARK VINA RESULT:      -6.5      2.000      3.435
REMARK  Name = 
REMARK  8 active torsions:
REMARK  status: ('A' for Active; 'I' for Inactive)
REMARK    1  A    between atoms: C_1  and  C_2
REMARK    2  A    between atoms: C_2  and  N_3
REMARK    3  A    between atoms: C_4  and  C_5
REMARK    4  A    between atoms: C_5  and  N_6
REMARK    5  A    between atoms: N_6  and  C_7
REMARK    6  A    between atoms: N_6  and  C_8
REMARK    7  A    between atoms: C_8  and  C_9
REMARK    8  A    between atoms: C_12  and  C_13
REMARK                            x       y       z     vdW  Elec       q    Type
REMARK                         _______ _______ _______ _____ _____    ______ ____
ROOT
ATOM      1  N   UNL     1       3.486   5.752  18.541  0.00  0.00    +0.000 N 
ATOM      2  C   UNL     1       4.812   5.390  18.680  0.00  0.00    +0.000 A 
ATOM      3  N   UNL     1       4.918   4.353  19.494  0.00  0.00    +0.000 NA
ATOM      4  C   UNL     1       3.659   4.060  19.917  0.00  0.00    +0.000 A 
ATOM      5  C   UNL     1       3.250   3.055  20.795  0.00  0.00    +0.000 A 
ATOM      6  C   UNL     1       1.898   2.986  21.113  0.00  0.00    +0.000 A 
ATOM      7  F   UNL     1       1.476   2.040  21.961  0.00  0.00    +0.000 F 
ATOM      8  C   UNL     1       0.973   3.879  20.576  0.00  0.00    +0.000 A 
ATOM      9  C   UNL     1       1.369   4.877  19.680  0.00  0.00    +0.000 A 
ATOM     10  C   UNL     1       2.731   4.939  19.365  0.00  0.00    +0.000 A 
ENDROOT
BRANCH   1  12
ATOM     11  C   UNL     1       2.370   7.965  18.540  0.00  0.00    +0.000 C 
ATOM     12  C   UNL     1       2.949   6.823  17.721  0.00  0.00    +0.000 C 
ENDBRANCH   1  12
BRANCH   2  13
ATOM     13  C   UNL     1       5.960   6.108  18.018  0.00  0.00    +0.000 C 
BRANCH  13  14
ATOM     14  N   UNL     1       6.589   5.429  16.859  0.00  0.00    +0.000 NA
ATOM     15  C   UNL     1       7.647   4.508  17.283  0.00  0.00    +0.000 C 
BRANCH  14  16
ATOM     16  C   UNL     1       5.612   4.713  16.016  0.00  0.00    +0.000 C 
BRANCH  16  17
ATOM     17  C   UNL     1       6.162   4.496  14.635  0.00  0.00    +0.000 A 
ATOM     18  C   UNL     1       7.183   5.209  14.035  0.00  0.00    +0.000 A 
ATOM     19  S   UNL     1       7.460   4.628  12.450  0.00  0.00    +0.000 S 
ATOM     20  C   UNL     1       6.212   3.474  12.665  0.00  0.00    +0.000 A 
ATOM     21  C   UNL     1       5.835   2.540  11.569  0.00  0.00    +0.000 C 
ATOM     22  N   UNL     1       5.618   3.492  13.836  0.00  0.00    +0.000 NA
ENDBRANCH  16  17
ENDBRANCH  14  16
ENDBRANCH  13  14
ENDBRANCH   2  13
TORSDOF 5
ENDMDL
MODEL 8
REMARK VINA RESULT:      -6.5      2.667      4.099
REMARK  Name = 
REMARK  8 active torsions:
REMARK  status: ('A' for Active; 'I' for Inactive)
REMARK    1  A    between atoms: C_1  and  C_2
REMARK    2  A    between atoms: C_2  and  N_3
REMARK    3  A    between atoms: C_4  and  C_5
REMARK    4  A    between atoms: C_5  and  N_6
REMARK    5  A    between atoms: N_6  and  C_7
REMARK    6  A    between atoms: N_6  and  C_8
REMARK    7  A    between atoms: C_8  and  C_9
REMARK    8  A    between atoms: C_12  and  C_13
REMARK                            x       y       z     vdW  Elec       q    Type
REMARK                         _______ _______ _______ _____ _____    ______ ____
ROOT
ATOM      1  N   UNL     1       2.077   5.469  19.746  0.00  0.00    +0.000 N 
ATOM      2  C   UNL     1       2.309   5.268  18.399  0.00  0.00    +0.000 A 
ATOM      3  N   UNL     1       2.274   6.422  17.753  0.00  0.00    +0.000 NA
ATOM      4  C   UNL     1       1.983   7.376  18.677  0.00  0.00    +0.000 A 
ATOM      5  C   UNL     1       1.827   8.750  18.487  0.00  0.00    +0.000 A 
ATOM      6  C   UNL     1       1.479   9.520  19.591  0.00  0.00    +0.000 A 
ATOM      7  F   UNL     1       1.312  10.839  19.438  0.00  0.00    +0.000 F 
ATOM      8  C   UNL     1       1.295   8.953  20.851  0.00  0.00    +0.000 A 
ATOM      9  C   UNL     1       1.467   7.581  21.056  0.00  0.00    +0.000 A 
ATOM     10  C   UNL     1       1.818   6.814  19.940  0.00  0.00    +0.000 A 
ENDROOT
BRANCH   1  12
ATOM     11  C   UNL     1       0.951   3.435  20.605  0.00  0.00    +0.000 C 
ATOM     12  C   UNL     1       2.054   4.464  20.794  0.00  0.00    +0.000 C 
ENDBRANCH   1  12
BRANCH   2  13
ATOM     13  C   UNL     1       2.531   3.916  17.771  0.00  0.00    +0.000 C 
BRANCH  13  14
ATOM     14  N   UNL     1       3.868   3.304  17.968  0.00  0.00    +0.000 NA
ATOM     15  C   UNL     1       3.774   1.851  18.137  0.00  0.00    +0.000 C 
BRANCH  14  16
ATOM     16  C   UNL     1       4.809   3.619  16.876  0.00  0.00    +0.000 C 
BRANCH  16  17
ATOM     17  C   UNL     1       5.758   4.708  17.292  0.00  0.00    +0.000 A 
ATOM     18  C   UNL     1       6.001   5.889  16.616  0.00  0.00    +0.000 A 
ATOM     19  S   UNL     1       7.173   6.817  17.448  0.00  0.00    +0.000 S 
ATOM     20  C   UNL     1       7.279   5.594  18.644  0.00  0.00    +0.000 A 
ATOM     21  C   UNL     1       8.223   5.721  19.787  0.00  0.00    +0.000 C 
ATOM     22  N   UNL     1       6.495   4.556  18.464  0.00  0.00    +0.000 NA
ENDBRANCH  16  17
ENDBRANCH  14  16
ENDBRANCH  13  14
ENDBRANCH   2  13
TORSDOF 5
ENDMDL
MODEL 9
REMARK VINA RESULT:      -6.5      2.960      6.311
REMARK  Name = 
REMARK  8 active torsions:
REMARK  status: ('A' for Active; 'I' for Inactive)
REMARK    1  A    between atoms: C_1  and  C_2
REMARK    2  A    between atoms: C_2  and  N_3
REMARK    3  A    between atoms: C_4  and  C_5
REMARK    4  A    between atoms: C_5  and  N_6
REMARK    5  A    between atoms: N_6  and  C_7
REMARK    6  A    between atoms: N_6  and  C_8
REMARK    7  A    between atoms: C_8  and  C_9
REMARK    8  A    between atoms: C_12  and  C_13
REMARK                            x       y       z     vdW  Elec       q    Type
REMARK                         _______ _______ _______ _____ _____    ______ ____
ROOT
ATOM      1  N   UNL     1       6.253   5.402  17.335  0.00  0.00    +0.000 N 
ATOM      2  C   UNL     1       4.981   5.029  17.725  0.00  0.00    +0.000 A 
ATOM      3  N   UNL     1       4.382   4.365  16.750  0.00  0.00    +0.000 NA
ATOM      4  C   UNL     1       5.253   4.336  15.706  0.00  0.00    +0.000 A 
ATOM      5  C   UNL     1       5.080   3.761  14.446  0.00  0.00    +0.000 A 
ATOM      6  C   UNL     1       6.108   3.907  13.523  0.00  0.00    +0.000 A 
ATOM      7  F   UNL     1       5.968   3.375  12.302  0.00  0.00    +0.000 F 
ATOM      8  C   UNL     1       7.280   4.596  13.833  0.00  0.00    +0.000 A 
ATOM      9  C   UNL     1       7.471   5.159  15.098  0.00  0.00    +0.000 A 
ATOM     10  C   UNL     1       6.432   5.007  16.022  0.00  0.00    +0.000 A 
ENDROOT
BRANCH   1  12
ATOM     11  C   UNL     1       7.477   7.538  17.617  0.00  0.00    +0.000 C 
ATOM     12  C   UNL     1       7.237   6.124  18.121  0.00  0.00    +0.000 C 
ENDBRANCH   1  12
BRANCH   2  13
ATOM     13  C   UNL     1       4.370   5.370  19.060  0.00  0.00    +0.000 C 
BRANCH  13  14
ATOM     14  N   UNL     1       3.643   6.659  19.148  0.00  0.00    +0.000 NA
ATOM     15  C   UNL     1       3.360   7.210  17.819  0.00  0.00    +0.000 C 
BRANCH  14  16
ATOM     16  C   UNL     1       2.390   6.559  19.922  0.00  0.00    +0.000 C 
BRANCH  16  17
ATOM     17  C   UNL     1       2.039   5.120  20.178  0.00  0.00    +0.000 A 
ATOM     18  C   UNL     1       2.233   4.424  21.357  0.00  0.00    +0.000 A 
ATOM     19  S   UNL     1       1.704   2.806  21.183  0.00  0.00    +0.000 S 
ATOM     20  C   UNL     1       1.255   3.137  19.562  0.00  0.00    +0.000 A 
ATOM     21  C   UNL     1       0.685   2.072  18.693  0.00  0.00    +0.000 C 
ATOM     22  N   UNL     1       1.466   4.367  19.155  0.00  0.00    +0.000 NA
ENDBRANCH  16  17
ENDBRANCH  14  16
ENDBRANCH  13  14
ENDBRANCH   2  13
TORSDOF 5
ENDMDL
