MODEL 1
REMARK VINA RESULT:      -6.6      0.000      0.000
REMARK  Name = 
REMARK  11 active torsions:
REMARK  status: ('A' for Active; 'I' for Inactive)
REMARK    1  A    between atoms: C_1  and  O_2
REMARK    2  A    between atoms: O_2  and  C_3
REMARK    3  A    between atoms: C_7  and  N_8
REMARK    4  A    between atoms: N_12  and  C_13
REMARK    5  A    between atoms: C_13  and  C_14
REMARK    6  A    between atoms: C_16  and  O_17
REMARK    7  A    between atoms: O_17  and  C_18
REMARK    8  A    between atoms: C_19  and  O_20
REMARK    9  A    between atoms: O_20  and  C_21
REMARK   10  A    between atoms: C_22  and  O_23
REMARK   11  A    between atoms: O_23  and  C_24
REMARK                            x       y       z     vdW  Elec       q    Type
REMARK                         _______ _______ _______ _____ _____    ______ ____
ROOT
ATOM      1  N   UNL     1       0.377  10.318  20.954  0.00  0.00    +0.000 N 
ATOM      2  C   UNL     1       1.187   9.391  21.578  0.00  0.00    +0.000 C 
ATOM      3  O   UNL     1       1.432   9.273  22.774  0.00  0.00    +0.000 OA
ATOM      4  C   UNL     1       1.828   8.524  20.515  0.00  0.00    +0.000 C 
ATOM      5  N   UNL     1       1.265   9.068  19.301  0.00  0.00    +0.000 N 
ATOM      6  C   UNL     1       0.380  10.122  19.575  0.00  0.00    +0.000 C 
ATOM      7  S   UNL     1      -0.548  10.903  18.421  0.00  0.00    +0.000 S 
ENDROOT
BRANCH   1  12
ATOM      8  C   UNL     1      -2.158  12.013  23.097  0.00  0.00    +0.000 A 
ATOM      9  C   UNL     1      -1.683  13.326  23.077  0.00  0.00    +0.000 A 
ATOM     10  C   UNL     1      -0.524  13.650  22.376  0.00  0.00    +0.000 A 
ATOM     11  C   UNL     1       0.156  12.656  21.670  0.00  0.00    +0.000 A 
ATOM     12  C   UNL     1      -0.306  11.335  21.672  0.00  0.00    +0.000 A 
ATOM     13  C   UNL     1      -1.454  11.017  22.416  0.00  0.00    +0.000 A 
BRANCH   8  15
ATOM     14  C   UNL     1      -3.929  13.005  24.334  0.00  0.00    +0.000 C 
ATOM     15  O   UNL     1      -3.317  11.836  23.802  0.00  0.00    +0.000 OA
ENDBRANCH   8  15
ENDBRANCH   1  12
BRANCH   5  16
ATOM     16  C   UNL     1       1.730   8.606  17.998  0.00  0.00    +0.000 C 
BRANCH  16  17
ATOM     17  C   UNL     1       2.399   7.254  18.020  0.00  0.00    +0.000 A 
ATOM     18  C   UNL     1       3.783   7.147  17.859  0.00  0.00    +0.000 A 
ATOM     19  C   UNL     1       4.432   5.913  17.982  0.00  0.00    +0.000 A 
ATOM     20  C   UNL     1       3.680   4.744  18.229  0.00  0.00    +0.000 A 
ATOM     21  C   UNL     1       2.278   4.832  18.355  0.00  0.00    +0.000 A 
ATOM     22  C   UNL     1       1.658   6.090  18.252  0.00  0.00    +0.000 A 
BRANCH  19  23
ATOM     23  O   UNL     1       5.797   5.773  17.874  0.00  0.00    +0.000 OA
ATOM     24  C   UNL     1       6.353   5.971  16.576  0.00  0.00    +0.000 C 
ENDBRANCH  19  23
BRANCH  20  25
ATOM     25  O   UNL     1       4.407   3.574  18.263  0.00  0.00    +0.000 OA
ATOM     26  C   UNL     1       4.585   2.958  19.532  0.00  0.00    +0.000 C 
ENDBRANCH  20  25
BRANCH  21  27
ATOM     27  O   UNL     1       1.575   3.674  18.558  0.00  0.00    +0.000 OA
ATOM     28  C   UNL     1       0.931   3.489  19.812  0.00  0.00    +0.000 C 
ENDBRANCH  21  27
ENDBRANCH  16  17
ENDBRANCH   5  16
TORSDOF 7
ENDMDL
MODEL 2
REMARK VINA RESULT:      -6.5      1.038      2.443
REMARK  Name = 
REMARK  11 active torsions:
REMARK  status: ('A' for Active; 'I' for Inactive)
REMARK    1  A    between atoms: C_1  and  O_2
REMARK    2  A    between atoms: O_2  and  C_3
REMARK    3  A    between atoms: C_7  and  N_8
REMARK    4  A    between atoms: N_12  and  C_13
REMARK    5  A    between atoms: C_13  and  C_14
REMARK    6  A    between atoms: C_16  and  O_17
REMARK    7  A    between atoms: O_17  and  C_18
REMARK    8  A    between atoms: C_19  and  O_20
REMARK    9  A    between atoms: O_20  and  C_21
REMARK   10  A    between atoms: C_22  and  O_23
REMARK   11  A    between atoms: O_23  and  C_24
REMARK                            x       y       z     vdW  Elec       q    Type
REMARK                         _______ _______ _______ _____ _____    ______ ____
ROOT
ATOM      1  N   UNL     1      -0.048  10.583  21.572  0.00  0.00    +0.000 N 
ATOM      2  C   UNL     1       0.754   9.707  22.276  0.00  0.00    +0.000 C 
ATOM      3  O   UNL     1       0.933   9.640  23.487  0.00  0.00    +0.000 OA
ATOM      4  C   UNL     1       1.483   8.825  21.284  0.00  0.00    +0.000 C 
ATOM      5  N   UNL     1       0.975   9.306  20.021  0.00  0.00    +0.000 N 
ATOM      6  C   UNL     1       0.042  10.338  20.204  0.00  0.00    +0.000 C 
ATOM      7  S   UNL     1      -0.843  11.044  18.971  0.00  0.00    +0.000 S 
ENDROOT
BRANCH   1  12
ATOM      8  C   UNL     1      -2.750  12.262  23.515  0.00  0.00    +0.000 A 
ATOM      9  C   UNL     1      -2.325  13.591  23.460  0.00  0.00    +0.000 A 
ATOM     10  C   UNL     1      -1.146  13.932  22.802  0.00  0.00    +0.000 A 
ATOM     11  C   UNL     1      -0.394  12.938  22.174  0.00  0.00    +0.000 A 
ATOM     12  C   UNL     1      -0.804  11.600  22.211  0.00  0.00    +0.000 A 
ATOM     13  C   UNL     1      -1.975  11.267  22.912  0.00  0.00    +0.000 A 
BRANCH   8  15
ATOM     14  C   UNL     1      -4.968  13.013  23.921  0.00  0.00    +0.000 C 
ATOM     15  O   UNL     1      -3.935  12.067  24.170  0.00  0.00    +0.000 OA
ENDBRANCH   8  15
ENDBRANCH   1  12
BRANCH   5  16
ATOM     16  C   UNL     1       1.530   8.814  18.764  0.00  0.00    +0.000 C 
BRANCH  16  17
ATOM     17  C   UNL     1       2.369   7.568  18.900  0.00  0.00    +0.000 A 
ATOM     18  C   UNL     1       2.025   6.581  19.828  0.00  0.00    +0.000 A 
ATOM     19  C   UNL     1       2.730   5.374  19.894  0.00  0.00    +0.000 A 
ATOM     20  C   UNL     1       3.836   5.157  19.045  0.00  0.00    +0.000 A 
ATOM     21  C   UNL     1       4.218   6.160  18.130  0.00  0.00    +0.000 A 
ATOM     22  C   UNL     1       3.474   7.352  18.069  0.00  0.00    +0.000 A 
BRANCH  19  23
ATOM     23  O   UNL     1       2.395   4.361  20.764  0.00  0.00    +0.000 OA
ATOM     24  C   UNL     1       1.117   3.759  20.572  0.00  0.00    +0.000 C 
ENDBRANCH  19  23
BRANCH  20  25
ATOM     25  O   UNL     1       4.502   3.966  19.239  0.00  0.00    +0.000 OA
ATOM     26  C   UNL     1       4.106   2.864  18.433  0.00  0.00    +0.000 C 
ENDBRANCH  20  25
BRANCH  21  27
ATOM     27  O   UNL     1       5.318   5.933  17.346  0.00  0.00    +0.000 OA
ATOM     28  C   UNL     1       5.111   5.572  15.986  0.00  0.00    +0.000 C 
ENDBRANCH  21  27
ENDBRANCH  16  17
ENDBRANCH   5  16
TORSDOF 7
ENDMDL
MODEL 3
REMARK VINA RESULT:      -6.5      3.131      8.597
REMARK  Name = 
REMARK  11 active torsions:
REMARK  status: ('A' for Active; 'I' for Inactive)
REMARK    1  A    between atoms: C_1  and  O_2
REMARK    2  A    between atoms: O_2  and  C_3
REMARK    3  A    between atoms: C_7  and  N_8
REMARK    4  A    between atoms: N_12  and  C_13
REMARK    5  A    between atoms: C_13  and  C_14
REMARK    6  A    between atoms: C_16  and  O_17
REMARK    7  A    between atoms: O_17  and  C_18
REMARK    8  A    between atoms: C_19  and  O_20
REMARK    9  A    between atoms: O_20  and  C_21
REMARK   10  A    between atoms: C_22  and  O_23
REMARK   11  A    between atoms: O_23  and  C_24
REMARK                            x       y       z     vdW  Elec       q    Type
REMARK                         _______ _______ _______ _____ _____    ______ ____
ROOT
ATOM      1  N   UNL     1       2.489   7.343  18.741  0.00  0.00    +0.000 N 
ATOM      2  C   UNL     1       2.690   8.139  17.631  0.00  0.00    +0.000 C 
ATOM      3  O   UNL     1       3.333   7.888  16.617  0.00  0.00    +0.000 OA
ATOM      4  C   UNL     1       2.020   9.476  17.874  0.00  0.00    +0.000 C 
ATOM      5  N   UNL     1       1.447   9.292  19.186  0.00  0.00    +0.000 N 
ATOM      6  C   UNL     1       1.709   8.007  19.685  0.00  0.00    +0.000 C 
ATOM      7  S   UNL     1       1.092   7.403  21.119  0.00  0.00    +0.000 S 
ENDROOT
BRANCH   1  12
ATOM      8  C   UNL     1       2.833   3.632  18.714  0.00  0.00    +0.000 A 
ATOM      9  C   UNL     1       4.164   3.489  19.114  0.00  0.00    +0.000 A 
ATOM     10  C   UNL     1       4.950   4.609  19.374  0.00  0.00    +0.000 A 
ATOM     11  C   UNL     1       4.396   5.884  19.254  0.00  0.00    +0.000 A 
ATOM     12  C   UNL     1       3.063   6.050  18.862  0.00  0.00    +0.000 A 
ATOM     13  C   UNL     1       2.295   4.913  18.565  0.00  0.00    +0.000 A 
BRANCH   8  15
ATOM     14  C   UNL     1       0.768   2.457  18.772  0.00  0.00    +0.000 C 
ATOM     15  O   UNL     1       2.167   2.454  18.514  0.00  0.00    +0.000 OA
ENDBRANCH   8  15
ENDBRANCH   1  12
BRANCH   5  16
ATOM     16  C   UNL     1       0.814  10.409  19.880  0.00  0.00    +0.000 C 
BRANCH  16  17
ATOM     17  C   UNL     1      -0.538  10.796  19.332  0.00  0.00    +0.000 A 
ATOM     18  C   UNL     1      -1.071  10.127  18.227  0.00  0.00    +0.000 A 
ATOM     19  C   UNL     1      -2.365  10.401  17.772  0.00  0.00    +0.000 A 
ATOM     20  C   UNL     1      -3.138  11.399  18.404  0.00  0.00    +0.000 A 
ATOM     21  C   UNL     1      -2.598  12.109  19.497  0.00  0.00    +0.000 A 
ATOM     22  C   UNL     1      -1.304  11.792  19.947  0.00  0.00    +0.000 A 
BRANCH  19  23
ATOM     23  O   UNL     1      -2.942   9.734  16.715  0.00  0.00    +0.000 OA
ATOM     24  C   UNL     1      -2.699  10.272  15.417  0.00  0.00    +0.000 C 
ENDBRANCH  19  23
BRANCH  20  25
ATOM     25  O   UNL     1      -4.370  11.638  17.834  0.00  0.00    +0.000 OA
ATOM     26  C   UNL     1      -5.494  11.003  18.431  0.00  0.00    +0.000 C 
ENDBRANCH  20  25
BRANCH  21  27
ATOM     27  O   UNL     1      -3.359  13.095  20.065  0.00  0.00    +0.000 OA
ATOM     28  C   UNL     1      -3.790  12.923  21.409  0.00  0.00    +0.000 C 
ENDBRANCH  21  27
ENDBRANCH  16  17
ENDBRANCH   5  16
TORSDOF 7
ENDMDL
MODEL 4
REMARK VINA RESULT:      -6.4      1.016      1.016
REMARK  Name = 
REMARK  11 active torsions:
REMARK  status: ('A' for Active; 'I' for Inactive)
REMARK    1  A    between atoms: C_1  and  O_2
REMARK    2  A    between atoms: O_2  and  C_3
REMARK    3  A    between atoms: C_7  and  N_8
REMARK    4  A    between atoms: N_12  and  C_13
REMARK    5  A    between atoms: C_13  and  C_14
REMARK    6  A    between atoms: C_16  and  O_17
REMARK    7  A    between atoms: O_17  and  C_18
REMARK    8  A    between atoms: C_19  and  O_20
REMARK    9  A    between atoms: O_20  and  C_21
REMARK   10  A    between atoms: C_22  and  O_23
REMARK   11  A    between atoms: O_23  and  C_24
REMARK                            x       y       z     vdW  Elec       q    Type
REMARK                         _______ _______ _______ _____ _____    ______ ____
ROOT
ATOM      1  N   UNL     1       0.299  10.281  21.409  0.00  0.00    +0.000 N 
ATOM      2  C   UNL     1       1.113   9.473  22.179  0.00  0.00    +0.000 C 
ATOM      3  O   UNL     1       1.304   9.514  23.389  0.00  0.00    +0.000 OA
ATOM      4  C   UNL     1       1.834   8.508  21.261  0.00  0.00    +0.000 C 
ATOM      5  N   UNL     1       1.310   8.874  19.966  0.00  0.00    +0.000 N 
ATOM      6  C   UNL     1       0.375   9.915  20.067  0.00  0.00    +0.000 C 
ATOM      7  S   UNL     1      -0.525  10.507  18.786  0.00  0.00    +0.000 S 
ENDROOT
BRANCH   1  12
ATOM      8  C   UNL     1      -2.373  12.118  23.247  0.00  0.00    +0.000 A 
ATOM      9  C   UNL     1      -1.967  13.439  23.048  0.00  0.00    +0.000 A 
ATOM     10  C   UNL     1      -0.810  13.724  22.329  0.00  0.00    +0.000 A 
ATOM     11  C   UNL     1      -0.061  12.681  21.783  0.00  0.00    +0.000 A 
ATOM     12  C   UNL     1      -0.454  11.349  21.964  0.00  0.00    +0.000 A 
ATOM     13  C   UNL     1      -1.601  11.076  22.725  0.00  0.00    +0.000 A 
BRANCH   8  15
ATOM     14  C   UNL     1      -4.225  13.174  24.298  0.00  0.00    +0.000 C 
ATOM     15  O   UNL     1      -3.538  11.977  23.949  0.00  0.00    +0.000 OA
ENDBRANCH   8  15
ENDBRANCH   1  12
BRANCH   5  16
ATOM     16  C   UNL     1       1.852   8.274  18.752  0.00  0.00    +0.000 C 
BRANCH  16  17
ATOM     17  C   UNL     1       2.529   6.942  18.966  0.00  0.00    +0.000 A 
ATOM     18  C   UNL     1       3.664   6.599  18.226  0.00  0.00    +0.000 A 
ATOM     19  C   UNL     1       4.364   5.415  18.485  0.00  0.00    +0.000 A 
ATOM     20  C   UNL     1       3.901   4.525  19.478  0.00  0.00    +0.000 A 
ATOM     21  C   UNL     1       2.735   4.841  20.206  0.00  0.00    +0.000 A 
ATOM     22  C   UNL     1       2.067   6.050  19.940  0.00  0.00    +0.000 A 
BRANCH  19  23
ATOM     23  O   UNL     1       5.511   5.062  17.809  0.00  0.00    +0.000 OA
ATOM     24  C   UNL     1       6.682   5.816  18.113  0.00  0.00    +0.000 C 
ENDBRANCH  19  23
BRANCH  20  25
ATOM     25  O   UNL     1       4.623   3.358  19.605  0.00  0.00    +0.000 OA
ATOM     26  C   UNL     1       4.069   2.187  19.020  0.00  0.00    +0.000 C 
ENDBRANCH  20  25
BRANCH  21  27
ATOM     27  O   UNL     1       2.291   3.940  21.136  0.00  0.00    +0.000 OA
ATOM     28  C   UNL     1       1.103   3.211  20.853  0.00  0.00    +0.000 C 
ENDBRANCH  21  27
ENDBRANCH  16  17
ENDBRANCH   5  16
TORSDOF 7
ENDMDL
MODEL 5
REMARK VINA RESULT:      -6.4      3.131      8.736
REMARK  Name = 
REMARK  11 active torsions:
REMARK  status: ('A' for Active; 'I' for Inactive)
REMARK    1  A    between atoms: C_1  and  O_2
REMARK    2  A    between atoms: O_2  and  C_3
REMARK    3  A    between atoms: C_7  and  N_8
REMARK    4  A    between atoms: N_12  and  C_13
REMARK    5  A    between atoms: C_13  and  C_14
REMARK    6  A    between atoms: C_16  and  O_17
REMARK    7  A    between atoms: O_17  and  C_18
REMARK    8  A    between atoms: C_19  and  O_20
REMARK    9  A    between atoms: O_20  and  C_21
REMARK   10  A    between atoms: C_22  and  O_23
REMARK   11  A    between atoms: O_23  and  C_24
REMARK                            x       y       z     vdW  Elec       q    Type
REMARK                         _______ _______ _______ _____ _____    ______ ____
ROOT
ATOM      1  N   UNL     1       2.138   7.012  19.289  0.00  0.00    +0.000 N 
ATOM      2  C   UNL     1       1.507   7.001  20.517  0.00  0.00    +0.000 C 
ATOM      3  O   UNL     1       1.296   6.048  21.259  0.00  0.00    +0.000 OA
ATOM      4  C   UNL     1       1.019   8.403  20.816  0.00  0.00    +0.000 C 
ATOM      5  N   UNL     1       1.469   9.134  19.654  0.00  0.00    +0.000 N 
ATOM      6  C   UNL     1       2.159   8.301  18.760  0.00  0.00    +0.000 C 
ATOM      7  S   UNL     1       2.928   8.832  17.372  0.00  0.00    +0.000 S 
ENDROOT
BRANCH   1  12
ATOM      8  C   UNL     1       4.522   4.386  18.142  0.00  0.00    +0.000 A 
ATOM      9  C   UNL     1       3.655   3.518  17.475  0.00  0.00    +0.000 A 
ATOM     10  C   UNL     1       2.290   3.786  17.418  0.00  0.00    +0.000 A 
ATOM     11  C   UNL     1       1.787   4.943  18.015  0.00  0.00    +0.000 A 
ATOM     12  C   UNL     1       2.640   5.831  18.682  0.00  0.00    +0.000 A 
ATOM     13  C   UNL     1       4.008   5.526  18.765  0.00  0.00    +0.000 A 
BRANCH   8  15
ATOM     14  C   UNL     1       6.671   4.713  17.180  0.00  0.00    +0.000 C 
ATOM     15  O   UNL     1       5.840   4.020  18.103  0.00  0.00    +0.000 OA
ENDBRANCH   8  15
ENDBRANCH   1  12
BRANCH   5  16
ATOM     16  C   UNL     1       1.082  10.527  19.460  0.00  0.00    +0.000 C 
BRANCH  16  17
ATOM     17  C   UNL     1      -0.356  10.721  19.046  0.00  0.00    +0.000 A 
ATOM     18  C   UNL     1      -1.176  11.619  19.735  0.00  0.00    +0.000 A 
ATOM     19  C   UNL     1      -2.479  11.888  19.300  0.00  0.00    +0.000 A 
ATOM     20  C   UNL     1      -2.998  11.216  18.172  0.00  0.00    +0.000 A 
ATOM     21  C   UNL     1      -2.194  10.279  17.490  0.00  0.00    +0.000 A 
ATOM     22  C   UNL     1      -0.881  10.049  17.936  0.00  0.00    +0.000 A 
BRANCH  19  23
ATOM     23  O   UNL     1      -3.302  12.798  19.925  0.00  0.00    +0.000 OA
ATOM     24  C   UNL     1      -3.379  12.709  21.346  0.00  0.00    +0.000 C 
ENDBRANCH  19  23
BRANCH  20  25
ATOM     25  O   UNL     1      -4.312  11.503  17.871  0.00  0.00    +0.000 OA
ATOM     26  C   UNL     1      -5.297  10.587  18.330  0.00  0.00    +0.000 C 
ENDBRANCH  20  25
BRANCH  21  27
ATOM     27  O   UNL     1      -2.740   9.617  16.423  0.00  0.00    +0.000 OA
ATOM     28  C   UNL     1      -2.821  10.300  15.178  0.00  0.00    +0.000 C 
ENDBRANCH  21  27
ENDBRANCH  16  17
ENDBRANCH   5  16
TORSDOF 7
ENDMDL
MODEL 6
REMARK VINA RESULT:      -6.4      1.327      2.948
REMARK  Name = 
REMARK  11 active torsions:
REMARK  status: ('A' for Active; 'I' for Inactive)
REMARK    1  A    between atoms: C_1  and  O_2
REMARK    2  A    between atoms: O_2  and  C_3
REMARK    3  A    between atoms: C_7  and  N_8
REMARK    4  A    between atoms: N_12  and  C_13
REMARK    5  A    between atoms: C_13  and  C_14
REMARK    6  A    between atoms: C_16  and  O_17
REMARK    7  A    between atoms: O_17  and  C_18
REMARK    8  A    between atoms: C_19  and  O_20
REMARK    9  A    between atoms: O_20  and  C_21
REMARK   10  A    between atoms: C_22  and  O_23
REMARK   11  A    between atoms: O_23  and  C_24
REMARK                            x       y       z     vdW  Elec       q    Type
REMARK                         _______ _______ _______ _____ _____    ______ ____
ROOT
ATOM      1  N   UNL     1       0.617   9.978  20.858  0.00  0.00    +0.000 N 
ATOM      2  C   UNL     1       1.311   8.994  21.532  0.00  0.00    +0.000 C 
ATOM      3  O   UNL     1       1.488   8.874  22.740  0.00  0.00    +0.000 OA
ATOM      4  C   UNL     1       1.920   8.055  20.512  0.00  0.00    +0.000 C 
ATOM      5  N   UNL     1       1.466   8.627  19.266  0.00  0.00    +0.000 N 
ATOM      6  C   UNL     1       0.666   9.759  19.484  0.00  0.00    +0.000 C 
ATOM      7  S   UNL     1      -0.134  10.600  18.277  0.00  0.00    +0.000 S 
ENDROOT
BRANCH   1  12
ATOM      8  C   UNL     1      -0.140  13.451  21.983  0.00  0.00    +0.000 A 
ATOM      9  C   UNL     1      -1.203  13.217  22.858  0.00  0.00    +0.000 A 
ATOM     10  C   UNL     1      -1.681  11.925  23.064  0.00  0.00    +0.000 A 
ATOM     11  C   UNL     1      -1.077  10.852  22.405  0.00  0.00    +0.000 A 
ATOM     12  C   UNL     1      -0.006  11.063  21.529  0.00  0.00    +0.000 A 
ATOM     13  C   UNL     1       0.439  12.376  21.302  0.00  0.00    +0.000 A 
BRANCH   8  15
ATOM     14  C   UNL     1       0.008  15.412  20.649  0.00  0.00    +0.000 C 
ATOM     15  O   UNL     1       0.247  14.759  21.891  0.00  0.00    +0.000 OA
ENDBRANCH   8  15
ENDBRANCH   1  12
BRANCH   5  16
ATOM     16  C   UNL     1       1.948   8.104  17.992  0.00  0.00    +0.000 C 
BRANCH  16  17
ATOM     17  C   UNL     1       2.511   6.706  18.067  0.00  0.00    +0.000 A 
ATOM     18  C   UNL     1       1.660   5.598  18.041  0.00  0.00    +0.000 A 
ATOM     19  C   UNL     1       2.170   4.295  18.004  0.00  0.00    +0.000 A 
ATOM     20  C   UNL     1       3.566   4.084  18.036  0.00  0.00    +0.000 A 
ATOM     21  C   UNL     1       4.435   5.193  18.100  0.00  0.00    +0.000 A 
ATOM     22  C   UNL     1       3.893   6.490  18.111  0.00  0.00    +0.000 A 
BRANCH  19  23
ATOM     23  O   UNL     1       1.366   3.180  17.935  0.00  0.00    +0.000 OA
ATOM     24  C   UNL     1       0.629   2.857  19.111  0.00  0.00    +0.000 C 
ENDBRANCH  19  23
BRANCH  20  25
ATOM     25  O   UNL     1       3.960   2.764  18.066  0.00  0.00    +0.000 OA
ATOM     26  C   UNL     1       4.196   2.187  19.343  0.00  0.00    +0.000 C 
ENDBRANCH  20  25
BRANCH  21  27
ATOM     27  O   UNL     1       5.782   4.953  18.167  0.00  0.00    +0.000 OA
ATOM     28  C   UNL     1       6.504   5.478  19.274  0.00  0.00    +0.000 C 
ENDBRANCH  21  27
ENDBRANCH  16  17
ENDBRANCH   5  16
TORSDOF 7
ENDMDL
MODEL 7
REMARK VINA RESULT:      -6.3      3.090      8.739
REMARK  Name = 
REMARK  11 active torsions:
REMARK  status: ('A' for Active; 'I' for Inactive)
REMARK    1  A    between atoms: C_1  and  O_2
REMARK    2  A    between atoms: O_2  and  C_3
REMARK    3  A    between atoms: C_7  and  N_8
REMARK    4  A    between atoms: N_12  and  C_13
REMARK    5  A    between atoms: C_13  and  C_14
REMARK    6  A    between atoms: C_16  and  O_17
REMARK    7  A    between atoms: O_17  and  C_18
REMARK    8  A    between atoms: C_19  and  O_20
REMARK    9  A    between atoms: O_20  and  C_21
REMARK   10  A    between atoms: C_22  and  O_23
REMARK   11  A    between atoms: O_23  and  C_24
REMARK                            x       y       z     vdW  Elec       q    Type
REMARK                         _______ _______ _______ _____ _____    ______ ____
ROOT
ATOM      1  N   UNL     1       2.418   7.534  18.715  0.00  0.00    +0.000 N 
ATOM      2  C   UNL     1       2.658   8.354  17.631  0.00  0.00    +0.000 C 
ATOM      3  O   UNL     1       3.318   8.117  16.625  0.00  0.00    +0.000 OA
ATOM      4  C   UNL     1       2.011   9.698  17.895  0.00  0.00    +0.000 C 
ATOM      5  N   UNL     1       1.405   9.492  19.190  0.00  0.00    +0.000 N 
ATOM      6  C   UNL     1       1.630   8.188  19.659  0.00  0.00    +0.000 C 
ATOM      7  S   UNL     1       0.970   7.560  21.063  0.00  0.00    +0.000 S 
ENDROOT
BRANCH   1  12
ATOM      8  C   UNL     1       2.745   3.831  18.440  0.00  0.00    +0.000 A 
ATOM      9  C   UNL     1       4.003   3.636  19.015  0.00  0.00    +0.000 A 
ATOM     10  C   UNL     1       4.748   4.719  19.474  0.00  0.00    +0.000 A 
ATOM     11  C   UNL     1       4.223   6.009  19.379  0.00  0.00    +0.000 A 
ATOM     12  C   UNL     1       2.961   6.226  18.813  0.00  0.00    +0.000 A 
ATOM     13  C   UNL     1       2.240   5.128  18.318  0.00  0.00    +0.000 A 
BRANCH   8  15
ATOM     14  C   UNL     1       1.568   1.870  19.086  0.00  0.00    +0.000 C 
ATOM     15  O   UNL     1       2.110   2.684  18.052  0.00  0.00    +0.000 OA
ENDBRANCH   8  15
ENDBRANCH   1  12
BRANCH   5  16
ATOM     16  C   UNL     1       0.781  10.603  19.900  0.00  0.00    +0.000 C 
BRANCH  16  17
ATOM     17  C   UNL     1      -0.630  10.906  19.461  0.00  0.00    +0.000 A 
ATOM     18  C   UNL     1      -1.402  11.842  20.156  0.00  0.00    +0.000 A 
ATOM     19  C   UNL     1      -2.673  12.212  19.700  0.00  0.00    +0.000 A 
ATOM     20  C   UNL     1      -3.211  11.606  18.544  0.00  0.00    +0.000 A 
ATOM     21  C   UNL     1      -2.458  10.633  17.855  0.00  0.00    +0.000 A 
ATOM     22  C   UNL     1      -1.174  10.300  18.323  0.00  0.00    +0.000 A 
BRANCH  19  23
ATOM     23  O   UNL     1      -3.445  13.160  20.332  0.00  0.00    +0.000 OA
ATOM     24  C   UNL     1      -3.898  12.837  21.644  0.00  0.00    +0.000 C 
ENDBRANCH  19  23
BRANCH  20  25
ATOM     25  O   UNL     1      -4.494  11.991  18.222  0.00  0.00    +0.000 OA
ATOM     26  C   UNL     1      -5.541  11.080  18.532  0.00  0.00    +0.000 C 
ENDBRANCH  20  25
BRANCH  21  27
ATOM     27  O   UNL     1      -3.023  10.037  16.759  0.00  0.00    +0.000 OA
ATOM     28  C   UNL     1      -2.868  10.669  15.495  0.00  0.00    +0.000 C 
ENDBRANCH  21  27
ENDBRANCH  16  17
ENDBRANCH   5  16
TORSDOF 7
ENDMDL
MODEL 8
REMARK VINA RESULT:      -6.3      1.175      2.684
REMARK  Name = 
REMARK  11 active torsions:
REMARK  status: ('A' for Active; 'I' for Inactive)
REMARK    1  A    between atoms: C_1  and  O_2
REMARK    2  A    between atoms: O_2  and  C_3
REMARK    3  A    between atoms: C_7  and  N_8
REMARK    4  A    between atoms: N_12  and  C_13
REMARK    5  A    between atoms: C_13  and  C_14
REMARK    6  A    between atoms: C_16  and  O_17
REMARK    7  A    between atoms: O_17  and  C_18
REMARK    8  A    between atoms: C_19  and  O_20
REMARK    9  A    between atoms: O_20  and  C_21
REMARK   10  A    between atoms: C_22  and  O_23
REMARK   11  A    between atoms: O_23  and  C_24
REMARK                            x       y       z     vdW  Elec       q    Type
REMARK                         _______ _______ _______ _____ _____    ______ ____
ROOT
ATOM      1  N   UNL     1       0.498  10.095  21.132  0.00  0.00    +0.000 N 
ATOM      2  C   UNL     1       1.143   9.271  22.032  0.00  0.00    +0.000 C 
ATOM      3  O   UNL     1       1.191   9.365  23.254  0.00  0.00    +0.000 OA
ATOM      4  C   UNL     1       1.888   8.205  21.256  0.00  0.00    +0.000 C 
ATOM      5  N   UNL     1       1.556   8.538  19.891  0.00  0.00    +0.000 N 
ATOM      6  C   UNL     1       0.703   9.651  19.827  0.00  0.00    +0.000 C 
ATOM      7  S   UNL     1       0.015  10.237  18.419  0.00  0.00    +0.000 S 
ENDROOT
BRANCH   1  12
ATOM      8  C   UNL     1      -2.265  12.237  22.424  0.00  0.00    +0.000 A 
ATOM      9  C   UNL     1      -1.683  13.502  22.328  0.00  0.00    +0.000 A 
ATOM     10  C   UNL     1      -0.381  13.649  21.856  0.00  0.00    +0.000 A 
ATOM     11  C   UNL     1       0.340  12.523  21.457  0.00  0.00    +0.000 A 
ATOM     12  C   UNL     1      -0.227  11.246  21.539  0.00  0.00    +0.000 A 
ATOM     13  C   UNL     1      -1.526  11.110  22.054  0.00  0.00    +0.000 A 
BRANCH   8  15
ATOM     14  C   UNL     1      -3.762  12.664  24.220  0.00  0.00    +0.000 C 
ATOM     15  O   UNL     1      -3.555  12.235  22.880  0.00  0.00    +0.000 OA
ENDBRANCH   8  15
ENDBRANCH   1  12
BRANCH   5  16
ATOM     16  C   UNL     1       2.189   7.832  18.782  0.00  0.00    +0.000 C 
BRANCH  16  17
ATOM     17  C   UNL     1       2.690   6.452  19.129  0.00  0.00    +0.000 A 
ATOM     18  C   UNL     1       1.796   5.452  19.520  0.00  0.00    +0.000 A 
ATOM     19  C   UNL     1       2.231   4.140  19.743  0.00  0.00    +0.000 A 
ATOM     20  C   UNL     1       3.600   3.820  19.616  0.00  0.00    +0.000 A 
ATOM     21  C   UNL     1       4.519   4.829  19.259  0.00  0.00    +0.000 A 
ATOM     22  C   UNL     1       4.048   6.131  19.017  0.00  0.00    +0.000 A 
BRANCH  19  23
ATOM     23  O   UNL     1       1.374   3.118  20.087  0.00  0.00    +0.000 OA
ATOM     24  C   UNL     1       1.239   2.847  21.479  0.00  0.00    +0.000 C 
ENDBRANCH  19  23
BRANCH  20  25
ATOM     25  O   UNL     1       3.930   2.519  19.925  0.00  0.00    +0.000 OA
ATOM     26  C   UNL     1       3.905   1.574  18.863  0.00  0.00    +0.000 C 
ENDBRANCH  20  25
BRANCH  21  27
ATOM     27  O   UNL     1       5.844   4.494  19.180  0.00  0.00    +0.000 OA
ATOM     28  C   UNL     1       6.746   5.443  18.624  0.00  0.00    +0.000 C 
ENDBRANCH  21  27
ENDBRANCH  16  17
ENDBRANCH   5  16
TORSDOF 7
ENDMDL
MODEL 9
REMARK VINA RESULT:      -6.2      3.200      8.765
REMARK  Name = 
REMARK  11 active torsions:
REMARK  status: ('A' for Active; 'I' for Inactive)
REMARK    1  A    between atoms: C_1  and  O_2
REMARK    2  A    between atoms: O_2  and  C_3
REMARK    3  A    between atoms: C_7  and  N_8
REMARK    4  A    between atoms: N_12  and  C_13
REMARK    5  A    between atoms: C_13  and  C_14
REMARK    6  A    between atoms: C_16  and  O_17
REMARK    7  A    between atoms: O_17  and  C_18
REMARK    8  A    between atoms: C_19  and  O_20
REMARK    9  A    between atoms: O_20  and  C_21
REMARK   10  A    between atoms: C_22  and  O_23
REMARK   11  A    between atoms: O_23  and  C_24
REMARK                            x       y       z     vdW  Elec       q    Type
REMARK                         _______ _______ _______ _____ _____    ______ ____
ROOT
ATOM      1  N   UNL     1       2.382   7.547  18.886  0.00  0.00    +0.000 N 
ATOM      2  C   UNL     1       2.612   8.170  17.677  0.00  0.00    +0.000 C 
ATOM      3  O   UNL     1       3.261   7.764  16.718  0.00  0.00    +0.000 OA
ATOM      4  C   UNL     1       1.969   9.541  17.716  0.00  0.00    +0.000 C 
ATOM      5  N   UNL     1       1.377   9.559  19.033  0.00  0.00    +0.000 N 
ATOM      6  C   UNL     1       1.606   8.354  19.714  0.00  0.00    +0.000 C 
ATOM      7  S   UNL     1       0.960   7.975  21.211  0.00  0.00    +0.000 S 
ENDROOT
BRANCH   1  12
ATOM      8  C   UNL     1       4.858   4.804  19.381  0.00  0.00    +0.000 A 
ATOM      9  C   UNL     1       4.020   3.765  19.790  0.00  0.00    +0.000 A 
ATOM     10  C   UNL     1       2.649   3.970  19.920  0.00  0.00    +0.000 A 
ATOM     11  C   UNL     1       2.105   5.219  19.618  0.00  0.00    +0.000 A 
ATOM     12  C   UNL     1       2.926   6.273  19.199  0.00  0.00    +0.000 A 
ATOM     13  C   UNL     1       4.312   6.062  19.112  0.00  0.00    +0.000 A 
BRANCH   8  15
ATOM     14  C   UNL     1       7.120   5.531  19.300  0.00  0.00    +0.000 C 
ATOM     15  O   UNL     1       6.179   4.464  19.271  0.00  0.00    +0.000 OA
ENDBRANCH   8  15
ENDBRANCH   1  12
BRANCH   5  16
ATOM     16  C   UNL     1       0.760  10.776  19.551  0.00  0.00    +0.000 C 
BRANCH  16  17
ATOM     17  C   UNL     1      -0.708  10.913  19.233  0.00  0.00    +0.000 A 
ATOM     18  C   UNL     1      -1.499  11.835  19.923  0.00  0.00    +0.000 A 
ATOM     19  C   UNL     1      -2.836  12.049  19.570  0.00  0.00    +0.000 A 
ATOM     20  C   UNL     1      -3.418  11.295  18.528  0.00  0.00    +0.000 A 
ATOM     21  C   UNL     1      -2.643  10.333  17.848  0.00  0.00    +0.000 A 
ATOM     22  C   UNL     1      -1.295  10.159  18.210  0.00  0.00    +0.000 A 
BRANCH  19  23
ATOM     23  O   UNL     1      -3.635  12.979  20.197  0.00  0.00    +0.000 OA
ATOM     24  C   UNL     1      -3.431  13.147  21.597  0.00  0.00    +0.000 C 
ENDBRANCH  19  23
BRANCH  20  25
ATOM     25  O   UNL     1      -4.758  11.534  18.308  0.00  0.00    +0.000 OA
ATOM     26  C   UNL     1      -5.106  12.205  17.104  0.00  0.00    +0.000 C 
ENDBRANCH  20  25
BRANCH  21  27
ATOM     27  O   UNL     1      -3.248   9.593  16.868  0.00  0.00    +0.000 OA
ATOM     28  C   UNL     1      -2.901   9.857  15.515  0.00  0.00    +0.000 C 
ENDBRANCH  21  27
ENDBRANCH  16  17
ENDBRANCH   5  16
TORSDOF 7
ENDMDL
