MODEL 1
REMARK VINA RESULT:      -9.0      0.000      0.000
REMARK  Name = 
REMARK  8 active torsions:
REMARK  status: ('A' for Active; 'I' for Inactive)
REMARK    1  A    between atoms: C_1  and  N_2
REMARK    2  A    between atoms: C_4  and  C_5
REMARK    3  A    between atoms: N_14  and  C_15
REMARK    4  A    between atoms: C_15  and  C_16
REMARK    5  A    between atoms: C_16  and  C_17
REMARK    6  A    between atoms: C_17  and  C_18
REMARK    7  A    between atoms: N_20  and  C_21
REMARK    8  A    between atoms: C_21  and  C_22
REMARK                            x       y       z     vdW  Elec       q    Type
REMARK                         _______ _______ _______ _____ _____    ______ ____
ROOT
ATOM      1  C   UNL     1       2.096   7.746  19.098  0.00  0.00    +0.000 A 
ATOM      2  C   UNL     1       1.345   8.841  18.592  0.00  0.00    +0.000 A 
ATOM      3  C   UNL     1       0.790   9.429  19.708  0.00  0.00    +0.000 A 
ATOM      4  N   UNL     1       1.234   8.693  20.760  0.00  0.00    +0.000 N 
ATOM      5  N   UNL     1       2.002   7.658  20.430  0.00  0.00    +0.000 NA
ATOM      6  C   UNL     1       0.940   8.962  22.137  0.00  0.00    +0.000 C 
ATOM      7  C   UNL     1       0.018  10.140  22.372  0.00  0.00    +0.000 C 
ATOM      8  C   UNL     1      -0.399  10.943  21.173  0.00  0.00    +0.000 C 
ATOM      9  O   UNL     1      -1.082  11.967  21.334  0.00  0.00    +0.000 OA
ATOM     10  N   UNL     1      -0.051  10.532  19.825  0.00  0.00    +0.000 N 
ENDROOT
BRANCH   1  14
ATOM     11  C   UNL     1       5.684   5.845  16.188  0.00  0.00    +0.000 C 
ATOM     12  N   UNL     1       4.487   5.963  16.992  0.00  0.00    +0.000 N 
ATOM     13  C   UNL     1       4.024   7.125  17.551  0.00  0.00    +0.000 A 
ATOM     14  C   UNL     1       2.901   6.822  18.293  0.00  0.00    +0.000 A 
ATOM     15  C   UNL     1       2.667   5.414  18.165  0.00  0.00    +0.000 A 
ATOM     16  C   UNL     1       1.709   4.511  18.681  0.00  0.00    +0.000 A 
ATOM     17  C   UNL     1       1.764   3.157  18.332  0.00  0.00    +0.000 A 
ATOM     18  C   UNL     1       2.762   2.685  17.489  0.00  0.00    +0.000 A 
ATOM     19  C   UNL     1       3.734   3.547  16.978  0.00  0.00    +0.000 A 
ATOM     20  C   UNL     1       3.668   4.905  17.330  0.00  0.00    +0.000 A 
ENDBRANCH   1  14
BRANCH  10  21
ATOM     21  C   UNL     1      -0.514  11.282  18.616  0.00  0.00    +0.000 C 
BRANCH  21  22
ATOM     22  C   UNL     1      -1.470  10.450  17.755  0.00  0.00    +0.000 C 
BRANCH  22  23
ATOM     23  C   UNL     1      -2.411  11.251  16.857  0.00  0.00    +0.000 C 
BRANCH  23  24
ATOM     24  C   UNL     1      -3.844  11.056  17.300  0.00  0.00    +0.000 C 
ATOM     25  O   UNL     1      -4.261   9.987  17.754  0.00  0.00    +0.000 OA
ATOM     26  N   UNL     1      -4.619  12.163  17.125  0.00  0.00    +0.000 N 
ATOM     27  H   UNL     1      -4.249  12.925  16.572  0.00  0.00    +0.000 HD
BRANCH  26  28
ATOM     28  C   UNL     1      -6.017  12.171  17.492  0.00  0.00    +0.000 C 
BRANCH  28  29
ATOM     29  C   UNL     1      -6.241  12.272  18.983  0.00  0.00    +0.000 A 
ATOM     30  C   UNL     1      -7.314  11.570  19.556  0.00  0.00    +0.000 A 
ATOM     31  C   UNL     1      -7.563  11.637  20.929  0.00  0.00    +0.000 A 
ATOM     32  C   UNL     1      -6.743  12.411  21.746  0.00  0.00    +0.000 A 
ATOM     33 CL   UNL     1      -7.057  12.513  23.433  0.00  0.00    +0.000 Cl
ATOM     34  C   UNL     1      -5.670  13.107  21.202  0.00  0.00    +0.000 A 
ATOM     35  C   UNL     1      -5.416  13.034  19.828  0.00  0.00    +0.000 A 
ENDBRANCH  28  29
ENDBRANCH  26  28
ENDBRANCH  23  24
ENDBRANCH  22  23
ENDBRANCH  21  22
ENDBRANCH  10  21
TORSDOF 7
ENDMDL
MODEL 2
REMARK VINA RESULT:      -8.9      0.655      1.062
REMARK  Name = 
REMARK  8 active torsions:
REMARK  status: ('A' for Active; 'I' for Inactive)
REMARK    1  A    between atoms: C_1  and  N_2
REMARK    2  A    between atoms: C_4  and  C_5
REMARK    3  A    between atoms: N_14  and  C_15
REMARK    4  A    between atoms: C_15  and  C_16
REMARK    5  A    between atoms: C_16  and  C_17
REMARK    6  A    between atoms: C_17  and  C_18
REMARK    7  A    between atoms: N_20  and  C_21
REMARK    8  A    between atoms: C_21  and  C_22
REMARK                            x       y       z     vdW  Elec       q    Type
REMARK                         _______ _______ _______ _____ _____    ______ ____
ROOT
ATOM      1  C   UNL     1       2.011   7.855  19.222  0.00  0.00    +0.000 A 
ATOM      2  C   UNL     1       1.477   9.099  18.788  0.00  0.00    +0.000 A 
ATOM      3  C   UNL     1       0.863   9.624  19.905  0.00  0.00    +0.000 A 
ATOM      4  N   UNL     1       1.072   8.713  20.891  0.00  0.00    +0.000 N 
ATOM      5  N   UNL     1       1.737   7.625  20.512  0.00  0.00    +0.000 NA
ATOM      6  C   UNL     1       0.641   8.857  22.251  0.00  0.00    +0.000 C 
ATOM      7  C   UNL     1      -0.144  10.119  22.539  0.00  0.00    +0.000 C 
ATOM      8  C   UNL     1      -0.299  11.109  21.420  0.00  0.00    +0.000 C 
ATOM      9  O   UNL     1      -0.860  12.194  21.642  0.00  0.00    +0.000 OA
ATOM     10  N   UNL     1       0.163  10.814  20.076  0.00  0.00    +0.000 N 
ENDROOT
BRANCH   1  14
ATOM     11  C   UNL     1       5.487   5.942  16.189  0.00  0.00    +0.000 C 
ATOM     12  N   UNL     1       4.323   6.062  17.039  0.00  0.00    +0.000 N 
ATOM     13  C   UNL     1       3.878   7.228  17.606  0.00  0.00    +0.000 A 
ATOM     14  C   UNL     1       2.787   6.926  18.394  0.00  0.00    +0.000 A 
ATOM     15  C   UNL     1       2.554   5.517  18.289  0.00  0.00    +0.000 A 
ATOM     16  C   UNL     1       1.620   4.615  18.850  0.00  0.00    +0.000 A 
ATOM     17  C   UNL     1       1.667   3.258  18.512  0.00  0.00    +0.000 A 
ATOM     18  C   UNL     1       2.633   2.782  17.633  0.00  0.00    +0.000 A 
ATOM     19  C   UNL     1       3.580   3.643  17.076  0.00  0.00    +0.000 A 
ATOM     20  C   UNL     1       3.523   5.004  17.418  0.00  0.00    +0.000 A 
ENDBRANCH   1  14
BRANCH  10  21
ATOM     21  C   UNL     1      -0.042  11.760  18.935  0.00  0.00    +0.000 C 
BRANCH  21  22
ATOM     22  C   UNL     1      -1.527  11.993  18.642  0.00  0.00    +0.000 C 
BRANCH  22  23
ATOM     23  C   UNL     1      -1.985  11.619  17.233  0.00  0.00    +0.000 C 
BRANCH  23  24
ATOM     24  C   UNL     1      -3.465  11.303  17.235  0.00  0.00    +0.000 C 
ATOM     25  O   UNL     1      -3.995  10.592  16.377  0.00  0.00    +0.000 OA
ATOM     26  N   UNL     1      -4.144  11.901  18.255  0.00  0.00    +0.000 N 
ATOM     27  H   UNL     1      -3.670  12.617  18.790  0.00  0.00    +0.000 HD
BRANCH  26  28
ATOM     28  C   UNL     1      -5.567  11.716  18.424  0.00  0.00    +0.000 C 
BRANCH  28  29
ATOM     29  C   UNL     1      -6.044  12.015  19.827  0.00  0.00    +0.000 A 
ATOM     30  C   UNL     1      -5.157  12.620  20.730  0.00  0.00    +0.000 A 
ATOM     31  C   UNL     1      -5.552  12.910  22.039  0.00  0.00    +0.000 A 
ATOM     32  C   UNL     1      -6.841  12.595  22.460  0.00  0.00    +0.000 A 
ATOM     33 CL   UNL     1      -7.325  12.932  24.074  0.00  0.00    +0.000 Cl
ATOM     34  C   UNL     1      -7.740  12.004  21.579  0.00  0.00    +0.000 A 
ATOM     35  C   UNL     1      -7.346  11.720  20.267  0.00  0.00    +0.000 A 
ENDBRANCH  28  29
ENDBRANCH  26  28
ENDBRANCH  23  24
ENDBRANCH  22  23
ENDBRANCH  21  22
ENDBRANCH  10  21
TORSDOF 7
ENDMDL
MODEL 3
REMARK VINA RESULT:      -8.9      5.603     10.889
REMARK  Name = 
REMARK  8 active torsions:
REMARK  status: ('A' for Active; 'I' for Inactive)
REMARK    1  A    between atoms: C_1  and  N_2
REMARK    2  A    between atoms: C_4  and  C_5
REMARK    3  A    between atoms: N_14  and  C_15
REMARK    4  A    between atoms: C_15  and  C_16
REMARK    5  A    between atoms: C_16  and  C_17
REMARK    6  A    between atoms: C_17  and  C_18
REMARK    7  A    between atoms: N_20  and  C_21
REMARK    8  A    between atoms: C_21  and  C_22
REMARK                            x       y       z     vdW  Elec       q    Type
REMARK                         _______ _______ _______ _____ _____    ______ ____
ROOT
ATOM      1  C   UNL     1       1.902   7.106  20.148  0.00  0.00    +0.000 A 
ATOM      2  C   UNL     1       2.861   6.530  19.271  0.00  0.00    +0.000 A 
ATOM      3  C   UNL     1       2.960   5.216  19.677  0.00  0.00    +0.000 A 
ATOM      4  N   UNL     1       2.087   5.092  20.710  0.00  0.00    +0.000 N 
ATOM      5  N   UNL     1       1.450   6.214  21.038  0.00  0.00    +0.000 NA
ATOM      6  C   UNL     1       1.823   3.879  21.425  0.00  0.00    +0.000 C 
ATOM      7  C   UNL     1       2.648   2.688  20.983  0.00  0.00    +0.000 C 
ATOM      8  C   UNL     1       3.559   2.876  19.804  0.00  0.00    +0.000 C 
ATOM      9  O   UNL     1       4.184   1.901  19.357  0.00  0.00    +0.000 OA
ATOM     10  N   UNL     1       3.753   4.179  19.194  0.00  0.00    +0.000 N 
ENDROOT
BRANCH   1  14
ATOM     11  C   UNL     1       0.814  11.715  18.562  0.00  0.00    +0.000 C 
ATOM     12  N   UNL     1       0.944  10.550  19.409  0.00  0.00    +0.000 N 
ATOM     13  C   UNL     1       1.567   9.383  19.053  0.00  0.00    +0.000 A 
ATOM     14  C   UNL     1       1.428   8.493  20.099  0.00  0.00    +0.000 A 
ATOM     15  C   UNL     1       0.701   9.157  21.138  0.00  0.00    +0.000 A 
ATOM     16  C   UNL     1       0.237   8.791  22.422  0.00  0.00    +0.000 A 
ATOM     17  C   UNL     1      -0.453   9.720  23.210  0.00  0.00    +0.000 A 
ATOM     18  C   UNL     1      -0.698  11.003  22.736  0.00  0.00    +0.000 A 
ATOM     19  C   UNL     1      -0.270  11.390  21.465  0.00  0.00    +0.000 A 
ATOM     20  C   UNL     1       0.425  10.452  20.684  0.00  0.00    +0.000 A 
ENDBRANCH   1  14
BRANCH  10  21
ATOM     21  C   UNL     1       4.707   4.398  18.062  0.00  0.00    +0.000 C 
BRANCH  21  22
ATOM     22  C   UNL     1       6.157   4.494  18.545  0.00  0.00    +0.000 C 
BRANCH  22  23
ATOM     23  C   UNL     1       6.743   5.905  18.588  0.00  0.00    +0.000 C 
BRANCH  23  24
ATOM     24  C   UNL     1       7.178   6.329  17.202  0.00  0.00    +0.000 C 
ATOM     25  O   UNL     1       7.251   7.512  16.860  0.00  0.00    +0.000 OA
ATOM     26  N   UNL     1       7.453   5.279  16.377  0.00  0.00    +0.000 N 
ATOM     27  H   UNL     1       7.182   4.351  16.676  0.00  0.00    +0.000 HD
BRANCH  26  28
ATOM     28  C   UNL     1       7.886   5.484  15.014  0.00  0.00    +0.000 C 
BRANCH  28  29
ATOM     29  C   UNL     1       7.027   4.764  14.000  0.00  0.00    +0.000 A 
ATOM     30  C   UNL     1       5.728   4.377  14.366  0.00  0.00    +0.000 A 
ATOM     31  C   UNL     1       4.899   3.704  13.465  0.00  0.00    +0.000 A 
ATOM     32  C   UNL     1       5.362   3.409  12.185  0.00  0.00    +0.000 A 
ATOM     33 CL   UNL     1       4.353   2.565  11.079  0.00  0.00    +0.000 Cl
ATOM     34  C   UNL     1       6.641   3.792  11.798  0.00  0.00    +0.000 A 
ATOM     35  C   UNL     1       7.469   4.471  12.699  0.00  0.00    +0.000 A 
ENDBRANCH  28  29
ENDBRANCH  26  28
ENDBRANCH  23  24
ENDBRANCH  22  23
ENDBRANCH  21  22
ENDBRANCH  10  21
TORSDOF 7
ENDMDL
MODEL 4
REMARK VINA RESULT:      -8.9      5.312     10.943
REMARK  Name = 
REMARK  8 active torsions:
REMARK  status: ('A' for Active; 'I' for Inactive)
REMARK    1  A    between atoms: C_1  and  N_2
REMARK    2  A    between atoms: C_4  and  C_5
REMARK    3  A    between atoms: N_14  and  C_15
REMARK    4  A    between atoms: C_15  and  C_16
REMARK    5  A    between atoms: C_16  and  C_17
REMARK    6  A    between atoms: C_17  and  C_18
REMARK    7  A    between atoms: N_20  and  C_21
REMARK    8  A    between atoms: C_21  and  C_22
REMARK                            x       y       z     vdW  Elec       q    Type
REMARK                         _______ _______ _______ _____ _____    ______ ____
ROOT
ATOM      1  C   UNL     1       1.589   8.077  19.847  0.00  0.00    +0.000 A 
ATOM      2  C   UNL     1       2.438   7.628  18.799  0.00  0.00    +0.000 A 
ATOM      3  C   UNL     1       2.729   6.320  19.122  0.00  0.00    +0.000 A 
ATOM      4  N   UNL     1       2.058   6.077  20.277  0.00  0.00    +0.000 N 
ATOM      5  N   UNL     1       1.381   7.117  20.757  0.00  0.00    +0.000 NA
ATOM      6  C   UNL     1       2.035   4.822  20.970  0.00  0.00    +0.000 C 
ATOM      7  C   UNL     1       2.884   3.735  20.343  0.00  0.00    +0.000 C 
ATOM      8  C   UNL     1       3.562   4.050  19.041  0.00  0.00    +0.000 C 
ATOM      9  O   UNL     1       4.194   3.158  18.453  0.00  0.00    +0.000 OA
ATOM     10  N   UNL     1       3.525   5.384  18.468  0.00  0.00    +0.000 N 
ENDROOT
BRANCH   1  14
ATOM     11  C   UNL     1      -0.011  12.672  18.721  0.00  0.00    +0.000 C 
ATOM     12  N   UNL     1       0.272  11.459  19.456  0.00  0.00    +0.000 N 
ATOM     13  C   UNL     1       0.984  10.393  18.973  0.00  0.00    +0.000 A 
ATOM     14  C   UNL     1       0.984   9.409  19.940  0.00  0.00    +0.000 A 
ATOM     15  C   UNL     1       0.250   9.908  21.064  0.00  0.00    +0.000 A 
ATOM     16  C   UNL     1      -0.112   9.391  22.330  0.00  0.00    +0.000 A 
ATOM     17  C   UNL     1      -0.847  10.178  23.224  0.00  0.00    +0.000 A 
ATOM     18  C   UNL     1      -1.236  11.466  22.876  0.00  0.00    +0.000 A 
ATOM     19  C   UNL     1      -0.912  11.999  21.627  0.00  0.00    +0.000 A 
ATOM     20  C   UNL     1      -0.171  11.203  20.738  0.00  0.00    +0.000 A 
ENDBRANCH   1  14
BRANCH  10  21
ATOM     21  C   UNL     1       4.250   5.732  17.207  0.00  0.00    +0.000 C 
BRANCH  21  22
ATOM     22  C   UNL     1       5.457   6.637  17.470  0.00  0.00    +0.000 C 
BRANCH  22  23
ATOM     23  C   UNL     1       6.663   5.953  18.114  0.00  0.00    +0.000 C 
BRANCH  23  24
ATOM     24  C   UNL     1       7.419   5.150  17.078  0.00  0.00    +0.000 C 
ATOM     25  O   UNL     1       8.157   4.207  17.376  0.00  0.00    +0.000 OA
ATOM     26  N   UNL     1       7.219   5.588  15.803  0.00  0.00    +0.000 N 
ATOM     27  H   UNL     1       6.758   6.478  15.669  0.00  0.00    +0.000 HD
BRANCH  26  28
ATOM     28  C   UNL     1       7.855   4.944  14.676  0.00  0.00    +0.000 C 
BRANCH  28  29
ATOM     29  C   UNL     1       6.871   4.389  13.673  0.00  0.00    +0.000 A 
ATOM     30  C   UNL     1       5.541   4.181  14.071  0.00  0.00    +0.000 A 
ATOM     31  C   UNL     1       4.597   3.665  13.180  0.00  0.00    +0.000 A 
ATOM     32  C   UNL     1       4.974   3.347  11.878  0.00  0.00    +0.000 A 
ATOM     33 CL   UNL     1       3.822   2.693  10.784  0.00  0.00    +0.000 Cl
ATOM     34  C   UNL     1       6.283   3.553  11.459  0.00  0.00    +0.000 A 
ATOM     35  C   UNL     1       7.227   4.077  12.349  0.00  0.00    +0.000 A 
ENDBRANCH  28  29
ENDBRANCH  26  28
ENDBRANCH  23  24
ENDBRANCH  22  23
ENDBRANCH  21  22
ENDBRANCH  10  21
TORSDOF 7
ENDMDL
MODEL 5
REMARK VINA RESULT:      -8.7      5.781     10.924
REMARK  Name = 
REMARK  8 active torsions:
REMARK  status: ('A' for Active; 'I' for Inactive)
REMARK    1  A    between atoms: C_1  and  N_2
REMARK    2  A    between atoms: C_4  and  C_5
REMARK    3  A    between atoms: N_14  and  C_15
REMARK    4  A    between atoms: C_15  and  C_16
REMARK    5  A    between atoms: C_16  and  C_17
REMARK    6  A    between atoms: C_17  and  C_18
REMARK    7  A    between atoms: N_20  and  C_21
REMARK    8  A    between atoms: C_21  and  C_22
REMARK                            x       y       z     vdW  Elec       q    Type
REMARK                         _______ _______ _______ _____ _____    ______ ____
ROOT
ATOM      1  C   UNL     1       2.137   6.980  19.696  0.00  0.00    +0.000 A 
ATOM      2  C   UNL     1       2.986   7.169  18.571  0.00  0.00    +0.000 A 
ATOM      3  C   UNL     1       3.423   5.902  18.249  0.00  0.00    +0.000 A 
ATOM      4  N   UNL     1       2.827   5.076  19.147  0.00  0.00    +0.000 N 
ATOM      5  N   UNL     1       2.066   5.691  20.048  0.00  0.00    +0.000 NA
ATOM      6  C   UNL     1       2.961   3.649  19.171  0.00  0.00    +0.000 C 
ATOM      7  C   UNL     1       3.892   3.080  18.121  0.00  0.00    +0.000 C 
ATOM      8  C   UNL     1       4.482   4.039  17.126  0.00  0.00    +0.000 C 
ATOM      9  O   UNL     1       5.179   3.599  16.197  0.00  0.00    +0.000 OA
ATOM     10  N   UNL     1       4.285   5.472  17.243  0.00  0.00    +0.000 N 
ENDROOT
BRANCH   1  14
ATOM     11  C   UNL     1      -0.115   9.670  23.251  0.00  0.00    +0.000 C 
ATOM     12  N   UNL     1       0.390   9.245  21.964  0.00  0.00    +0.000 N 
ATOM     13  C   UNL     1       1.011   8.050  21.717  0.00  0.00    +0.000 A 
ATOM     14  C   UNL     1       1.402   8.040  20.393  0.00  0.00    +0.000 A 
ATOM     15  C   UNL     1       0.985   9.281  19.811  0.00  0.00    +0.000 A 
ATOM     16  C   UNL     1       1.098   9.869  18.531  0.00  0.00    +0.000 A 
ATOM     17  C   UNL     1       0.547  11.134  18.290  0.00  0.00    +0.000 A 
ATOM     18  C   UNL     1      -0.102  11.826  19.305  0.00  0.00    +0.000 A 
ATOM     19  C   UNL     1      -0.213  11.280  20.585  0.00  0.00    +0.000 A 
ATOM     20  C   UNL     1       0.338  10.010  20.816  0.00  0.00    +0.000 A 
ENDBRANCH   1  14
BRANCH  10  21
ATOM     21  C   UNL     1       4.920   6.446  16.301  0.00  0.00    +0.000 C 
BRANCH  21  22
ATOM     22  C   UNL     1       5.877   7.400  17.021  0.00  0.00    +0.000 C 
BRANCH  22  23
ATOM     23  C   UNL     1       7.356   7.021  16.956  0.00  0.00    +0.000 C 
BRANCH  23  24
ATOM     24  C   UNL     1       8.092   7.594  18.146  0.00  0.00    +0.000 C 
ATOM     25  O   UNL     1       8.432   6.906  19.113  0.00  0.00    +0.000 OA
ATOM     26  N   UNL     1       8.315   8.935  18.050  0.00  0.00    +0.000 N 
ATOM     27  H   UNL     1       7.836   9.449  17.322  0.00  0.00    +0.000 HD
BRANCH  26  28
ATOM     28  C   UNL     1       9.007   9.662  19.089  0.00  0.00    +0.000 C 
BRANCH  28  29
ATOM     29  C   UNL     1       9.624  10.954  18.605  0.00  0.00    +0.000 A 
ATOM     30  C   UNL     1       8.816  11.878  17.924  0.00  0.00    +0.000 A 
ATOM     31  C   UNL     1       9.344  13.082  17.453  0.00  0.00    +0.000 A 
ATOM     32  C   UNL     1      10.690  13.376  17.655  0.00  0.00    +0.000 A 
ATOM     33 CL   UNL     1      11.348  14.847  17.060  0.00  0.00    +0.000 Cl
ATOM     34  C   UNL     1      11.507  12.480  18.334  0.00  0.00    +0.000 A 
ATOM     35  C   UNL     1      10.977  11.276  18.812  0.00  0.00    +0.000 A 
ENDBRANCH  28  29
ENDBRANCH  26  28
ENDBRANCH  23  24
ENDBRANCH  22  23
ENDBRANCH  21  22
ENDBRANCH  10  21
TORSDOF 7
ENDMDL
MODEL 6
REMARK VINA RESULT:      -8.7      5.260     10.359
REMARK  Name = 
REMARK  8 active torsions:
REMARK  status: ('A' for Active; 'I' for Inactive)
REMARK    1  A    between atoms: C_1  and  N_2
REMARK    2  A    between atoms: C_4  and  C_5
REMARK    3  A    between atoms: N_14  and  C_15
REMARK    4  A    between atoms: C_15  and  C_16
REMARK    5  A    between atoms: C_16  and  C_17
REMARK    6  A    between atoms: C_17  and  C_18
REMARK    7  A    between atoms: N_20  and  C_21
REMARK    8  A    between atoms: C_21  and  C_22
REMARK                            x       y       z     vdW  Elec       q    Type
REMARK                         _______ _______ _______ _____ _____    ______ ____
ROOT
ATOM      1  C   UNL     1       2.020   7.144  19.986  0.00  0.00    +0.000 A 
ATOM      2  C   UNL     1       2.891   6.575  19.017  0.00  0.00    +0.000 A 
ATOM      3  C   UNL     1       3.101   5.284  19.453  0.00  0.00    +0.000 A 
ATOM      4  N   UNL     1       2.368   5.165  20.590  0.00  0.00    +0.000 N 
ATOM      5  N   UNL     1       1.724   6.271  20.956  0.00  0.00    +0.000 NA
ATOM      6  C   UNL     1       2.252   3.971  21.376  0.00  0.00    +0.000 C 
ATOM      7  C   UNL     1       3.071   2.800  20.876  0.00  0.00    +0.000 C 
ATOM      8  C   UNL     1       3.821   2.979  19.587  0.00  0.00    +0.000 C 
ATOM      9  O   UNL     1       4.433   2.014  19.100  0.00  0.00    +0.000 OA
ATOM     10  N   UNL     1       3.877   4.263  18.912  0.00  0.00    +0.000 N 
ENDROOT
BRANCH   1  14
ATOM     11  C   UNL     1       0.668  11.691  18.422  0.00  0.00    +0.000 C 
ATOM     12  N   UNL     1       0.877  10.536  19.267  0.00  0.00    +0.000 N 
ATOM     13  C   UNL     1       1.546   9.399  18.897  0.00  0.00    +0.000 A 
ATOM     14  C   UNL     1       1.479   8.506  19.947  0.00  0.00    +0.000 A 
ATOM     15  C   UNL     1       0.749   9.138  21.005  0.00  0.00    +0.000 A 
ATOM     16  C   UNL     1       0.338   8.754  22.302  0.00  0.00    +0.000 A 
ATOM     17  C   UNL     1      -0.374   9.651  23.107  0.00  0.00    +0.000 A 
ATOM     18  C   UNL     1      -0.693  10.919  22.638  0.00  0.00    +0.000 A 
ATOM     19  C   UNL     1      -0.319  11.323  21.354  0.00  0.00    +0.000 A 
ATOM     20  C   UNL     1       0.399  10.417  20.557  0.00  0.00    +0.000 A 
ENDBRANCH   1  14
BRANCH  10  21
ATOM     21  C   UNL     1       4.674   4.476  17.664  0.00  0.00    +0.000 C 
BRANCH  21  22
ATOM     22  C   UNL     1       6.166   4.654  17.959  0.00  0.00    +0.000 C 
BRANCH  22  23
ATOM     23  C   UNL     1       6.536   5.919  18.733  0.00  0.00    +0.000 C 
BRANCH  23  24
ATOM     24  C   UNL     1       6.921   7.022  17.772  0.00  0.00    +0.000 C 
ATOM     25  O   UNL     1       6.380   7.165  16.672  0.00  0.00    +0.000 OA
ATOM     26  N   UNL     1       7.930   7.813  18.234  0.00  0.00    +0.000 N 
ATOM     27  H   UNL     1       8.442   7.508  19.052  0.00  0.00    +0.000 HD
BRANCH  26  28
ATOM     28  C   UNL     1       8.435   8.923  17.458  0.00  0.00    +0.000 C 
BRANCH  28  29
ATOM     29  C   UNL     1       8.810  10.119  18.302  0.00  0.00    +0.000 A 
ATOM     30  C   UNL     1       9.189   9.914  19.638  0.00  0.00    +0.000 A 
ATOM     31  C   UNL     1       9.539  10.990  20.458  0.00  0.00    +0.000 A 
ATOM     32  C   UNL     1       9.512  12.286  19.950  0.00  0.00    +0.000 A 
ATOM     33 CL   UNL     1       9.923  13.615  20.960  0.00  0.00    +0.000 Cl
ATOM     34  C   UNL     1       9.149  12.512  18.627  0.00  0.00    +0.000 A 
ATOM     35  C   UNL     1       8.805  11.434  17.804  0.00  0.00    +0.000 A 
ENDBRANCH  28  29
ENDBRANCH  26  28
ENDBRANCH  23  24
ENDBRANCH  22  23
ENDBRANCH  21  22
ENDBRANCH  10  21
TORSDOF 7
ENDMDL
MODEL 7
REMARK VINA RESULT:      -8.6      1.023      1.042
REMARK  Name = 
REMARK  8 active torsions:
REMARK  status: ('A' for Active; 'I' for Inactive)
REMARK    1  A    between atoms: C_1  and  N_2
REMARK    2  A    between atoms: C_4  and  C_5
REMARK    3  A    between atoms: N_14  and  C_15
REMARK    4  A    between atoms: C_15  and  C_16
REMARK    5  A    between atoms: C_16  and  C_17
REMARK    6  A    between atoms: C_17  and  C_18
REMARK    7  A    between atoms: N_20  and  C_21
REMARK    8  A    between atoms: C_21  and  C_22
REMARK                            x       y       z     vdW  Elec       q    Type
REMARK                         _______ _______ _______ _____ _____    ______ ____
ROOT
ATOM      1  C   UNL     1       2.045   7.868  18.933  0.00  0.00    +0.000 A 
ATOM      2  C   UNL     1       1.246   8.891  18.355  0.00  0.00    +0.000 A 
ATOM      3  C   UNL     1       0.617   9.489  19.426  0.00  0.00    +0.000 A 
ATOM      4  N   UNL     1       1.070   8.828  20.523  0.00  0.00    +0.000 N 
ATOM      5  N   UNL     1       1.911   7.830  20.264  0.00  0.00    +0.000 NA
ATOM      6  C   UNL     1       0.713   9.135  21.877  0.00  0.00    +0.000 C 
ATOM      7  C   UNL     1      -0.288  10.262  22.030  0.00  0.00    +0.000 C 
ATOM      8  C   UNL     1      -0.712  10.986  20.785  0.00  0.00    +0.000 C 
ATOM      9  O   UNL     1      -1.462  11.970  20.879  0.00  0.00    +0.000 OA
ATOM     10  N   UNL     1      -0.293  10.541  19.467  0.00  0.00    +0.000 N 
ENDROOT
BRANCH   1  14
ATOM     11  C   UNL     1       5.879   6.061  16.290  0.00  0.00    +0.000 C 
ATOM     12  N   UNL     1       4.630   6.146  17.013  0.00  0.00    +0.000 N 
ATOM     13  C   UNL     1       4.091   7.297  17.524  0.00  0.00    +0.000 A 
ATOM     14  C   UNL     1       2.933   6.963  18.195  0.00  0.00    +0.000 A 
ATOM     15  C   UNL     1       2.757   5.546  18.073  0.00  0.00    +0.000 A 
ATOM     16  C   UNL     1       1.799   4.616  18.539  0.00  0.00    +0.000 A 
ATOM     17  C   UNL     1       1.923   3.260  18.215  0.00  0.00    +0.000 A 
ATOM     18  C   UNL     1       2.991   2.814  17.445  0.00  0.00    +0.000 A 
ATOM     19  C   UNL     1       3.963   3.704  16.985  0.00  0.00    +0.000 A 
ATOM     20  C   UNL     1       3.827   5.063  17.312  0.00  0.00    +0.000 A 
ENDBRANCH   1  14
BRANCH  10  21
ATOM     21  C   UNL     1      -0.760  11.208  18.212  0.00  0.00    +0.000 C 
BRANCH  21  22
ATOM     22  C   UNL     1      -1.545  10.251  17.311  0.00  0.00    +0.000 C 
BRANCH  22  23
ATOM     23  C   UNL     1      -2.872   9.751  17.882  0.00  0.00    +0.000 C 
BRANCH  23  24
ATOM     24  C   UNL     1      -3.985  10.712  17.527  0.00  0.00    +0.000 C 
ATOM     25  O   UNL     1      -3.871  11.566  16.643  0.00  0.00    +0.000 OA
ATOM     26  N   UNL     1      -5.102  10.552  18.292  0.00  0.00    +0.000 N 
ATOM     27  H   UNL     1      -5.039   9.965  19.114  0.00  0.00    +0.000 HD
BRANCH  26  28
ATOM     28  C   UNL     1      -6.273  11.376  18.100  0.00  0.00    +0.000 C 
BRANCH  28  29
ATOM     29  C   UNL     1      -6.566  12.279  19.276  0.00  0.00    +0.000 A 
ATOM     30  C   UNL     1      -7.605  13.217  19.168  0.00  0.00    +0.000 A 
ATOM     31  C   UNL     1      -7.909  14.076  20.226  0.00  0.00    +0.000 A 
ATOM     32  C   UNL     1      -7.173  14.009  21.407  0.00  0.00    +0.000 A 
ATOM     33 CL   UNL     1      -7.530  15.077  22.705  0.00  0.00    +0.000 Cl
ATOM     34  C   UNL     1      -6.147  13.082  21.539  0.00  0.00    +0.000 A 
ATOM     35  C   UNL     1      -5.847  12.217  20.482  0.00  0.00    +0.000 A 
ENDBRANCH  28  29
ENDBRANCH  26  28
ENDBRANCH  23  24
ENDBRANCH  22  23
ENDBRANCH  21  22
ENDBRANCH  10  21
TORSDOF 7
ENDMDL
MODEL 8
REMARK VINA RESULT:      -8.6      1.189      1.980
REMARK  Name = 
REMARK  8 active torsions:
REMARK  status: ('A' for Active; 'I' for Inactive)
REMARK    1  A    between atoms: C_1  and  N_2
REMARK    2  A    between atoms: C_4  and  C_5
REMARK    3  A    between atoms: N_14  and  C_15
REMARK    4  A    between atoms: C_15  and  C_16
REMARK    5  A    between atoms: C_16  and  C_17
REMARK    6  A    between atoms: C_17  and  C_18
REMARK    7  A    between atoms: N_20  and  C_21
REMARK    8  A    between atoms: C_21  and  C_22
REMARK                            x       y       z     vdW  Elec       q    Type
REMARK                         _______ _______ _______ _____ _____    ______ ____
ROOT
ATOM      1  C   UNL     1       1.861   7.441  20.059  0.00  0.00    +0.000 A 
ATOM      2  C   UNL     1       1.511   8.596  19.307  0.00  0.00    +0.000 A 
ATOM      3  C   UNL     1       0.885   9.425  20.213  0.00  0.00    +0.000 A 
ATOM      4  N   UNL     1       0.912   8.754  21.393  0.00  0.00    +0.000 N 
ATOM      5  N   UNL     1       1.469   7.547  21.334  0.00  0.00    +0.000 NA
ATOM      6  C   UNL     1       0.404   9.252  22.638  0.00  0.00    +0.000 C 
ATOM      7  C   UNL     1      -0.245  10.618  22.557  0.00  0.00    +0.000 C 
ATOM      8  C   UNL     1      -0.200  11.330  21.236  0.00  0.00    +0.000 C 
ATOM      9  O   UNL     1      -0.644  12.486  21.153  0.00  0.00    +0.000 OA
ATOM     10  N   UNL     1       0.319  10.686  20.043  0.00  0.00    +0.000 N 
ENDROOT
BRANCH   1  14
ATOM     11  C   UNL     1       3.489   2.771  19.360  0.00  0.00    +0.000 C 
ATOM     12  N   UNL     1       3.318   4.201  19.220  0.00  0.00    +0.000 N 
ATOM     13  C   UNL     1       2.533   4.983  20.025  0.00  0.00    +0.000 A 
ATOM     14  C   UNL     1       2.580   6.274  19.539  0.00  0.00    +0.000 A 
ATOM     15  C   UNL     1       3.443   6.273  18.396  0.00  0.00    +0.000 A 
ATOM     16  C   UNL     1       3.878   7.253  17.474  0.00  0.00    +0.000 A 
ATOM     17  C   UNL     1       4.766   6.905  16.449  0.00  0.00    +0.000 A 
ATOM     18  C   UNL     1       5.218   5.598  16.320  0.00  0.00    +0.000 A 
ATOM     19  C   UNL     1       4.793   4.603  17.203  0.00  0.00    +0.000 A 
ATOM     20  C   UNL     1       3.906   4.963  18.231  0.00  0.00    +0.000 A 
ENDBRANCH   1  14
BRANCH  10  21
ATOM     21  C   UNL     1       0.311  11.355  18.705  0.00  0.00    +0.000 C 
BRANCH  21  22
ATOM     22  C   UNL     1      -1.097  11.422  18.106  0.00  0.00    +0.000 C 
BRANCH  22  23
ATOM     23  C   UNL     1      -1.533  10.192  17.311  0.00  0.00    +0.000 C 
BRANCH  23  24
ATOM     24  C   UNL     1      -3.014  10.264  17.012  0.00  0.00    +0.000 C 
ATOM     25  O   UNL     1      -3.503   9.839  15.962  0.00  0.00    +0.000 OA
ATOM     26  N   UNL     1      -3.736  10.862  18.002  0.00  0.00    +0.000 N 
ATOM     27  H   UNL     1      -3.235  11.351  18.732  0.00  0.00    +0.000 HD
BRANCH  26  28
ATOM     28  C   UNL     1      -5.169  11.021  17.899  0.00  0.00    +0.000 C 
BRANCH  28  29
ATOM     29  C   UNL     1      -5.821  11.408  19.206  0.00  0.00    +0.000 A 
ATOM     30  C   UNL     1      -6.996  10.747  19.599  0.00  0.00    +0.000 A 
ATOM     31  C   UNL     1      -7.637  11.075  20.797  0.00  0.00    +0.000 A 
ATOM     32  C   UNL     1      -7.111  12.072  21.615  0.00  0.00    +0.000 A 
ATOM     33 CL   UNL     1      -7.906  12.492  23.079  0.00  0.00    +0.000 Cl
ATOM     34  C   UNL     1      -5.944  12.733  21.250  0.00  0.00    +0.000 A 
ATOM     35  C   UNL     1      -5.298  12.400  20.054  0.00  0.00    +0.000 A 
ENDBRANCH  28  29
ENDBRANCH  26  28
ENDBRANCH  23  24
ENDBRANCH  22  23
ENDBRANCH  21  22
ENDBRANCH  10  21
TORSDOF 7
ENDMDL
MODEL 9
REMARK VINA RESULT:      -8.5      5.252     10.347
REMARK  Name = 
REMARK  8 active torsions:
REMARK  status: ('A' for Active; 'I' for Inactive)
REMARK    1  A    between atoms: C_1  and  N_2
REMARK    2  A    between atoms: C_4  and  C_5
REMARK    3  A    between atoms: N_14  and  C_15
REMARK    4  A    between atoms: C_15  and  C_16
REMARK    5  A    between atoms: C_16  and  C_17
REMARK    6  A    between atoms: C_17  and  C_18
REMARK    7  A    between atoms: N_20  and  C_21
REMARK    8  A    between atoms: C_21  and  C_22
REMARK                            x       y       z     vdW  Elec       q    Type
REMARK                         _______ _______ _______ _____ _____    ______ ____
ROOT
ATOM      1  C   UNL     1       1.637   7.958  19.850  0.00  0.00    +0.000 A 
ATOM      2  C   UNL     1       2.352   7.437  18.738  0.00  0.00    +0.000 A 
ATOM      3  C   UNL     1       2.674   6.147  19.102  0.00  0.00    +0.000 A 
ATOM      4  N   UNL     1       2.144   5.981  20.342  0.00  0.00    +0.000 N 
ATOM      5  N   UNL     1       1.535   7.057  20.835  0.00  0.00    +0.000 NA
ATOM      6  C   UNL     1       2.198   4.770  21.107  0.00  0.00    +0.000 C 
ATOM      7  C   UNL     1       2.960   3.638  20.450  0.00  0.00    +0.000 C 
ATOM      8  C   UNL     1       3.479   3.866  19.060  0.00  0.00    +0.000 C 
ATOM      9  O   UNL     1       4.032   2.933  18.456  0.00  0.00    +0.000 OA
ATOM     10  N   UNL     1       3.381   5.164  18.416  0.00  0.00    +0.000 N 
ENDROOT
BRANCH   1  14
ATOM     11  C   UNL     1       0.098  12.565  18.687  0.00  0.00    +0.000 C 
ATOM     12  N   UNL     1       0.369  11.356  19.433  0.00  0.00    +0.000 N 
ATOM     13  C   UNL     1       1.060  10.273  18.955  0.00  0.00    +0.000 A 
ATOM     14  C   UNL     1       1.054   9.300  19.934  0.00  0.00    +0.000 A 
ATOM     15  C   UNL     1       0.339   9.824  21.059  0.00  0.00    +0.000 A 
ATOM     16  C   UNL     1      -0.018   9.328  22.334  0.00  0.00    +0.000 A 
ATOM     17  C   UNL     1      -0.731  10.136  23.227  0.00  0.00    +0.000 A 
ATOM     18  C   UNL     1      -1.104  11.426  22.867  0.00  0.00    +0.000 A 
ATOM     19  C   UNL     1      -0.783  11.939  21.609  0.00  0.00    +0.000 A 
ATOM     20  C   UNL     1      -0.064  11.122  20.722  0.00  0.00    +0.000 A 
ENDBRANCH   1  14
BRANCH  10  21
ATOM     21  C   UNL     1       3.952   5.428  17.058  0.00  0.00    +0.000 C 
BRANCH  21  22
ATOM     22  C   UNL     1       4.882   6.645  17.053  0.00  0.00    +0.000 C 
BRANCH  22  23
ATOM     23  C   UNL     1       6.116   6.531  17.947  0.00  0.00    +0.000 C 
BRANCH  23  24
ATOM     24  C   UNL     1       7.279   7.271  17.322  0.00  0.00    +0.000 C 
ATOM     25  O   UNL     1       7.914   6.825  16.363  0.00  0.00    +0.000 OA
ATOM     26  N   UNL     1       7.560   8.454  17.939  0.00  0.00    +0.000 N 
ATOM     27  H   UNL     1       7.119   8.647  18.828  0.00  0.00    +0.000 HD
BRANCH  26  28
ATOM     28  C   UNL     1       8.636   9.305  17.484  0.00  0.00    +0.000 C 
BRANCH  28  29
ATOM     29  C   UNL     1       8.938  10.443  18.431  0.00  0.00    +0.000 A 
ATOM     30  C   UNL     1       8.806  11.762  17.969  0.00  0.00    +0.000 A 
ATOM     31  C   UNL     1       9.080  12.846  18.807  0.00  0.00    +0.000 A 
ATOM     32  C   UNL     1       9.492  12.622  20.118  0.00  0.00    +0.000 A 
ATOM     33 CL   UNL     1       9.848  13.952  21.147  0.00  0.00    +0.000 Cl
ATOM     34  C   UNL     1       9.621  11.325  20.599  0.00  0.00    +0.000 A 
ATOM     35  C   UNL     1       9.340  10.239  19.762  0.00  0.00    +0.000 A 
ENDBRANCH  28  29
ENDBRANCH  26  28
ENDBRANCH  23  24
ENDBRANCH  22  23
ENDBRANCH  21  22
ENDBRANCH  10  21
TORSDOF 7
ENDMDL
