MODEL 1
REMARK VINA RESULT:      -8.2      0.000      0.000
REMARK  Name = 
REMARK  5 active torsions:
REMARK  status: ('A' for Active; 'I' for Inactive)
REMARK    1  A    between atoms: C_4  and  C_5
REMARK    2  A    between atoms: N_10  and  C_11
REMARK    3  A    between atoms: C_11  and  C_12
REMARK    4  A    between atoms: C_15  and  C_16
REMARK    5  A    between atoms: C_16  and  N_17
REMARK                            x       y       z     vdW  Elec       q    Type
REMARK                         _______ _______ _______ _____ _____    ______ ____
ROOT
ATOM      1  C   UNL     1      -1.154  11.725  22.470  0.00  0.00    +0.000 A 
ATOM      2  C   UNL     1      -0.796  10.456  22.903  0.00  0.00    +0.000 A 
ATOM      3  N   UNL     1      -0.068   9.943  21.877  0.00  0.00    +0.000 N 
ATOM      4  N   UNL     1       0.555   8.755  21.720  0.00  0.00    +0.000 NA
ATOM      5  C   UNL     1       1.171   8.827  20.575  0.00  0.00    +0.000 A 
ATOM      6  N   UNL     1       1.937   7.857  20.011  0.00  0.00    +0.000 N 
ATOM      7  S   UNL     1       0.999  10.340  19.638  0.00  0.00    +0.000 S 
ATOM      8  C   UNL     1       0.011  10.895  20.919  0.00  0.00    +0.000 A 
ATOM      9  N   UNL     1      -0.629  11.993  21.208  0.00  0.00    +0.000 NA
ATOM     10  H   UNL     1       2.420   8.078  19.149  0.00  0.00    +0.000 HD
ENDROOT
BRANCH   1  14
ATOM     11  C   UNL     1      -3.304  14.573  24.800  0.00  0.00    +0.000 A 
ATOM     12  C   UNL     1      -2.006  14.847  24.372  0.00  0.00    +0.000 A 
ATOM     13  C   UNL     1      -1.316  13.917  23.591  0.00  0.00    +0.000 A 
ATOM     14  C   UNL     1      -1.914  12.696  23.242  0.00  0.00    +0.000 A 
ATOM     15  C   UNL     1      -3.223  12.439  23.667  0.00  0.00    +0.000 A 
ATOM     16  C   UNL     1      -3.915  13.373  24.442  0.00  0.00    +0.000 A 
ENDBRANCH   1  14
BRANCH   6  17
ATOM     17  C   UNL     1       1.787   6.453  20.322  0.00  0.00    +0.000 C 
BRANCH  17  18
ATOM     18  C   UNL     1       2.614   5.612  19.386  0.00  0.00    +0.000 A 
ATOM     19  C   UNL     1       3.952   5.321  19.696  0.00  0.00    +0.000 A 
ATOM     20  C   UNL     1       4.725   4.533  18.841  0.00  0.00    +0.000 A 
ATOM     21  C   UNL     1       4.178   4.015  17.659  0.00  0.00    +0.000 A 
ATOM     22  C   UNL     1       2.834   4.279  17.364  0.00  0.00    +0.000 A 
ATOM     23  C   UNL     1       2.058   5.073  18.218  0.00  0.00    +0.000 A 
BRANCH  21  24
ATOM     24  C   UNL     1       5.034   3.211  16.716  0.00  0.00    +0.000 C 
BRANCH  24  25
ATOM     25  N   UNL     1       5.846   4.042  15.846  0.00  0.00    +0.000 N 
ATOM     26  C   UNL     1       5.698   4.190  14.493  0.00  0.00    +0.000 A 
ATOM     27  C   UNL     1       6.794   4.919  14.094  0.00  0.00    +0.000 A 
ATOM     28  N   UNL     1       7.591   5.222  15.165  0.00  0.00    +0.000 NA
ATOM     29  C   UNL     1       6.998   4.684  16.204  0.00  0.00    +0.000 A 
ENDBRANCH  24  25
ENDBRANCH  21  24
ENDBRANCH  17  18
ENDBRANCH   6  17
TORSDOF 5
ENDMDL
MODEL 2
REMARK VINA RESULT:      -8.1      3.626     10.752
REMARK  Name = 
REMARK  5 active torsions:
REMARK  status: ('A' for Active; 'I' for Inactive)
REMARK    1  A    between atoms: C_4  and  C_5
REMARK    2  A    between atoms: N_10  and  C_11
REMARK    3  A    between atoms: C_11  and  C_12
REMARK    4  A    between atoms: C_15  and  C_16
REMARK    5  A    between atoms: C_16  and  N_17
REMARK                            x       y       z     vdW  Elec       q    Type
REMARK                         _______ _______ _______ _____ _____    ______ ____
ROOT
ATOM      1  C   UNL     1       2.219   6.852  19.256  0.00  0.00    +0.000 A 
ATOM      2  C   UNL     1       2.086   7.993  18.475  0.00  0.00    +0.000 A 
ATOM      3  N   UNL     1       1.460   8.884  19.287  0.00  0.00    +0.000 N 
ATOM      4  N   UNL     1       1.075  10.164  19.090  0.00  0.00    +0.000 NA
ATOM      5  C   UNL     1       0.594  10.568  20.232  0.00  0.00    +0.000 A 
ATOM      6  N   UNL     1       0.095  11.802  20.503  0.00  0.00    +0.000 N 
ATOM      7  S   UNL     1       0.578   9.396  21.582  0.00  0.00    +0.000 S 
ATOM      8  C   UNL     1       1.278   8.285  20.486  0.00  0.00    +0.000 A 
ATOM      9  N   UNL     1       1.706   7.056  20.535  0.00  0.00    +0.000 NA
ATOM     10  H   UNL     1      -0.176  12.002  21.458  0.00  0.00    +0.000 HD
ENDROOT
BRANCH   1  14
ATOM     11  C   UNL     1       4.216   3.294  18.026  0.00  0.00    +0.000 A 
ATOM     12  C   UNL     1       4.769   4.109  19.012  0.00  0.00    +0.000 A 
ATOM     13  C   UNL     1       4.098   5.263  19.423  0.00  0.00    +0.000 A 
ATOM     14  C   UNL     1       2.872   5.620  18.843  0.00  0.00    +0.000 A 
ATOM     15  C   UNL     1       2.320   4.785  17.864  0.00  0.00    +0.000 A 
ATOM     16  C   UNL     1       2.989   3.628  17.457  0.00  0.00    +0.000 A 
ENDBRANCH   1  14
BRANCH   6  17
ATOM     17  C   UNL     1      -0.444  12.676  19.486  0.00  0.00    +0.000 C 
BRANCH  17  18
ATOM     18  C   UNL     1      -1.918  12.428  19.301  0.00  0.00    +0.000 A 
ATOM     19  C   UNL     1      -2.377  11.708  18.188  0.00  0.00    +0.000 A 
ATOM     20  C   UNL     1      -3.741  11.462  18.012  0.00  0.00    +0.000 A 
ATOM     21  C   UNL     1      -4.675  11.929  18.947  0.00  0.00    +0.000 A 
ATOM     22  C   UNL     1      -4.215  12.622  20.075  0.00  0.00    +0.000 A 
ATOM     23  C   UNL     1      -2.849  12.872  20.250  0.00  0.00    +0.000 A 
BRANCH  21  24
ATOM     24  C   UNL     1      -6.148  11.707  18.722  0.00  0.00    +0.000 C 
BRANCH  24  25
ATOM     25  N   UNL     1      -6.706  10.701  19.608  0.00  0.00    +0.000 N 
ATOM     26  C   UNL     1      -6.783   9.356  19.363  0.00  0.00    +0.000 A 
ATOM     27  C   UNL     1      -7.542   8.852  20.394  0.00  0.00    +0.000 A 
ATOM     28  N   UNL     1      -7.917   9.849  21.254  0.00  0.00    +0.000 NA
ATOM     29  C   UNL     1      -7.400  10.949  20.759  0.00  0.00    +0.000 A 
ENDBRANCH  24  25
ENDBRANCH  21  24
ENDBRANCH  17  18
ENDBRANCH   6  17
TORSDOF 5
ENDMDL
MODEL 3
REMARK VINA RESULT:      -8.1      3.761     10.855
REMARK  Name = 
REMARK  5 active torsions:
REMARK  status: ('A' for Active; 'I' for Inactive)
REMARK    1  A    between atoms: C_4  and  C_5
REMARK    2  A    between atoms: N_10  and  C_11
REMARK    3  A    between atoms: C_11  and  C_12
REMARK    4  A    between atoms: C_15  and  C_16
REMARK    5  A    between atoms: C_16  and  N_17
REMARK                            x       y       z     vdW  Elec       q    Type
REMARK                         _______ _______ _______ _____ _____    ______ ____
ROOT
ATOM      1  C   UNL     1       2.512   7.174  18.570  0.00  0.00    +0.000 A 
ATOM      2  C   UNL     1       2.310   8.410  17.971  0.00  0.00    +0.000 A 
ATOM      3  N   UNL     1       1.576   9.107  18.877  0.00  0.00    +0.000 N 
ATOM      4  N   UNL     1       1.088  10.366  18.862  0.00  0.00    +0.000 NA
ATOM      5  C   UNL     1       0.528  10.543  20.026  0.00  0.00    +0.000 A 
ATOM      6  N   UNL     1      -0.088  11.673  20.459  0.00  0.00    +0.000 N 
ATOM      7  S   UNL     1       0.562   9.173  21.174  0.00  0.00    +0.000 S 
ATOM      8  C   UNL     1       1.400   8.311  19.957  0.00  0.00    +0.000 A 
ATOM      9  N   UNL     1       1.932   7.128  19.836  0.00  0.00    +0.000 NA
ATOM     10  H   UNL     1      -0.413  11.696  21.418  0.00  0.00    +0.000 HD
ENDROOT
BRANCH   1  14
ATOM     11  C   UNL     1       4.751   3.909  16.992  0.00  0.00    +0.000 A 
ATOM     12  C   UNL     1       3.394   3.763  17.276  0.00  0.00    +0.000 A 
ATOM     13  C   UNL     1       2.663   4.844  17.774  0.00  0.00    +0.000 A 
ATOM     14  C   UNL     1       3.286   6.080  18.005  0.00  0.00    +0.000 A 
ATOM     15  C   UNL     1       4.645   6.218  17.703  0.00  0.00    +0.000 A 
ATOM     16  C   UNL     1       5.375   5.137  17.198  0.00  0.00    +0.000 A 
ENDBRANCH   1  14
BRANCH   6  17
ATOM     17  C   UNL     1      -0.660  12.652  19.563  0.00  0.00    +0.000 C 
BRANCH  17  18
ATOM     18  C   UNL     1      -2.087  12.299  19.235  0.00  0.00    +0.000 A 
ATOM     19  C   UNL     1      -2.375  11.478  18.133  0.00  0.00    +0.000 A 
ATOM     20  C   UNL     1      -3.693  11.135  17.826  0.00  0.00    +0.000 A 
ATOM     21  C   UNL     1      -4.754  11.602  18.615  0.00  0.00    +0.000 A 
ATOM     22  C   UNL     1      -4.466  12.396  19.733  0.00  0.00    +0.000 A 
ATOM     23  C   UNL     1      -3.144  12.745  20.040  0.00  0.00    +0.000 A 
BRANCH  21  24
ATOM     24  C   UNL     1      -6.176  11.272  18.246  0.00  0.00    +0.000 C 
BRANCH  24  25
ATOM     25  N   UNL     1      -6.869  10.532  19.285  0.00  0.00    +0.000 N 
ATOM     26  C   UNL     1      -7.608  11.065  20.307  0.00  0.00    +0.000 A 
ATOM     27  C   UNL     1      -7.907   9.998  21.122  0.00  0.00    +0.000 A 
ATOM     28  N   UNL     1      -7.378   8.840  20.619  0.00  0.00    +0.000 NA
ATOM     29  C   UNL     1      -6.762   9.189  19.515  0.00  0.00    +0.000 A 
ENDBRANCH  24  25
ENDBRANCH  21  24
ENDBRANCH  17  18
ENDBRANCH   6  17
TORSDOF 5
ENDMDL
MODEL 4
REMARK VINA RESULT:      -7.8      0.979      1.350
REMARK  Name = 
REMARK  5 active torsions:
REMARK  status: ('A' for Active; 'I' for Inactive)
REMARK    1  A    between atoms: C_4  and  C_5
REMARK    2  A    between atoms: N_10  and  C_11
REMARK    3  A    between atoms: C_11  and  C_12
REMARK    4  A    between atoms: C_15  and  C_16
REMARK    5  A    between atoms: C_16  and  N_17
REMARK                            x       y       z     vdW  Elec       q    Type
REMARK                         _______ _______ _______ _____ _____    ______ ____
ROOT
ATOM      1  C   UNL     1      -1.705  12.335  22.453  0.00  0.00    +0.000 A 
ATOM      2  C   UNL     1      -1.174  11.188  23.029  0.00  0.00    +0.000 A 
ATOM      3  N   UNL     1      -0.508  10.579  22.014  0.00  0.00    +0.000 N 
ATOM      4  N   UNL     1       0.214   9.439  21.967  0.00  0.00    +0.000 NA
ATOM      5  C   UNL     1       0.696   9.374  20.758  0.00  0.00    +0.000 A 
ATOM      6  N   UNL     1       1.495   8.394  20.262  0.00  0.00    +0.000 N 
ATOM      7  S   UNL     1       0.272  10.693  19.629  0.00  0.00    +0.000 S 
ATOM      8  C   UNL     1      -0.629  11.364  20.919  0.00  0.00    +0.000 A 
ATOM      9  N   UNL     1      -1.344  12.436  21.111  0.00  0.00    +0.000 NA
ATOM     10  H   UNL     1       1.860   8.511  19.325  0.00  0.00    +0.000 HD
ENDROOT
BRANCH   1  14
ATOM     11  C   UNL     1      -4.009  15.334  24.416  0.00  0.00    +0.000 A 
ATOM     12  C   UNL     1      -4.636  14.337  23.671  0.00  0.00    +0.000 A 
ATOM     13  C   UNL     1      -3.875  13.346  23.048  0.00  0.00    +0.000 A 
ATOM     14  C   UNL     1      -2.475  13.350  23.153  0.00  0.00    +0.000 A 
ATOM     15  C   UNL     1      -1.859  14.348  23.916  0.00  0.00    +0.000 A 
ATOM     16  C   UNL     1      -2.622  15.336  24.545  0.00  0.00    +0.000 A 
ENDBRANCH   1  14
BRANCH   6  17
ATOM     17  C   UNL     1       1.524   7.052  20.800  0.00  0.00    +0.000 C 
BRANCH  17  18
ATOM     18  C   UNL     1       2.252   6.123  19.865  0.00  0.00    +0.000 A 
ATOM     19  C   UNL     1       2.657   4.854  20.307  0.00  0.00    +0.000 A 
ATOM     20  C   UNL     1       3.323   3.979  19.446  0.00  0.00    +0.000 A 
ATOM     21  C   UNL     1       3.596   4.352  18.122  0.00  0.00    +0.000 A 
ATOM     22  C   UNL     1       3.165   5.606  17.671  0.00  0.00    +0.000 A 
ATOM     23  C   UNL     1       2.501   6.487  18.535  0.00  0.00    +0.000 A 
BRANCH  21  24
ATOM     24  C   UNL     1       4.362   3.424  17.216  0.00  0.00    +0.000 C 
BRANCH  24  25
ATOM     25  N   UNL     1       5.512   4.062  16.601  0.00  0.00    +0.000 N 
ATOM     26  C   UNL     1       5.760   4.169  15.259  0.00  0.00    +0.000 A 
ATOM     27  C   UNL     1       7.035   4.680  15.175  0.00  0.00    +0.000 A 
ATOM     28  N   UNL     1       7.557   4.891  16.423  0.00  0.00    +0.000 NA
ATOM     29  C   UNL     1       6.621   4.512  17.260  0.00  0.00    +0.000 A 
ENDBRANCH  24  25
ENDBRANCH  21  24
ENDBRANCH  17  18
ENDBRANCH   6  17
TORSDOF 5
ENDMDL
MODEL 5
REMARK VINA RESULT:      -7.8      3.749     10.715
REMARK  Name = 
REMARK  5 active torsions:
REMARK  status: ('A' for Active; 'I' for Inactive)
REMARK    1  A    between atoms: C_4  and  C_5
REMARK    2  A    between atoms: N_10  and  C_11
REMARK    3  A    between atoms: C_11  and  C_12
REMARK    4  A    between atoms: C_15  and  C_16
REMARK    5  A    between atoms: C_16  and  N_17
REMARK                            x       y       z     vdW  Elec       q    Type
REMARK                         _______ _______ _______ _____ _____    ______ ____
ROOT
ATOM      1  C   UNL     1       2.328   6.946  19.533  0.00  0.00    +0.000 A 
ATOM      2  C   UNL     1       2.214   8.088  18.751  0.00  0.00    +0.000 A 
ATOM      3  N   UNL     1       1.446   8.927  19.492  0.00  0.00    +0.000 N 
ATOM      4  N   UNL     1       1.008  10.184  19.263  0.00  0.00    +0.000 NA
ATOM      5  C   UNL     1       0.375  10.541  20.345  0.00  0.00    +0.000 A 
ATOM      6  N   UNL     1      -0.227  11.738  20.567  0.00  0.00    +0.000 N 
ATOM      7  S   UNL     1       0.279   9.351  21.675  0.00  0.00    +0.000 S 
ATOM      8  C   UNL     1       1.166   8.301  20.658  0.00  0.00    +0.000 A 
ATOM      9  N   UNL     1       1.661   7.099  20.746  0.00  0.00    +0.000 NA
ATOM     10  H   UNL     1      -0.616  11.908  21.486  0.00  0.00    +0.000 HD
ENDROOT
BRANCH   1  14
ATOM     11  C   UNL     1       4.629   3.479  18.613  0.00  0.00    +0.000 A 
ATOM     12  C   UNL     1       3.835   3.515  19.758  0.00  0.00    +0.000 A 
ATOM     13  C   UNL     1       3.068   4.648  20.041  0.00  0.00    +0.000 A 
ATOM     14  C   UNL     1       3.099   5.761  19.188  0.00  0.00    +0.000 A 
ATOM     15  C   UNL     1       3.889   5.706  18.034  0.00  0.00    +0.000 A 
ATOM     16  C   UNL     1       4.651   4.570  17.748  0.00  0.00    +0.000 A 
ENDBRANCH   1  14
BRANCH   6  17
ATOM     17  C   UNL     1      -0.699  12.593  19.502  0.00  0.00    +0.000 C 
BRANCH  17  18
ATOM     18  C   UNL     1      -2.111  12.233  19.121  0.00  0.00    +0.000 A 
ATOM     19  C   UNL     1      -3.174  12.537  19.986  0.00  0.00    +0.000 A 
ATOM     20  C   UNL     1      -4.488  12.218  19.638  0.00  0.00    +0.000 A 
ATOM     21  C   UNL     1      -4.770  11.592  18.415  0.00  0.00    +0.000 A 
ATOM     22  C   UNL     1      -3.714  11.317  17.537  0.00  0.00    +0.000 A 
ATOM     23  C   UNL     1      -2.394  11.632  17.887  0.00  0.00    +0.000 A 
BRANCH  21  24
ATOM     24  C   UNL     1      -6.184  11.203  18.071  0.00  0.00    +0.000 C 
BRANCH  24  25
ATOM     25  N   UNL     1      -6.904  10.644  19.201  0.00  0.00    +0.000 N 
ATOM     26  C   UNL     1      -7.548  11.347  20.183  0.00  0.00    +0.000 A 
ATOM     27  C   UNL     1      -7.916  10.401  21.112  0.00  0.00    +0.000 A 
ATOM     28  N   UNL     1      -7.521   9.152  20.716  0.00  0.00    +0.000 NA
ATOM     29  C   UNL     1      -6.917   9.326  19.564  0.00  0.00    +0.000 A 
ENDBRANCH  24  25
ENDBRANCH  21  24
ENDBRANCH  17  18
ENDBRANCH   6  17
TORSDOF 5
ENDMDL
MODEL 6
REMARK VINA RESULT:      -7.6      2.602     12.003
REMARK  Name = 
REMARK  5 active torsions:
REMARK  status: ('A' for Active; 'I' for Inactive)
REMARK    1  A    between atoms: C_4  and  C_5
REMARK    2  A    between atoms: N_10  and  C_11
REMARK    3  A    between atoms: C_11  and  C_12
REMARK    4  A    between atoms: C_15  and  C_16
REMARK    5  A    between atoms: C_16  and  N_17
REMARK                            x       y       z     vdW  Elec       q    Type
REMARK                         _______ _______ _______ _____ _____    ______ ____
ROOT
ATOM      1  C   UNL     1       3.252   6.710  18.100  0.00  0.00    +0.000 A 
ATOM      2  C   UNL     1       2.665   7.904  17.703  0.00  0.00    +0.000 A 
ATOM      3  N   UNL     1       1.990   8.329  18.802  0.00  0.00    +0.000 N 
ATOM      4  N   UNL     1       1.241   9.430  19.029  0.00  0.00    +0.000 NA
ATOM      5  C   UNL     1       0.900   9.373  20.285  0.00  0.00    +0.000 A 
ATOM      6  N   UNL     1       0.147  10.282  20.957  0.00  0.00    +0.000 N 
ATOM      7  S   UNL     1       1.466   7.966  21.232  0.00  0.00    +0.000 S 
ATOM      8  C   UNL     1       2.215   7.432  19.789  0.00  0.00    +0.000 A 
ATOM      9  N   UNL     1       2.962   6.426  19.432  0.00  0.00    +0.000 NA
ATOM     10  H   UNL     1       0.023  10.150  21.953  0.00  0.00    +0.000 HD
ENDROOT
BRANCH   1  14
ATOM     11  C   UNL     1       5.831   4.241  15.773  0.00  0.00    +0.000 A 
ATOM     12  C   UNL     1       4.893   3.671  16.631  0.00  0.00    +0.000 A 
ATOM     13  C   UNL     1       4.038   4.487  17.374  0.00  0.00    +0.000 A 
ATOM     14  C   UNL     1       4.122   5.884  17.277  0.00  0.00    +0.000 A 
ATOM     15  C   UNL     1       5.059   6.444  16.401  0.00  0.00    +0.000 A 
ATOM     16  C   UNL     1       5.910   5.627  15.652  0.00  0.00    +0.000 A 
ENDBRANCH   1  14
BRANCH   6  17
ATOM     17  C   UNL     1      -0.796  11.161  20.303  0.00  0.00    +0.000 C 
BRANCH  17  18
ATOM     18  C   UNL     1      -1.715  11.796  21.313  0.00  0.00    +0.000 A 
ATOM     19  C   UNL     1      -2.767  12.623  20.887  0.00  0.00    +0.000 A 
ATOM     20  C   UNL     1      -3.633  13.208  21.813  0.00  0.00    +0.000 A 
ATOM     21  C   UNL     1      -3.469  12.978  23.186  0.00  0.00    +0.000 A 
ATOM     22  C   UNL     1      -2.438  12.128  23.611  0.00  0.00    +0.000 A 
ATOM     23  C   UNL     1      -1.567  11.544  22.683  0.00  0.00    +0.000 A 
BRANCH  21  24
ATOM     24  C   UNL     1      -4.373  13.655  24.182  0.00  0.00    +0.000 C 
BRANCH  24  25
ATOM     25  N   UNL     1      -5.781  13.447  23.895  0.00  0.00    +0.000 N 
ATOM     26  C   UNL     1      -6.706  14.418  23.617  0.00  0.00    +0.000 A 
ATOM     27  C   UNL     1      -7.914  13.760  23.598  0.00  0.00    +0.000 A 
ATOM     28  N   UNL     1      -7.744  12.425  23.847  0.00  0.00    +0.000 NA
ATOM     29  C   UNL     1      -6.454  12.264  24.021  0.00  0.00    +0.000 A 
ENDBRANCH  24  25
ENDBRANCH  21  24
ENDBRANCH  17  18
ENDBRANCH   6  17
TORSDOF 5
ENDMDL
MODEL 7
REMARK VINA RESULT:      -7.6      2.618     12.094
REMARK  Name = 
REMARK  5 active torsions:
REMARK  status: ('A' for Active; 'I' for Inactive)
REMARK    1  A    between atoms: C_4  and  C_5
REMARK    2  A    between atoms: N_10  and  C_11
REMARK    3  A    between atoms: C_11  and  C_12
REMARK    4  A    between atoms: C_15  and  C_16
REMARK    5  A    between atoms: C_16  and  N_17
REMARK                            x       y       z     vdW  Elec       q    Type
REMARK                         _______ _______ _______ _____ _____    ______ ____
ROOT
ATOM      1  C   UNL     1       2.978   6.975  18.224  0.00  0.00    +0.000 A 
ATOM      2  C   UNL     1       2.518   8.222  17.824  0.00  0.00    +0.000 A 
ATOM      3  N   UNL     1       1.836   8.690  18.902  0.00  0.00    +0.000 N 
ATOM      4  N   UNL     1       1.179   9.850  19.117  0.00  0.00    +0.000 NA
ATOM      5  C   UNL     1       0.779   9.806  20.356  0.00  0.00    +0.000 A 
ATOM      6  N   UNL     1       0.081  10.770  21.011  0.00  0.00    +0.000 N 
ATOM      7  S   UNL     1       1.175   8.340  21.299  0.00  0.00    +0.000 S 
ATOM      8  C   UNL     1       1.936   7.762  19.881  0.00  0.00    +0.000 A 
ATOM      9  N   UNL     1       2.605   6.698  19.537  0.00  0.00    +0.000 NA
ATOM     10  H   UNL     1      -0.098  10.635  21.999  0.00  0.00    +0.000 HD
ENDROOT
BRANCH   1  14
ATOM     11  C   UNL     1       5.433   4.323  15.964  0.00  0.00    +0.000 A 
ATOM     12  C   UNL     1       4.465   3.821  16.834  0.00  0.00    +0.000 A 
ATOM     13  C   UNL     1       3.652   4.697  17.555  0.00  0.00    +0.000 A 
ATOM     14  C   UNL     1       3.806   6.086  17.423  0.00  0.00    +0.000 A 
ATOM     15  C   UNL     1       4.771   6.576  16.537  0.00  0.00    +0.000 A 
ATOM     16  C   UNL     1       5.581   5.699  15.810  0.00  0.00    +0.000 A 
ENDBRANCH   1  14
BRANCH   6  17
ATOM     17  C   UNL     1      -0.750  11.740  20.334  0.00  0.00    +0.000 C 
BRANCH  17  18
ATOM     18  C   UNL     1      -1.886  12.175  21.222  0.00  0.00    +0.000 A 
ATOM     19  C   UNL     1      -2.991  12.845  20.675  0.00  0.00    +0.000 A 
ATOM     20  C   UNL     1      -4.055  13.243  21.486  0.00  0.00    +0.000 A 
ATOM     21  C   UNL     1      -4.041  12.978  22.863  0.00  0.00    +0.000 A 
ATOM     22  C   UNL     1      -2.952  12.282  23.405  0.00  0.00    +0.000 A 
ATOM     23  C   UNL     1      -1.882  11.885  22.593  0.00  0.00    +0.000 A 
BRANCH  21  24
ATOM     24  C   UNL     1      -5.167  13.458  23.740  0.00  0.00    +0.000 C 
BRANCH  24  25
ATOM     25  N   UNL     1      -5.138  14.893  23.957  0.00  0.00    +0.000 N 
ATOM     26  C   UNL     1      -4.118  15.608  24.525  0.00  0.00    +0.000 A 
ATOM     27  C   UNL     1      -4.620  16.879  24.680  0.00  0.00    +0.000 A 
ATOM     28  N   UNL     1      -5.906  16.953  24.215  0.00  0.00    +0.000 NA
ATOM     29  C   UNL     1      -6.192  15.747  23.786  0.00  0.00    +0.000 A 
ENDBRANCH  24  25
ENDBRANCH  21  24
ENDBRANCH  17  18
ENDBRANCH   6  17
TORSDOF 5
ENDMDL
MODEL 8
REMARK VINA RESULT:      -7.6      3.759     10.699
REMARK  Name = 
REMARK  5 active torsions:
REMARK  status: ('A' for Active; 'I' for Inactive)
REMARK    1  A    between atoms: C_4  and  C_5
REMARK    2  A    between atoms: N_10  and  C_11
REMARK    3  A    between atoms: C_11  and  C_12
REMARK    4  A    between atoms: C_15  and  C_16
REMARK    5  A    between atoms: C_16  and  N_17
REMARK                            x       y       z     vdW  Elec       q    Type
REMARK                         _______ _______ _______ _____ _____    ______ ____
ROOT
ATOM      1  C   UNL     1       2.265   5.724  19.326  0.00  0.00    +0.000 A 
ATOM      2  C   UNL     1       2.294   6.801  18.451  0.00  0.00    +0.000 A 
ATOM      3  N   UNL     1       1.745   7.823  19.157  0.00  0.00    +0.000 N 
ATOM      4  N   UNL     1       1.518   9.116  18.841  0.00  0.00    +0.000 NA
ATOM      5  C   UNL     1       1.044   9.668  19.922  0.00  0.00    +0.000 A 
ATOM      6  N   UNL     1       0.682  10.968  20.070  0.00  0.00    +0.000 N 
ATOM      7  S   UNL     1       0.843   8.625  21.360  0.00  0.00    +0.000 S 
ATOM      8  C   UNL     1       1.451   7.353  20.391  0.00  0.00    +0.000 A 
ATOM      9  N   UNL     1       1.731   6.092  20.559  0.00  0.00    +0.000 NA
ATOM     10  H   UNL     1       0.400  11.278  20.992  0.00  0.00    +0.000 HD
ENDROOT
BRANCH   1  14
ATOM     11  C   UNL     1       3.695   1.795  18.500  0.00  0.00    +0.000 A 
ATOM     12  C   UNL     1       2.743   2.388  17.673  0.00  0.00    +0.000 A 
ATOM     13  C   UNL     1       2.294   3.683  17.939  0.00  0.00    +0.000 A 
ATOM     14  C   UNL     1       2.786   4.395  19.045  0.00  0.00    +0.000 A 
ATOM     15  C   UNL     1       3.752   3.794  19.858  0.00  0.00    +0.000 A 
ATOM     16  C   UNL     1       4.205   2.500  19.588  0.00  0.00    +0.000 A 
ENDBRANCH   1  14
BRANCH   6  17
ATOM     17  C   UNL     1       0.286  11.807  18.961  0.00  0.00    +0.000 C 
BRANCH  17  18
ATOM     18  C   UNL     1      -1.186  11.658  18.683  0.00  0.00    +0.000 A 
ATOM     19  C   UNL     1      -2.127  12.303  19.502  0.00  0.00    +0.000 A 
ATOM     20  C   UNL     1      -3.494  12.182  19.247  0.00  0.00    +0.000 A 
ATOM     21  C   UNL     1      -3.953  11.416  18.166  0.00  0.00    +0.000 A 
ATOM     22  C   UNL     1      -3.014  10.796  17.330  0.00  0.00    +0.000 A 
ATOM     23  C   UNL     1      -1.642  10.914  17.587  0.00  0.00    +0.000 A 
BRANCH  21  24
ATOM     24  C   UNL     1      -5.431  11.246  17.930  0.00  0.00    +0.000 C 
BRANCH  24  25
ATOM     25  N   UNL     1      -6.146  10.830  19.123  0.00  0.00    +0.000 N 
ATOM     26  C   UNL     1      -6.833   9.658  19.291  0.00  0.00    +0.000 A 
ATOM     27  C   UNL     1      -7.482   9.798  20.496  0.00  0.00    +0.000 A 
ATOM     28  N   UNL     1      -7.201  11.013  21.061  0.00  0.00    +0.000 NA
ATOM     29  C   UNL     1      -6.396  11.612  20.216  0.00  0.00    +0.000 A 
ENDBRANCH  24  25
ENDBRANCH  21  24
ENDBRANCH  17  18
ENDBRANCH   6  17
TORSDOF 5
ENDMDL
MODEL 9
REMARK VINA RESULT:      -7.6      2.628     11.539
REMARK  Name = 
REMARK  5 active torsions:
REMARK  status: ('A' for Active; 'I' for Inactive)
REMARK    1  A    between atoms: C_4  and  C_5
REMARK    2  A    between atoms: N_10  and  C_11
REMARK    3  A    between atoms: C_11  and  C_12
REMARK    4  A    between atoms: C_15  and  C_16
REMARK    5  A    between atoms: C_16  and  N_17
REMARK                            x       y       z     vdW  Elec       q    Type
REMARK                         _______ _______ _______ _____ _____    ______ ____
ROOT
ATOM      1  C   UNL     1       2.444   6.494  18.988  0.00  0.00    +0.000 A 
ATOM      2  C   UNL     1       1.827   6.939  20.150  0.00  0.00    +0.000 A 
ATOM      3  N   UNL     1       1.522   8.237  19.893  0.00  0.00    +0.000 N 
ATOM      4  N   UNL     1       0.905   9.181  20.636  0.00  0.00    +0.000 NA
ATOM      5  C   UNL     1       0.804  10.227  19.866  0.00  0.00    +0.000 A 
ATOM      6  N   UNL     1       0.237  11.417  20.196  0.00  0.00    +0.000 N 
ATOM      7  S   UNL     1       1.472  10.103  18.213  0.00  0.00    +0.000 S 
ATOM      8  C   UNL     1       1.918   8.505  18.627  0.00  0.00    +0.000 A 
ATOM      9  N   UNL     1       2.489   7.500  18.026  0.00  0.00    +0.000 NA
ATOM     10  H   UNL     1       0.159  12.120  19.471  0.00  0.00    +0.000 HD
ENDROOT
BRANCH   1  14
ATOM     11  C   UNL     1       3.937   2.564  18.288  0.00  0.00    +0.000 A 
ATOM     12  C   UNL     1       4.488   3.360  19.291  0.00  0.00    +0.000 A 
ATOM     13  C   UNL     1       3.979   4.639  19.527  0.00  0.00    +0.000 A 
ATOM     14  C   UNL     1       2.921   5.140  18.753  0.00  0.00    +0.000 A 
ATOM     15  C   UNL     1       2.368   4.325  17.759  0.00  0.00    +0.000 A 
ATOM     16  C   UNL     1       2.873   3.043  17.527  0.00  0.00    +0.000 A 
ENDBRANCH   1  14
BRANCH   6  17
ATOM     17  C   UNL     1       0.121  11.884  21.559  0.00  0.00    +0.000 C 
BRANCH  17  18
ATOM     18  C   UNL     1      -1.261  12.424  21.817  0.00  0.00    +0.000 A 
ATOM     19  C   UNL     1      -2.115  12.719  20.743  0.00  0.00    +0.000 A 
ATOM     20  C   UNL     1      -3.402  13.209  20.970  0.00  0.00    +0.000 A 
ATOM     21  C   UNL     1      -3.867  13.412  22.277  0.00  0.00    +0.000 A 
ATOM     22  C   UNL     1      -3.027  13.089  23.351  0.00  0.00    +0.000 A 
ATOM     23  C   UNL     1      -1.734  12.601  23.125  0.00  0.00    +0.000 A 
BRANCH  21  24
ATOM     24  C   UNL     1      -5.237  13.992  22.513  0.00  0.00    +0.000 C 
BRANCH  24  25
ATOM     25  N   UNL     1      -6.253  12.973  22.708  0.00  0.00    +0.000 N 
ATOM     26  C   UNL     1      -6.962  12.335  21.726  0.00  0.00    +0.000 A 
ATOM     27  C   UNL     1      -7.916  11.605  22.397  0.00  0.00    +0.000 A 
ATOM     28  N   UNL     1      -7.797  11.777  23.750  0.00  0.00    +0.000 NA
ATOM     29  C   UNL     1      -6.790  12.602  23.909  0.00  0.00    +0.000 A 
ENDBRANCH  24  25
ENDBRANCH  21  24
ENDBRANCH  17  18
ENDBRANCH   6  17
TORSDOF 5
ENDMDL
