MODEL 1
REMARK VINA RESULT:      -6.0      0.000      0.000
REMARK  Name = 
REMARK  15 active torsions:
REMARK  status: ('A' for Active; 'I' for Inactive)
REMARK    1  A    between atoms: C_1  and  C_2
REMARK    2  A    between atoms: C_2  and  C_3
REMARK    3  A    between atoms: C_3  and  C_4
REMARK    4  A    between atoms: C_4  and  C_5
REMARK    5  A    between atoms: C_5  and  C_6
REMARK    6  A    between atoms: C_6  and  C_7
REMARK    7  A    between atoms: C_7  and  N_8
REMARK    8  A    between atoms: N_8  and  C_9
REMARK    9  A    between atoms: N_8  and  C_11
REMARK   10  A    between atoms: C_9  and  C_10
REMARK   11  A    between atoms: C_11  and  C_12
REMARK   12  A    between atoms: C_12  and  C_13
REMARK   13  A    between atoms: C_13  and  C_14
REMARK   14  A    between atoms: C_14  and  O_15
REMARK   15  A    between atoms: C_14  and  C_16
REMARK                            x       y       z     vdW  Elec       q    Type
REMARK                         _______ _______ _______ _____ _____    ______ ____
ROOT
ATOM      1  C   UNL     1       6.825   6.267  18.246  0.00  0.00    +0.000 C 
ENDROOT
BRANCH   1   2
ATOM      2  C   UNL     1       6.051   5.389  19.248  0.00  0.00    +0.000 C 
BRANCH   2   3
ATOM      3  N   UNL     1       4.734   4.922  18.743  0.00  0.00    +0.000 NA
BRANCH   3   4
ATOM      4  C   UNL     1       3.628   5.769  19.271  0.00  0.00    +0.000 C 
ATOM      5  C   UNL     1       2.962   6.676  18.227  0.00  0.00    +0.000 C 
ENDBRANCH   3   4
BRANCH   3   6
ATOM      6  C   UNL     1       4.541   3.461  18.958  0.00  0.00    +0.000 C 
BRANCH   6   7
ATOM      7  C   UNL     1       3.940   2.707  17.760  0.00  0.00    +0.000 C 
BRANCH   7   8
ATOM      8  C   UNL     1       2.409   2.812  17.689  0.00  0.00    +0.000 C 
BRANCH   8   9
ATOM      9  C   UNL     1       1.794   2.091  18.893  0.00  0.00    +0.000 C 
BRANCH   9  10
ATOM     10  C   UNL     1       0.706   2.924  19.574  0.00  0.00    +0.000 C 
BRANCH  10  12
ATOM     11  C   UNL     1       2.185   2.664  21.606  0.00  0.00    +0.000 C 
ATOM     12  C   UNL     1       1.273   3.605  20.826  0.00  0.00    +0.000 C 
ENDBRANCH  10  12
ENDBRANCH   9  10
ENDBRANCH   8   9
ENDBRANCH   7   8
ENDBRANCH   6   7
ENDBRANCH   3   6
ENDBRANCH   2   3
ENDBRANCH   1   2
BRANCH   1  13
ATOM     13  C   UNL     1       6.296   6.115  16.815  0.00  0.00    +0.000 C 
BRANCH  13  14
ATOM     14  C   UNL     1       7.312   5.371  15.919  0.00  0.00    +0.000 C 
BRANCH  14  15
ATOM     15  C   UNL     1       6.634   4.745  14.718  0.00  0.00    +0.000 A 
ATOM     16  C   UNL     1       5.294   4.327  14.808  0.00  0.00    +0.000 A 
ATOM     17  C   UNL     1       4.660   3.741  13.708  0.00  0.00    +0.000 A 
ATOM     18  C   UNL     1       5.355   3.565  12.508  0.00  0.00    +0.000 A 
ATOM     19 CL   UNL     1       4.557   2.824  11.134  0.00  0.00    +0.000 Cl
ATOM     20  C   UNL     1       6.685   3.981  12.406  0.00  0.00    +0.000 A 
ATOM     21  C   UNL     1       7.322   4.570  13.502  0.00  0.00    +0.000 A 
ENDBRANCH  14  15
BRANCH  14  22
ATOM     22  O   UNL     1       8.022   4.394  16.643  0.00  0.00    +0.000 OA
ATOM     23  H   UNL     1       7.410   3.631  16.815  0.00  0.00    +0.000 HD
ENDBRANCH  14  22
ENDBRANCH  13  14
ENDBRANCH   1  13
TORSDOF 13
ENDMDL
MODEL 2
REMARK VINA RESULT:      -5.9      4.409      6.961
REMARK  Name = 
REMARK  15 active torsions:
REMARK  status: ('A' for Active; 'I' for Inactive)
REMARK    1  A    between atoms: C_1  and  C_2
REMARK    2  A    between atoms: C_2  and  C_3
REMARK    3  A    between atoms: C_3  and  C_4
REMARK    4  A    between atoms: C_4  and  C_5
REMARK    5  A    between atoms: C_5  and  C_6
REMARK    6  A    between atoms: C_6  and  C_7
REMARK    7  A    between atoms: C_7  and  N_8
REMARK    8  A    between atoms: N_8  and  C_9
REMARK    9  A    between atoms: N_8  and  C_11
REMARK   10  A    between atoms: C_9  and  C_10
REMARK   11  A    between atoms: C_11  and  C_12
REMARK   12  A    between atoms: C_12  and  C_13
REMARK   13  A    between atoms: C_13  and  C_14
REMARK   14  A    between atoms: C_14  and  O_15
REMARK   15  A    between atoms: C_14  and  C_16
REMARK                            x       y       z     vdW  Elec       q    Type
REMARK                         _______ _______ _______ _____ _____    ______ ____
ROOT
ATOM      1  C   UNL     1       3.893   6.631  17.586  0.00  0.00    +0.000 C 
ENDROOT
BRANCH   1   2
ATOM      2  C   UNL     1       4.969   5.920  18.429  0.00  0.00    +0.000 C 
BRANCH   2   3
ATOM      3  N   UNL     1       5.413   4.620  17.861  0.00  0.00    +0.000 NA
BRANCH   3   4
ATOM      4  C   UNL     1       6.763   4.740  17.244  0.00  0.00    +0.000 C 
ATOM      5  C   UNL     1       6.767   4.756  15.709  0.00  0.00    +0.000 C 
ENDBRANCH   3   4
BRANCH   3   6
ATOM      6  C   UNL     1       4.383   4.022  16.967  0.00  0.00    +0.000 C 
BRANCH   6   7
ATOM      7  C   UNL     1       3.507   2.942  17.624  0.00  0.00    +0.000 C 
BRANCH   7   8
ATOM      8  C   UNL     1       2.025   3.338  17.707  0.00  0.00    +0.000 C 
BRANCH   8   9
ATOM      9  C   UNL     1       1.292   2.369  18.640  0.00  0.00    +0.000 C 
BRANCH   9  10
ATOM     10  C   UNL     1       0.684   3.078  19.853  0.00  0.00    +0.000 C 
BRANCH  10  12
ATOM     11  C   UNL     1       2.253   4.571  21.152  0.00  0.00    +0.000 C 
ATOM     12  C   UNL     1       1.715   3.154  20.986  0.00  0.00    +0.000 C 
ENDBRANCH  10  12
ENDBRANCH   9  10
ENDBRANCH   8   9
ENDBRANCH   7   8
ENDBRANCH   6   7
ENDBRANCH   3   6
ENDBRANCH   2   3
ENDBRANCH   1   2
BRANCH   1  13
ATOM     13  C   UNL     1       2.646   6.975  18.410  0.00  0.00    +0.000 C 
BRANCH  13  14
ATOM     14  C   UNL     1       2.375   8.496  18.405  0.00  0.00    +0.000 C 
BRANCH  14  15
ATOM     15  C   UNL     1       1.540   8.911  19.599  0.00  0.00    +0.000 A 
ATOM     16  C   UNL     1       0.833  10.127  19.572  0.00  0.00    +0.000 A 
ATOM     17  C   UNL     1       0.064  10.524  20.670  0.00  0.00    +0.000 A 
ATOM     18  C   UNL     1      -0.006   9.714  21.807  0.00  0.00    +0.000 A 
ATOM     19 CL   UNL     1      -0.965  10.220  23.185  0.00  0.00    +0.000 Cl
ATOM     20  C   UNL     1       0.689   8.502  21.844  0.00  0.00    +0.000 A 
ATOM     21  C   UNL     1       1.456   8.099  20.747  0.00  0.00    +0.000 A 
ENDBRANCH  14  15
BRANCH  14  22
ATOM     22  O   UNL     1       1.756   8.908  17.210  0.00  0.00    +0.000 OA
ATOM     23  H   UNL     1       1.547   9.876  17.287  0.00  0.00    +0.000 HD
ENDBRANCH  14  22
ENDBRANCH  13  14
ENDBRANCH   1  13
TORSDOF 13
ENDMDL
MODEL 3
REMARK VINA RESULT:      -5.8      3.281      7.167
REMARK  Name = 
REMARK  15 active torsions:
REMARK  status: ('A' for Active; 'I' for Inactive)
REMARK    1  A    between atoms: C_1  and  C_2
REMARK    2  A    between atoms: C_2  and  C_3
REMARK    3  A    between atoms: C_3  and  C_4
REMARK    4  A    between atoms: C_4  and  C_5
REMARK    5  A    between atoms: C_5  and  C_6
REMARK    6  A    between atoms: C_6  and  C_7
REMARK    7  A    between atoms: C_7  and  N_8
REMARK    8  A    between atoms: N_8  and  C_9
REMARK    9  A    between atoms: N_8  and  C_11
REMARK   10  A    between atoms: C_9  and  C_10
REMARK   11  A    between atoms: C_11  and  C_12
REMARK   12  A    between atoms: C_12  and  C_13
REMARK   13  A    between atoms: C_13  and  C_14
REMARK   14  A    between atoms: C_14  and  O_15
REMARK   15  A    between atoms: C_14  and  C_16
REMARK                            x       y       z     vdW  Elec       q    Type
REMARK                         _______ _______ _______ _____ _____    ______ ____
ROOT
ATOM      1  C   UNL     1       4.499   3.331  17.120  0.00  0.00    +0.000 C 
ENDROOT
BRANCH   1   2
ATOM      2  C   UNL     1       5.401   4.384  17.790  0.00  0.00    +0.000 C 
BRANCH   2   3
ATOM      3  N   UNL     1       6.582   4.769  16.974  0.00  0.00    +0.000 NA
BRANCH   3   4
ATOM      4  C   UNL     1       7.602   5.466  17.806  0.00  0.00    +0.000 C 
ATOM      5  C   UNL     1       7.501   6.998  17.793  0.00  0.00    +0.000 C 
ENDBRANCH   3   4
BRANCH   3   6
ATOM      6  C   UNL     1       6.191   5.507  15.741  0.00  0.00    +0.000 C 
BRANCH   6   7
ATOM      7  C   UNL     1       6.791   4.949  14.439  0.00  0.00    +0.000 C 
BRANCH   7   8
ATOM      8  C   UNL     1       5.965   3.800  13.839  0.00  0.00    +0.000 C 
BRANCH   8   9
ATOM      9  C   UNL     1       6.437   3.530  12.407  0.00  0.00    +0.000 C 
BRANCH   9  10
ATOM     10  C   UNL     1       5.412   2.731  11.599  0.00  0.00    +0.000 C 
BRANCH  10  12
ATOM     11  C   UNL     1       3.420   3.524  10.263  0.00  0.00    +0.000 C 
ATOM     12  C   UNL     1       4.046   3.427  11.650  0.00  0.00    +0.000 C 
ENDBRANCH  10  12
ENDBRANCH   9  10
ENDBRANCH   8   9
ENDBRANCH   7   8
ENDBRANCH   6   7
ENDBRANCH   3   6
ENDBRANCH   2   3
ENDBRANCH   1   2
BRANCH   1  13
ATOM     13  C   UNL     1       3.057   3.823  16.955  0.00  0.00    +0.000 C 
BRANCH  13  14
ATOM     14  C   UNL     1       2.241   3.612  18.250  0.00  0.00    +0.000 C 
BRANCH  14  15
ATOM     15  C   UNL     1       2.057   4.913  19.005  0.00  0.00    +0.000 A 
ATOM     16  C   UNL     1       2.461   6.126  18.420  0.00  0.00    +0.000 A 
ATOM     17  C   UNL     1       2.302   7.332  19.109  0.00  0.00    +0.000 A 
ATOM     18  C   UNL     1       1.741   7.340  20.389  0.00  0.00    +0.000 A 
ATOM     19 CL   UNL     1       1.551   8.854  21.253  0.00  0.00    +0.000 Cl
ATOM     20  C   UNL     1       1.332   6.141  20.979  0.00  0.00    +0.000 A 
ATOM     21  C   UNL     1       1.485   4.933  20.291  0.00  0.00    +0.000 A 
ENDBRANCH  14  15
BRANCH  14  22
ATOM     22  O   UNL     1       2.835   2.645  19.083  0.00  0.00    +0.000 OA
ATOM     23  H   UNL     1       2.969   3.049  19.981  0.00  0.00    +0.000 HD
ENDBRANCH  14  22
ENDBRANCH  13  14
ENDBRANCH   1  13
TORSDOF 13
ENDMDL
MODEL 4
REMARK VINA RESULT:      -5.7      3.762      6.159
REMARK  Name = 
REMARK  15 active torsions:
REMARK  status: ('A' for Active; 'I' for Inactive)
REMARK    1  A    between atoms: C_1  and  C_2
REMARK    2  A    between atoms: C_2  and  C_3
REMARK    3  A    between atoms: C_3  and  C_4
REMARK    4  A    between atoms: C_4  and  C_5
REMARK    5  A    between atoms: C_5  and  C_6
REMARK    6  A    between atoms: C_6  and  C_7
REMARK    7  A    between atoms: C_7  and  N_8
REMARK    8  A    between atoms: N_8  and  C_9
REMARK    9  A    between atoms: N_8  and  C_11
REMARK   10  A    between atoms: C_9  and  C_10
REMARK   11  A    between atoms: C_11  and  C_12
REMARK   12  A    between atoms: C_12  and  C_13
REMARK   13  A    between atoms: C_13  and  C_14
REMARK   14  A    between atoms: C_14  and  O_15
REMARK   15  A    between atoms: C_14  and  C_16
REMARK                            x       y       z     vdW  Elec       q    Type
REMARK                         _______ _______ _______ _____ _____    ______ ____
ROOT
ATOM      1  C   UNL     1       5.134   6.488  18.026  0.00  0.00    +0.000 C 
ENDROOT
BRANCH   1   2
ATOM      2  C   UNL     1       5.874   5.795  16.866  0.00  0.00    +0.000 C 
BRANCH   2   3
ATOM      3  N   UNL     1       5.958   4.318  17.007  0.00  0.00    +0.000 NA
BRANCH   3   4
ATOM      4  C   UNL     1       5.878   3.651  15.677  0.00  0.00    +0.000 C 
ATOM      5  C   UNL     1       5.585   4.595  14.503  0.00  0.00    +0.000 C 
ENDBRANCH   3   4
BRANCH   3   6
ATOM      6  C   UNL     1       4.990   3.798  18.011  0.00  0.00    +0.000 C 
BRANCH   6   7
ATOM      7  C   UNL     1       3.934   2.832  17.449  0.00  0.00    +0.000 C 
BRANCH   7   8
ATOM      8  C   UNL     1       2.495   3.331  17.648  0.00  0.00    +0.000 C 
BRANCH   8   9
ATOM      9  C   UNL     1       1.848   2.565  18.806  0.00  0.00    +0.000 C 
BRANCH   9  10
ATOM     10  C   UNL     1       0.845   3.423  19.581  0.00  0.00    +0.000 C 
BRANCH  10  12
ATOM     11  C   UNL     1       2.517   2.718  21.337  0.00  0.00    +0.000 C 
ATOM     12  C   UNL     1       1.320   3.608  21.027  0.00  0.00    +0.000 C 
ENDBRANCH  10  12
ENDBRANCH   9  10
ENDBRANCH   8   9
ENDBRANCH   7   8
ENDBRANCH   6   7
ENDBRANCH   3   6
ENDBRANCH   2   3
ENDBRANCH   1   2
BRANCH   1  13
ATOM     13  C   UNL     1       3.731   6.957  17.620  0.00  0.00    +0.000 C 
BRANCH  13  14
ATOM     14  C   UNL     1       2.712   6.720  18.756  0.00  0.00    +0.000 C 
BRANCH  14  15
ATOM     15  C   UNL     1       1.975   7.996  19.112  0.00  0.00    +0.000 A 
ATOM     16  C   UNL     1       1.515   8.198  20.425  0.00  0.00    +0.000 A 
ATOM     17  C   UNL     1       0.828   9.367  20.763  0.00  0.00    +0.000 A 
ATOM     18  C   UNL     1       0.591  10.347  19.795  0.00  0.00    +0.000 A 
ATOM     19 CL   UNL     1      -0.278  11.809  20.221  0.00  0.00    +0.000 Cl
ATOM     20  C   UNL     1       1.048  10.159  18.487  0.00  0.00    +0.000 A 
ATOM     21  C   UNL     1       1.738   8.993  18.146  0.00  0.00    +0.000 A 
ENDBRANCH  14  15
BRANCH  14  22
ATOM     22  O   UNL     1       3.328   6.178  19.901  0.00  0.00    +0.000 OA
ATOM     23  H   UNL     1       3.501   5.215  19.733  0.00  0.00    +0.000 HD
ENDBRANCH  14  22
ENDBRANCH  13  14
ENDBRANCH   1  13
TORSDOF 13
ENDMDL
MODEL 5
REMARK VINA RESULT:      -5.7      3.482      7.343
REMARK  Name = 
REMARK  15 active torsions:
REMARK  status: ('A' for Active; 'I' for Inactive)
REMARK    1  A    between atoms: C_1  and  C_2
REMARK    2  A    between atoms: C_2  and  C_3
REMARK    3  A    between atoms: C_3  and  C_4
REMARK    4  A    between atoms: C_4  and  C_5
REMARK    5  A    between atoms: C_5  and  C_6
REMARK    6  A    between atoms: C_6  and  C_7
REMARK    7  A    between atoms: C_7  and  N_8
REMARK    8  A    between atoms: N_8  and  C_9
REMARK    9  A    between atoms: N_8  and  C_11
REMARK   10  A    between atoms: C_9  and  C_10
REMARK   11  A    between atoms: C_11  and  C_12
REMARK   12  A    between atoms: C_12  and  C_13
REMARK   13  A    between atoms: C_13  and  C_14
REMARK   14  A    between atoms: C_14  and  O_15
REMARK   15  A    between atoms: C_14  and  C_16
REMARK                            x       y       z     vdW  Elec       q    Type
REMARK                         _______ _______ _______ _____ _____    ______ ____
ROOT
ATOM      1  C   UNL     1       4.206   5.203  17.415  0.00  0.00    +0.000 C 
ENDROOT
BRANCH   1   2
ATOM      2  C   UNL     1       5.050   3.977  17.018  0.00  0.00    +0.000 C 
BRANCH   2   3
ATOM      3  N   UNL     1       6.454   4.307  16.657  0.00  0.00    +0.000 NA
BRANCH   3   4
ATOM      4  C   UNL     1       7.255   4.631  17.871  0.00  0.00    +0.000 C 
ATOM      5  C   UNL     1       7.576   6.122  18.047  0.00  0.00    +0.000 C 
ENDBRANCH   3   4
BRANCH   3   6
ATOM      6  C   UNL     1       6.526   5.338  15.585  0.00  0.00    +0.000 C 
BRANCH   6   7
ATOM      7  C   UNL     1       6.978   4.810  14.213  0.00  0.00    +0.000 C 
BRANCH   7   8
ATOM      8  C   UNL     1       5.985   3.814  13.594  0.00  0.00    +0.000 C 
BRANCH   8   9
ATOM      9  C   UNL     1       6.421   3.487  12.162  0.00  0.00    +0.000 C 
BRANCH   9  10
ATOM     10  C   UNL     1       5.667   2.287  11.586  0.00  0.00    +0.000 C 
BRANCH  10  12
ATOM     11  C   UNL     1       6.171  -0.175  11.329  0.00  0.00    +0.000 C 
ATOM     12  C   UNL     1       6.662   1.243  11.063  0.00  0.00    +0.000 C 
ENDBRANCH  10  12
ENDBRANCH   9  10
ENDBRANCH   8   9
ENDBRANCH   7   8
ENDBRANCH   6   7
ENDBRANCH   3   6
ENDBRANCH   2   3
ENDBRANCH   1   2
BRANCH   1  13
ATOM     13  C   UNL     1       2.955   4.811  18.211  0.00  0.00    +0.000 C 
BRANCH  13  14
ATOM     14  C   UNL     1       2.875   5.587  19.545  0.00  0.00    +0.000 C 
BRANCH  14  15
ATOM     15  C   UNL     1       2.309   6.978  19.341  0.00  0.00    +0.000 A 
ATOM     16  C   UNL     1       1.794   7.693  20.437  0.00  0.00    +0.000 A 
ATOM     17  C   UNL     1       1.262   8.974  20.260  0.00  0.00    +0.000 A 
ATOM     18  C   UNL     1       1.237   9.555  18.989  0.00  0.00    +0.000 A 
ATOM     19 CL   UNL     1       0.563  11.159  18.771  0.00  0.00    +0.000 Cl
ATOM     20  C   UNL     1       1.751   8.855  17.893  0.00  0.00    +0.000 A 
ATOM     21  C   UNL     1       2.286   7.575  18.066  0.00  0.00    +0.000 A 
ENDBRANCH  14  15
BRANCH  14  22
ATOM     22  O   UNL     1       4.130   5.660  20.178  0.00  0.00    +0.000 OA
ATOM     23  H   UNL     1       4.634   4.831  19.964  0.00  0.00    +0.000 HD
ENDBRANCH  14  22
ENDBRANCH  13  14
ENDBRANCH   1  13
TORSDOF 13
ENDMDL
MODEL 6
REMARK VINA RESULT:      -5.7      1.187      2.142
REMARK  Name = 
REMARK  15 active torsions:
REMARK  status: ('A' for Active; 'I' for Inactive)
REMARK    1  A    between atoms: C_1  and  C_2
REMARK    2  A    between atoms: C_2  and  C_3
REMARK    3  A    between atoms: C_3  and  C_4
REMARK    4  A    between atoms: C_4  and  C_5
REMARK    5  A    between atoms: C_5  and  C_6
REMARK    6  A    between atoms: C_6  and  C_7
REMARK    7  A    between atoms: C_7  and  N_8
REMARK    8  A    between atoms: N_8  and  C_9
REMARK    9  A    between atoms: N_8  and  C_11
REMARK   10  A    between atoms: C_9  and  C_10
REMARK   11  A    between atoms: C_11  and  C_12
REMARK   12  A    between atoms: C_12  and  C_13
REMARK   13  A    between atoms: C_13  and  C_14
REMARK   14  A    between atoms: C_14  and  O_15
REMARK   15  A    between atoms: C_14  and  C_16
REMARK                            x       y       z     vdW  Elec       q    Type
REMARK                         _______ _______ _______ _____ _____    ______ ____
ROOT
ATOM      1  C   UNL     1       5.849   4.521  18.479  0.00  0.00    +0.000 C 
ENDROOT
BRANCH   1   2
ATOM      2  C   UNL     1       4.993   5.460  19.350  0.00  0.00    +0.000 C 
BRANCH   2   3
ATOM      3  N   UNL     1       3.542   5.412  19.034  0.00  0.00    +0.000 NA
BRANCH   3   4
ATOM      4  C   UNL     1       3.214   6.312  17.892  0.00  0.00    +0.000 C 
ATOM      5  C   UNL     1       2.469   7.596  18.282  0.00  0.00    +0.000 C 
ENDBRANCH   3   4
BRANCH   3   6
ATOM      6  C   UNL     1       2.700   5.629  20.243  0.00  0.00    +0.000 C 
BRANCH   6   7
ATOM      7  C   UNL     1       2.016   4.364  20.788  0.00  0.00    +0.000 C 
BRANCH   7   8
ATOM      8  C   UNL     1       0.836   3.898  19.921  0.00  0.00    +0.000 C 
BRANCH   8   9
ATOM      9  C   UNL     1       1.144   2.510  19.349  0.00  0.00    +0.000 C 
BRANCH   9  10
ATOM     10  C   UNL     1       2.570   2.055  19.667  0.00  0.00    +0.000 C 
BRANCH  10  12
ATOM     11  C   UNL     1       2.772   2.613  17.212  0.00  0.00    +0.000 C 
ATOM     12  C   UNL     1       3.341   1.795  18.366  0.00  0.00    +0.000 C 
ENDBRANCH  10  12
ENDBRANCH   9  10
ENDBRANCH   8   9
ENDBRANCH   7   8
ENDBRANCH   6   7
ENDBRANCH   3   6
ENDBRANCH   2   3
ENDBRANCH   1   2
BRANCH   1  13
ATOM     13  C   UNL     1       7.105   5.217  17.940  0.00  0.00    +0.000 C 
BRANCH  13  14
ATOM     14  C   UNL     1       6.772   6.109  16.723  0.00  0.00    +0.000 C 
BRANCH  14  15
ATOM     15  C   UNL     1       6.509   5.276  15.485  0.00  0.00    +0.000 A 
ATOM     16  C   UNL     1       5.311   4.548  15.371  0.00  0.00    +0.000 A 
ATOM     17  C   UNL     1       5.059   3.771  14.236  0.00  0.00    +0.000 A 
ATOM     18  C   UNL     1       6.000   3.711  13.204  0.00  0.00    +0.000 A 
ATOM     19 CL   UNL     1       5.683   2.729  11.786  0.00  0.00    +0.000 Cl
ATOM     20  C   UNL     1       7.192   4.434  13.304  0.00  0.00    +0.000 A 
ATOM     21  C   UNL     1       7.446   5.215  14.436  0.00  0.00    +0.000 A 
ENDBRANCH  14  15
BRANCH  14  22
ATOM     22  O   UNL     1       7.794   7.045  16.473  0.00  0.00    +0.000 OA
ATOM     23  H   UNL     1       7.530   7.909  16.886  0.00  0.00    +0.000 HD
ENDBRANCH  14  22
ENDBRANCH  13  14
ENDBRANCH   1  13
TORSDOF 13
ENDMDL
MODEL 7
REMARK VINA RESULT:      -5.7      4.054      6.625
REMARK  Name = 
REMARK  15 active torsions:
REMARK  status: ('A' for Active; 'I' for Inactive)
REMARK    1  A    between atoms: C_1  and  C_2
REMARK    2  A    between atoms: C_2  and  C_3
REMARK    3  A    between atoms: C_3  and  C_4
REMARK    4  A    between atoms: C_4  and  C_5
REMARK    5  A    between atoms: C_5  and  C_6
REMARK    6  A    between atoms: C_6  and  C_7
REMARK    7  A    between atoms: C_7  and  N_8
REMARK    8  A    between atoms: N_8  and  C_9
REMARK    9  A    between atoms: N_8  and  C_11
REMARK   10  A    between atoms: C_9  and  C_10
REMARK   11  A    between atoms: C_11  and  C_12
REMARK   12  A    between atoms: C_12  and  C_13
REMARK   13  A    between atoms: C_13  and  C_14
REMARK   14  A    between atoms: C_14  and  O_15
REMARK   15  A    between atoms: C_14  and  C_16
REMARK                            x       y       z     vdW  Elec       q    Type
REMARK                         _______ _______ _______ _____ _____    ______ ____
ROOT
ATOM      1  C   UNL     1       4.125   6.688  17.000  0.00  0.00    +0.000 C 
ENDROOT
BRANCH   1   2
ATOM      2  C   UNL     1       5.404   6.006  17.523  0.00  0.00    +0.000 C 
BRANCH   2   3
ATOM      3  N   UNL     1       5.477   4.554  17.214  0.00  0.00    +0.000 NA
BRANCH   3   4
ATOM      4  C   UNL     1       5.261   4.306  15.761  0.00  0.00    +0.000 C 
ATOM      5  C   UNL     1       6.546   4.237  14.925  0.00  0.00    +0.000 C 
ENDBRANCH   3   4
BRANCH   3   6
ATOM      6  C   UNL     1       4.600   3.749  18.108  0.00  0.00    +0.000 C 
BRANCH   6   7
ATOM      7  C   UNL     1       3.225   3.399  17.517  0.00  0.00    +0.000 C 
BRANCH   7   8
ATOM      8  C   UNL     1       2.772   1.969  17.851  0.00  0.00    +0.000 C 
BRANCH   8   9
ATOM      9  C   UNL     1       2.052   1.967  19.203  0.00  0.00    +0.000 C 
BRANCH   9  10
ATOM     10  C   UNL     1       0.880   2.950  19.238  0.00  0.00    +0.000 C 
BRANCH  10  12
ATOM     11  C   UNL     1       1.825   3.173  21.570  0.00  0.00    +0.000 C 
ATOM     12  C   UNL     1       0.970   3.829  20.492  0.00  0.00    +0.000 C 
ENDBRANCH  10  12
ENDBRANCH   9  10
ENDBRANCH   8   9
ENDBRANCH   7   8
ENDBRANCH   6   7
ENDBRANCH   3   6
ENDBRANCH   2   3
ENDBRANCH   1   2
BRANCH   1  13
ATOM     13  C   UNL     1       3.564   7.708  17.998  0.00  0.00    +0.000 C 
BRANCH  13  14
ATOM     14  C   UNL     1       2.576   7.043  18.982  0.00  0.00    +0.000 C 
BRANCH  14  15
ATOM     15  C   UNL     1       1.722   8.076  19.690  0.00  0.00    +0.000 A 
ATOM     16  C   UNL     1       1.304   9.230  19.003  0.00  0.00    +0.000 A 
ATOM     17  C   UNL     1       0.522  10.194  19.647  0.00  0.00    +0.000 A 
ATOM     18  C   UNL     1       0.150  10.017  20.982  0.00  0.00    +0.000 A 
ATOM     19 CL   UNL     1      -0.825  11.232  21.788  0.00  0.00    +0.000 Cl
ATOM     20  C   UNL     1       0.555   8.872  21.674  0.00  0.00    +0.000 A 
ATOM     21  C   UNL     1       1.334   7.904  21.032  0.00  0.00    +0.000 A 
ENDBRANCH  14  15
BRANCH  14  22
ATOM     22  O   UNL     1       3.245   6.238  19.923  0.00  0.00    +0.000 OA
ATOM     23  H   UNL     1       4.223   6.367  19.802  0.00  0.00    +0.000 HD
ENDBRANCH  14  22
ENDBRANCH  13  14
ENDBRANCH   1  13
TORSDOF 13
ENDMDL
MODEL 8
REMARK VINA RESULT:      -5.7      3.959      6.422
REMARK  Name = 
REMARK  15 active torsions:
REMARK  status: ('A' for Active; 'I' for Inactive)
REMARK    1  A    between atoms: C_1  and  C_2
REMARK    2  A    between atoms: C_2  and  C_3
REMARK    3  A    between atoms: C_3  and  C_4
REMARK    4  A    between atoms: C_4  and  C_5
REMARK    5  A    between atoms: C_5  and  C_6
REMARK    6  A    between atoms: C_6  and  C_7
REMARK    7  A    between atoms: C_7  and  N_8
REMARK    8  A    between atoms: N_8  and  C_9
REMARK    9  A    between atoms: N_8  and  C_11
REMARK   10  A    between atoms: C_9  and  C_10
REMARK   11  A    between atoms: C_11  and  C_12
REMARK   12  A    between atoms: C_12  and  C_13
REMARK   13  A    between atoms: C_13  and  C_14
REMARK   14  A    between atoms: C_14  and  O_15
REMARK   15  A    between atoms: C_14  and  C_16
REMARK                            x       y       z     vdW  Elec       q    Type
REMARK                         _______ _______ _______ _____ _____    ______ ____
ROOT
ATOM      1  C   UNL     1       4.491   5.967  18.441  0.00  0.00    +0.000 C 
ENDROOT
BRANCH   1   2
ATOM      2  C   UNL     1       5.368   5.504  17.263  0.00  0.00    +0.000 C 
BRANCH   2   3
ATOM      3  N   UNL     1       5.244   4.055  16.957  0.00  0.00    +0.000 NA
BRANCH   3   4
ATOM      4  C   UNL     1       5.950   3.715  15.690  0.00  0.00    +0.000 C 
ATOM      5  C   UNL     1       5.685   4.685  14.529  0.00  0.00    +0.000 C 
ENDBRANCH   3   4
BRANCH   3   6
ATOM      6  C   UNL     1       3.830   3.593  17.012  0.00  0.00    +0.000 C 
BRANCH   6   7
ATOM      7  C   UNL     1       3.611   2.280  17.782  0.00  0.00    +0.000 C 
BRANCH   7   8
ATOM      8  C   UNL     1       2.168   2.109  18.283  0.00  0.00    +0.000 C 
BRANCH   8   9
ATOM      9  C   UNL     1       1.490   3.481  18.354  0.00  0.00    +0.000 C 
BRANCH   9  10
ATOM     10  C   UNL     1       0.811   3.723  19.704  0.00  0.00    +0.000 C 
BRANCH  10  12
ATOM     11  C   UNL     1       2.209   3.361  21.776  0.00  0.00    +0.000 C 
ATOM     12  C   UNL     1       1.312   2.703  20.734  0.00  0.00    +0.000 C 
ENDBRANCH  10  12
ENDBRANCH   9  10
ENDBRANCH   8   9
ENDBRANCH   7   8
ENDBRANCH   6   7
ENDBRANCH   3   6
ENDBRANCH   2   3
ENDBRANCH   1   2
BRANCH   1  13
ATOM     13  C   UNL     1       3.414   6.967  18.004  0.00  0.00    +0.000 C 
BRANCH  13  14
ATOM     14  C   UNL     1       2.287   7.073  19.056  0.00  0.00    +0.000 C 
BRANCH  14  15
ATOM     15  C   UNL     1       1.770   8.493  19.171  0.00  0.00    +0.000 A 
ATOM     16  C   UNL     1       1.962   9.397  18.111  0.00  0.00    +0.000 A 
ATOM     17  C   UNL     1       1.496  10.712  18.209  0.00  0.00    +0.000 A 
ATOM     18  C   UNL     1       0.836  11.138  19.364  0.00  0.00    +0.000 A 
ATOM     19 CL   UNL     1       0.260  12.790  19.485  0.00  0.00    +0.000 Cl
ATOM     20  C   UNL     1       0.636  10.247  20.422  0.00  0.00    +0.000 A 
ATOM     21  C   UNL     1       1.097   8.931  20.327  0.00  0.00    +0.000 A 
ENDBRANCH  14  15
BRANCH  14  22
ATOM     22  O   UNL     1       2.709   6.604  20.315  0.00  0.00    +0.000 OA
ATOM     23  H   UNL     1       2.817   7.387  20.917  0.00  0.00    +0.000 HD
ENDBRANCH  14  22
ENDBRANCH  13  14
ENDBRANCH   1  13
TORSDOF 13
ENDMDL
MODEL 9
REMARK VINA RESULT:      -5.6      3.812      7.458
REMARK  Name = 
REMARK  15 active torsions:
REMARK  status: ('A' for Active; 'I' for Inactive)
REMARK    1  A    between atoms: C_1  and  C_2
REMARK    2  A    between atoms: C_2  and  C_3
REMARK    3  A    between atoms: C_3  and  C_4
REMARK    4  A    between atoms: C_4  and  C_5
REMARK    5  A    between atoms: C_5  and  C_6
REMARK    6  A    between atoms: C_6  and  C_7
REMARK    7  A    between atoms: C_7  and  N_8
REMARK    8  A    between atoms: N_8  and  C_9
REMARK    9  A    between atoms: N_8  and  C_11
REMARK   10  A    between atoms: C_9  and  C_10
REMARK   11  A    between atoms: C_11  and  C_12
REMARK   12  A    between atoms: C_12  and  C_13
REMARK   13  A    between atoms: C_13  and  C_14
REMARK   14  A    between atoms: C_14  and  O_15
REMARK   15  A    between atoms: C_14  and  C_16
REMARK                            x       y       z     vdW  Elec       q    Type
REMARK                         _______ _______ _______ _____ _____    ______ ____
ROOT
ATOM      1  C   UNL     1       5.595   4.517  19.069  0.00  0.00    +0.000 C 
ENDROOT
BRANCH   1   2
ATOM      2  C   UNL     1       6.770   4.870  18.136  0.00  0.00    +0.000 C 
BRANCH   2   3
ATOM      3  N   UNL     1       6.349   5.479  16.848  0.00  0.00    +0.000 NA
BRANCH   3   4
ATOM      4  C   UNL     1       6.988   4.784  15.695  0.00  0.00    +0.000 C 
ATOM      5  C   UNL     1       6.023   3.968  14.824  0.00  0.00    +0.000 C 
ENDBRANCH   3   4
BRANCH   3   6
ATOM      6  C   UNL     1       6.528   6.957  16.845  0.00  0.00    +0.000 C 
BRANCH   6   7
ATOM      7  C   UNL     1       7.620   7.476  17.796  0.00  0.00    +0.000 C 
BRANCH   7   8
ATOM      8  C   UNL     1       7.768   9.005  17.765  0.00  0.00    +0.000 C 
BRANCH   8   9
ATOM      9  C   UNL     1       8.900   9.424  18.709  0.00  0.00    +0.000 C 
BRANCH   9  10
ATOM     10  C   UNL     1       9.580  10.720  18.261  0.00  0.00    +0.000 C 
BRANCH  10  12
ATOM     11  C   UNL     1       9.405  11.085  20.754  0.00  0.00    +0.000 C 
ATOM     12  C   UNL     1      10.146  11.464  19.477  0.00  0.00    +0.000 C 
ENDBRANCH  10  12
ENDBRANCH   9  10
ENDBRANCH   8   9
ENDBRANCH   7   8
ENDBRANCH   6   7
ENDBRANCH   3   6
ENDBRANCH   2   3
ENDBRANCH   1   2
BRANCH   1  13
ATOM     13  C   UNL     1       4.412   3.909  18.306  0.00  0.00    +0.000 C 
BRANCH  13  14
ATOM     14  C   UNL     1       3.080   4.157  19.049  0.00  0.00    +0.000 C 
BRANCH  14  15
ATOM     15  C   UNL     1       2.691   5.621  19.011  0.00  0.00    +0.000 A 
ATOM     16  C   UNL     1       2.199   6.246  20.170  0.00  0.00    +0.000 A 
ATOM     17  C   UNL     1       1.830   7.594  20.145  0.00  0.00    +0.000 A 
ATOM     18  C   UNL     1       1.945   8.332  18.964  0.00  0.00    +0.000 A 
ATOM     19 CL   UNL     1       1.473  10.021  18.936  0.00  0.00    +0.000 Cl
ATOM     20  C   UNL     1       2.436   7.722  17.806  0.00  0.00    +0.000 A 
ATOM     21  C   UNL     1       2.810   6.375  17.828  0.00  0.00    +0.000 A 
ENDBRANCH  14  15
BRANCH  14  22
ATOM     22  O   UNL     1       3.138   3.702  20.380  0.00  0.00    +0.000 OA
ATOM     23  H   UNL     1       2.909   2.736  20.388  0.00  0.00    +0.000 HD
ENDBRANCH  14  22
ENDBRANCH  13  14
ENDBRANCH   1  13
TORSDOF 13
ENDMDL
