MODEL 1
REMARK VINA RESULT:      -7.3      0.000      0.000
REMARK  Name = 
REMARK  8 active torsions:
REMARK  status: ('A' for Active; 'I' for Inactive)
REMARK    1  A    between atoms: C_1  and  O_2
REMARK    2  A    between atoms: O_2  and  C_3
REMARK    3  A    between atoms: C_5  and  O_6
REMARK    4  A    between atoms: C_8  and  O_9
REMARK    5  A    between atoms: C_10  and  C_11
REMARK    6  A    between atoms: C_11  and  C_13
REMARK    7  A    between atoms: C_14  and  C_15
REMARK    8  A    between atoms: C_18  and  C_19
REMARK                            x       y       z     vdW  Elec       q    Type
REMARK                         _______ _______ _______ _____ _____    ______ ____
ROOT
ATOM      1  C   UNL     1       6.207   5.013  18.559  0.00  0.00    +0.000 A 
ATOM      2  C   UNL     1       7.096   5.151  17.472  0.00  0.00    +0.000 A 
ATOM      3  C   UNL     1       6.744   4.673  16.215  0.00  0.00    +0.000 A 
ATOM      4  C   UNL     1       5.532   4.034  16.019  0.00  0.00    +0.000 A 
ATOM      5  C   UNL     1       4.635   3.911  17.088  0.00  0.00    +0.000 A 
ATOM      6  C   UNL     1       4.938   4.428  18.371  0.00  0.00    +0.000 A 
ENDROOT
BRANCH   1   8
ATOM      7  C   UNL     1       8.140   5.693  19.765  0.00  0.00    +0.000 C 
ATOM      8  O   UNL     1       6.782   5.263  19.780  0.00  0.00    +0.000 OA
ENDBRANCH   1   8
BRANCH   3   9
ATOM      9  O   UNL     1       7.585   4.763  15.144  0.00  0.00    +0.000 OA
ATOM     10  H   UNL     1       8.415   5.187  15.419  0.00  0.00    +0.000 HD
ENDBRANCH   3   9
BRANCH   5  11
ATOM     11  O   UNL     1       3.489   3.194  16.884  0.00  0.00    +0.000 OA
ATOM     12  H   UNL     1       3.675   2.425  16.324  0.00  0.00    +0.000 HD
ENDBRANCH   5  11
BRANCH   6  13
ATOM     13  C   UNL     1       3.869   4.357  19.417  0.00  0.00    +0.000 C 
ATOM     14  O   UNL     1       3.631   3.304  19.999  0.00  0.00    +0.000 OA
BRANCH  13  15
ATOM     15  C   UNL     1       3.073   5.577  19.715  0.00  0.00    +0.000 C 
ATOM     16  C   UNL     1       2.886   6.546  18.800  0.00  0.00    +0.000 C 
BRANCH  16  17
ATOM     17  C   UNL     1       2.134   7.784  19.081  0.00  0.00    +0.000 A 
ATOM     18  C   UNL     1       1.874   8.717  18.064  0.00  0.00    +0.000 A 
ATOM     19  C   UNL     1       1.149   9.889  18.334  0.00  0.00    +0.000 A 
ATOM     20  C   UNL     1       0.661  10.144  19.620  0.00  0.00    +0.000 A 
ATOM     21  C   UNL     1      -0.125  11.380  19.942  0.00  0.00    +0.000 C 
ATOM     22  C   UNL     1       0.900   9.211  20.624  0.00  0.00    +0.000 A 
ATOM     23  C   UNL     1       1.620   8.042  20.358  0.00  0.00    +0.000 A 
ENDBRANCH  16  17
ENDBRANCH  13  15
ENDBRANCH   6  13
TORSDOF 6
ENDMDL
MODEL 2
REMARK VINA RESULT:      -7.2      1.238      1.734
REMARK  Name = 
REMARK  8 active torsions:
REMARK  status: ('A' for Active; 'I' for Inactive)
REMARK    1  A    between atoms: C_1  and  O_2
REMARK    2  A    between atoms: O_2  and  C_3
REMARK    3  A    between atoms: C_5  and  O_6
REMARK    4  A    between atoms: C_8  and  O_9
REMARK    5  A    between atoms: C_10  and  C_11
REMARK    6  A    between atoms: C_11  and  C_13
REMARK    7  A    between atoms: C_14  and  C_15
REMARK    8  A    between atoms: C_18  and  C_19
REMARK                            x       y       z     vdW  Elec       q    Type
REMARK                         _______ _______ _______ _____ _____    ______ ____
ROOT
ATOM      1  C   UNL     1       6.834   5.522  17.083  0.00  0.00    +0.000 A 
ATOM      2  C   UNL     1       7.235   5.540  15.730  0.00  0.00    +0.000 A 
ATOM      3  C   UNL     1       6.682   4.642  14.824  0.00  0.00    +0.000 A 
ATOM      4  C   UNL     1       5.752   3.705  15.241  0.00  0.00    +0.000 A 
ATOM      5  C   UNL     1       5.334   3.694  16.577  0.00  0.00    +0.000 A 
ATOM      6  C   UNL     1       5.839   4.624  17.518  0.00  0.00    +0.000 A 
ENDROOT
BRANCH   1   8
ATOM      7  C   UNL     1       7.679   7.659  17.694  0.00  0.00    +0.000 C 
ATOM      8  O   UNL     1       7.649   6.251  17.913  0.00  0.00    +0.000 OA
ENDBRANCH   1   8
BRANCH   3   9
ATOM      9  O   UNL     1       7.061   4.609  13.514  0.00  0.00    +0.000 OA
ATOM     10  H   UNL     1       6.364   4.185  12.986  0.00  0.00    +0.000 HD
ENDBRANCH   3   9
BRANCH   5  11
ATOM     11  O   UNL     1       4.486   2.698  16.976  0.00  0.00    +0.000 OA
ATOM     12  H   UNL     1       4.901   1.833  16.833  0.00  0.00    +0.000 HD
ENDBRANCH   5  11
BRANCH   6  13
ATOM     13  C   UNL     1       5.242   4.613  18.892  0.00  0.00    +0.000 C 
ATOM     14  O   UNL     1       5.479   3.696  19.671  0.00  0.00    +0.000 OA
BRANCH  13  15
ATOM     15  C   UNL     1       4.327   5.717  19.287  0.00  0.00    +0.000 C 
ATOM     16  C   UNL     1       3.437   6.245  18.426  0.00  0.00    +0.000 C 
BRANCH  16  17
ATOM     17  C   UNL     1       2.544   7.366  18.780  0.00  0.00    +0.000 A 
ATOM     18  C   UNL     1       2.041   7.504  20.084  0.00  0.00    +0.000 A 
ATOM     19  C   UNL     1       1.201   8.578  20.418  0.00  0.00    +0.000 A 
ATOM     20  C   UNL     1       0.856   9.537  19.460  0.00  0.00    +0.000 A 
ATOM     21  C   UNL     1      -0.033  10.701  19.784  0.00  0.00    +0.000 C 
ATOM     22  C   UNL     1       1.369   9.413  18.173  0.00  0.00    +0.000 A 
ATOM     23  C   UNL     1       2.208   8.346  17.837  0.00  0.00    +0.000 A 
ENDBRANCH  16  17
ENDBRANCH  13  15
ENDBRANCH   6  13
TORSDOF 6
ENDMDL
MODEL 3
REMARK VINA RESULT:      -7.1      0.227      1.069
REMARK  Name = 
REMARK  8 active torsions:
REMARK  status: ('A' for Active; 'I' for Inactive)
REMARK    1  A    between atoms: C_1  and  O_2
REMARK    2  A    between atoms: O_2  and  C_3
REMARK    3  A    between atoms: C_5  and  O_6
REMARK    4  A    between atoms: C_8  and  O_9
REMARK    5  A    between atoms: C_10  and  C_11
REMARK    6  A    between atoms: C_11  and  C_13
REMARK    7  A    between atoms: C_14  and  C_15
REMARK    8  A    between atoms: C_18  and  C_19
REMARK                            x       y       z     vdW  Elec       q    Type
REMARK                         _______ _______ _______ _____ _____    ______ ____
ROOT
ATOM      1  C   UNL     1       6.113   4.924  18.599  0.00  0.00    +0.000 A 
ATOM      2  C   UNL     1       6.997   5.051  17.506  0.00  0.00    +0.000 A 
ATOM      3  C   UNL     1       6.623   4.594  16.248  0.00  0.00    +0.000 A 
ATOM      4  C   UNL     1       5.394   3.987  16.055  0.00  0.00    +0.000 A 
ATOM      5  C   UNL     1       4.503   3.875  17.130  0.00  0.00    +0.000 A 
ATOM      6  C   UNL     1       4.829   4.372  18.416  0.00  0.00    +0.000 A 
ENDROOT
BRANCH   1   8
ATOM      7  C   UNL     1       7.983   5.775  19.797  0.00  0.00    +0.000 C 
ATOM      8  O   UNL     1       6.703   5.148  19.818  0.00  0.00    +0.000 OA
ENDBRANCH   1   8
BRANCH   3   9
ATOM      9  O   UNL     1       7.457   4.674  15.171  0.00  0.00    +0.000 OA
ATOM     10  H   UNL     1       7.125   4.100  14.461  0.00  0.00    +0.000 HD
ENDBRANCH   3   9
BRANCH   5  11
ATOM     11  O   UNL     1       3.338   3.189  16.929  0.00  0.00    +0.000 OA
ATOM     12  H   UNL     1       2.671   3.776  16.542  0.00  0.00    +0.000 HD
ENDBRANCH   5  11
BRANCH   6  13
ATOM     13  C   UNL     1       3.766   4.316  19.470  0.00  0.00    +0.000 C 
ATOM     14  O   UNL     1       3.651   3.332  20.192  0.00  0.00    +0.000 OA
BRANCH  13  15
ATOM     15  C   UNL     1       2.827   5.462  19.605  0.00  0.00    +0.000 C 
ATOM     16  C   UNL     1       3.023   6.623  18.953  0.00  0.00    +0.000 C 
BRANCH  16  17
ATOM     17  C   UNL     1       2.129   7.788  19.099  0.00  0.00    +0.000 A 
ATOM     18  C   UNL     1       1.644   8.172  20.360  0.00  0.00    +0.000 A 
ATOM     19  C   UNL     1       0.802   9.287  20.495  0.00  0.00    +0.000 A 
ATOM     20  C   UNL     1       0.438  10.044  19.377  0.00  0.00    +0.000 A 
ATOM     21  C   UNL     1      -0.454  11.246  19.485  0.00  0.00    +0.000 C 
ATOM     22  C   UNL     1       0.933   9.677  18.130  0.00  0.00    +0.000 A 
ATOM     23  C   UNL     1       1.774   8.568  17.991  0.00  0.00    +0.000 A 
ENDBRANCH  16  17
ENDBRANCH  13  15
ENDBRANCH   6  13
TORSDOF 6
ENDMDL
MODEL 4
REMARK VINA RESULT:      -7.0      1.304      1.515
REMARK  Name = 
REMARK  8 active torsions:
REMARK  status: ('A' for Active; 'I' for Inactive)
REMARK    1  A    between atoms: C_1  and  O_2
REMARK    2  A    between atoms: O_2  and  C_3
REMARK    3  A    between atoms: C_5  and  O_6
REMARK    4  A    between atoms: C_8  and  O_9
REMARK    5  A    between atoms: C_10  and  C_11
REMARK    6  A    between atoms: C_11  and  C_13
REMARK    7  A    between atoms: C_14  and  C_15
REMARK    8  A    between atoms: C_18  and  C_19
REMARK                            x       y       z     vdW  Elec       q    Type
REMARK                         _______ _______ _______ _____ _____    ______ ____
ROOT
ATOM      1  C   UNL     1       6.863   5.471  16.802  0.00  0.00    +0.000 A 
ATOM      2  C   UNL     1       7.191   5.395  15.431  0.00  0.00    +0.000 A 
ATOM      3  C   UNL     1       6.555   4.471  14.610  0.00  0.00    +0.000 A 
ATOM      4  C   UNL     1       5.614   3.598  15.128  0.00  0.00    +0.000 A 
ATOM      5  C   UNL     1       5.268   3.681  16.483  0.00  0.00    +0.000 A 
ATOM      6  C   UNL     1       5.859   4.640  17.340  0.00  0.00    +0.000 A 
ENDROOT
BRANCH   1   8
ATOM      7  C   UNL     1       7.583   7.626  17.502  0.00  0.00    +0.000 C 
ATOM      8  O   UNL     1       7.749   6.211  17.544  0.00  0.00    +0.000 OA
ENDBRANCH   1   8
BRANCH   3   9
ATOM      9  O   UNL     1       6.861   4.347  13.286  0.00  0.00    +0.000 OA
ATOM     10  H   UNL     1       7.545   3.666  13.174  0.00  0.00    +0.000 HD
ENDBRANCH   3   9
BRANCH   5  11
ATOM     11  O   UNL     1       4.406   2.745  16.983  0.00  0.00    +0.000 OA
ATOM     12  H   UNL     1       3.807   2.440  16.284  0.00  0.00    +0.000 HD
ENDBRANCH   5  11
BRANCH   6  13
ATOM     13  C   UNL     1       5.338   4.732  18.742  0.00  0.00    +0.000 C 
ATOM     14  O   UNL     1       5.569   3.845  19.555  0.00  0.00    +0.000 OA
BRANCH  13  15
ATOM     15  C   UNL     1       4.503   5.903  19.123  0.00  0.00    +0.000 C 
ATOM     16  C   UNL     1       3.327   6.164  18.522  0.00  0.00    +0.000 C 
BRANCH  16  17
ATOM     17  C   UNL     1       2.498   7.339  18.853  0.00  0.00    +0.000 A 
ATOM     18  C   UNL     1       2.169   8.289  17.873  0.00  0.00    +0.000 A 
ATOM     19  C   UNL     1       1.371   9.400  18.191  0.00  0.00    +0.000 A 
ATOM     20  C   UNL     1       0.880   9.576  19.488  0.00  0.00    +0.000 A 
ATOM     21  C   UNL     1       0.018  10.746  19.861  0.00  0.00    +0.000 C 
ATOM     22  C   UNL     1       1.188   8.625  20.456  0.00  0.00    +0.000 A 
ATOM     23  C   UNL     1       1.981   7.517  20.143  0.00  0.00    +0.000 A 
ENDBRANCH  16  17
ENDBRANCH  13  15
ENDBRANCH   6  13
TORSDOF 6
ENDMDL
MODEL 5
REMARK VINA RESULT:      -7.0      3.934      6.250
REMARK  Name = 
REMARK  8 active torsions:
REMARK  status: ('A' for Active; 'I' for Inactive)
REMARK    1  A    between atoms: C_1  and  O_2
REMARK    2  A    between atoms: O_2  and  C_3
REMARK    3  A    between atoms: C_5  and  O_6
REMARK    4  A    between atoms: C_8  and  O_9
REMARK    5  A    between atoms: C_10  and  C_11
REMARK    6  A    between atoms: C_11  and  C_13
REMARK    7  A    between atoms: C_14  and  C_15
REMARK    8  A    between atoms: C_18  and  C_19
REMARK                            x       y       z     vdW  Elec       q    Type
REMARK                         _______ _______ _______ _____ _____    ______ ____
ROOT
ATOM      1  C   UNL     1       4.351   6.558  18.022  0.00  0.00    +0.000 A 
ATOM      2  C   UNL     1       3.424   5.892  18.852  0.00  0.00    +0.000 A 
ATOM      3  C   UNL     1       3.780   4.710  19.491  0.00  0.00    +0.000 A 
ATOM      4  C   UNL     1       5.035   4.158  19.302  0.00  0.00    +0.000 A 
ATOM      5  C   UNL     1       5.968   4.823  18.496  0.00  0.00    +0.000 A 
ATOM      6  C   UNL     1       5.658   6.053  17.867  0.00  0.00    +0.000 A 
ENDROOT
BRANCH   1   8
ATOM      7  C   UNL     1       2.626   8.174  17.759  0.00  0.00    +0.000 C 
ATOM      8  O   UNL     1       3.791   7.538  17.240  0.00  0.00    +0.000 OA
ENDBRANCH   1   8
BRANCH   3   9
ATOM      9  O   UNL     1       2.906   4.022  20.281  0.00  0.00    +0.000 OA
ATOM     10  H   UNL     1       3.270   3.143  20.478  0.00  0.00    +0.000 HD
ENDBRANCH   3   9
BRANCH   5  11
ATOM     11  O   UNL     1       7.163   4.205  18.255  0.00  0.00    +0.000 OA
ATOM     12  H   UNL     1       7.399   3.637  19.005  0.00  0.00    +0.000 HD
ENDBRANCH   5  11
BRANCH   6  13
ATOM     13  C   UNL     1       6.758   6.748  17.125  0.00  0.00    +0.000 C 
ATOM     14  O   UNL     1       7.371   6.175  16.232  0.00  0.00    +0.000 OA
BRANCH  13  15
ATOM     15  C   UNL     1       7.119   8.138  17.512  0.00  0.00    +0.000 C 
ATOM     16  C   UNL     1       8.338   8.448  17.994  0.00  0.00    +0.000 C 
BRANCH  16  17
ATOM     17  C   UNL     1       8.711   9.810  18.422  0.00  0.00    +0.000 A 
ATOM     18  C   UNL     1       9.385  10.027  19.635  0.00  0.00    +0.000 A 
ATOM     19  C   UNL     1       9.746  11.324  20.033  0.00  0.00    +0.000 A 
ATOM     20  C   UNL     1       9.452  12.425  19.223  0.00  0.00    +0.000 A 
ATOM     21  C   UNL     1       9.830  13.824  19.613  0.00  0.00    +0.000 C 
ATOM     22  C   UNL     1       8.802  12.211  18.012  0.00  0.00    +0.000 A 
ATOM     23  C   UNL     1       8.442  10.920  17.611  0.00  0.00    +0.000 A 
ENDBRANCH  16  17
ENDBRANCH  13  15
ENDBRANCH   6  13
TORSDOF 6
ENDMDL
MODEL 6
REMARK VINA RESULT:      -6.9      2.243      6.848
REMARK  Name = 
REMARK  8 active torsions:
REMARK  status: ('A' for Active; 'I' for Inactive)
REMARK    1  A    between atoms: C_1  and  O_2
REMARK    2  A    between atoms: O_2  and  C_3
REMARK    3  A    between atoms: C_5  and  O_6
REMARK    4  A    between atoms: C_8  and  O_9
REMARK    5  A    between atoms: C_10  and  C_11
REMARK    6  A    between atoms: C_11  and  C_13
REMARK    7  A    between atoms: C_14  and  C_15
REMARK    8  A    between atoms: C_18  and  C_19
REMARK                            x       y       z     vdW  Elec       q    Type
REMARK                         _______ _______ _______ _____ _____    ______ ____
ROOT
ATOM      1  C   UNL     1       3.328   5.440  19.244  0.00  0.00    +0.000 A 
ATOM      2  C   UNL     1       2.039   5.049  19.663  0.00  0.00    +0.000 A 
ATOM      3  C   UNL     1       1.813   3.755  20.117  0.00  0.00    +0.000 A 
ATOM      4  C   UNL     1       2.840   2.827  20.140  0.00  0.00    +0.000 A 
ATOM      5  C   UNL     1       4.128   3.213  19.745  0.00  0.00    +0.000 A 
ATOM      6  C   UNL     1       4.407   4.535  19.322  0.00  0.00    +0.000 A 
ENDROOT
BRANCH   1   8
ATOM      7  C   UNL     1       2.274   7.528  18.816  0.00  0.00    +0.000 C 
ATOM      8  O   UNL     1       3.352   6.632  18.563  0.00  0.00    +0.000 OA
ENDBRANCH   1   8
BRANCH   3   9
ATOM      9  O   UNL     1       0.576   3.329  20.506  0.00  0.00    +0.000 OA
ATOM     10  H   UNL     1       0.604   2.374  20.685  0.00  0.00    +0.000 HD
ENDBRANCH   3   9
BRANCH   5  11
ATOM     11  O   UNL     1       5.097   2.251  19.691  0.00  0.00    +0.000 OA
ATOM     12  H   UNL     1       4.760   1.466  19.232  0.00  0.00    +0.000 HD
ENDBRANCH   5  11
BRANCH   6  13
ATOM     13  C   UNL     1       5.835   4.885  19.036  0.00  0.00    +0.000 C 
ATOM     14  O   UNL     1       6.588   5.231  19.939  0.00  0.00    +0.000 OA
BRANCH  13  15
ATOM     15  C   UNL     1       6.317   4.841  17.630  0.00  0.00    +0.000 C 
ATOM     16  C   UNL     1       5.521   4.454  16.616  0.00  0.00    +0.000 C 
BRANCH  16  17
ATOM     17  C   UNL     1       5.985   4.364  15.218  0.00  0.00    +0.000 A 
ATOM     18  C   UNL     1       5.258   3.636  14.262  0.00  0.00    +0.000 A 
ATOM     19  C   UNL     1       5.698   3.562  12.931  0.00  0.00    +0.000 A 
ATOM     20  C   UNL     1       6.863   4.221  12.529  0.00  0.00    +0.000 A 
ATOM     21  C   UNL     1       7.359   4.171  11.113  0.00  0.00    +0.000 C 
ATOM     22  C   UNL     1       7.574   4.960  13.469  0.00  0.00    +0.000 A 
ATOM     23  C   UNL     1       7.138   5.037  14.796  0.00  0.00    +0.000 A 
ENDBRANCH  16  17
ENDBRANCH  13  15
ENDBRANCH   6  13
TORSDOF 6
ENDMDL
MODEL 7
REMARK VINA RESULT:      -6.8      4.026      6.181
REMARK  Name = 
REMARK  8 active torsions:
REMARK  status: ('A' for Active; 'I' for Inactive)
REMARK    1  A    between atoms: C_1  and  O_2
REMARK    2  A    between atoms: O_2  and  C_3
REMARK    3  A    between atoms: C_5  and  O_6
REMARK    4  A    between atoms: C_8  and  O_9
REMARK    5  A    between atoms: C_10  and  C_11
REMARK    6  A    between atoms: C_11  and  C_13
REMARK    7  A    between atoms: C_14  and  C_15
REMARK    8  A    between atoms: C_18  and  C_19
REMARK                            x       y       z     vdW  Elec       q    Type
REMARK                         _______ _______ _______ _____ _____    ______ ____
ROOT
ATOM      1  C   UNL     1       4.543   6.465  17.994  0.00  0.00    +0.000 A 
ATOM      2  C   UNL     1       3.634   5.657  18.711  0.00  0.00    +0.000 A 
ATOM      3  C   UNL     1       4.043   4.434  19.229  0.00  0.00    +0.000 A 
ATOM      4  C   UNL     1       5.335   3.980  19.028  0.00  0.00    +0.000 A 
ATOM      5  C   UNL     1       6.249   4.785  18.335  0.00  0.00    +0.000 A 
ATOM      6  C   UNL     1       5.883   6.058  17.834  0.00  0.00    +0.000 A 
ENDROOT
BRANCH   1   8
ATOM      7  C   UNL     1       2.755   8.028  17.872  0.00  0.00    +0.000 C 
ATOM      8  O   UNL     1       3.947   7.491  17.304  0.00  0.00    +0.000 OA
ENDBRANCH   1   8
BRANCH   3   9
ATOM      9  O   UNL     1       3.189   3.612  19.905  0.00  0.00    +0.000 OA
ATOM     10  H   UNL     1       2.599   4.146  20.462  0.00  0.00    +0.000 HD
ENDBRANCH   3   9
BRANCH   5  11
ATOM     11  O   UNL     1       7.487   4.269  18.073  0.00  0.00    +0.000 OA
ATOM     12  H   UNL     1       7.960   4.843  17.450  0.00  0.00    +0.000 HD
ENDBRANCH   5  11
BRANCH   6  13
ATOM     13  C   UNL     1       6.959   6.895  17.215  0.00  0.00    +0.000 C 
ATOM     14  O   UNL     1       7.601   6.481  16.256  0.00  0.00    +0.000 OA
BRANCH  13  15
ATOM     15  C   UNL     1       7.263   8.226  17.804  0.00  0.00    +0.000 C 
ATOM     16  C   UNL     1       8.510   8.733  17.811  0.00  0.00    +0.000 C 
BRANCH  16  17
ATOM     17  C   UNL     1       8.846  10.033  18.423  0.00  0.00    +0.000 A 
ATOM     18  C   UNL     1       8.646  11.234  17.723  0.00  0.00    +0.000 A 
ATOM     19  C   UNL     1       8.958  12.469  18.313  0.00  0.00    +0.000 A 
ATOM     20  C   UNL     1       9.464  12.528  19.615  0.00  0.00    +0.000 A 
ATOM     21  C   UNL     1       9.800  13.830  20.280  0.00  0.00    +0.000 C 
ATOM     22  C   UNL     1       9.644  11.341  20.318  0.00  0.00    +0.000 A 
ATOM     23  C   UNL     1       9.333  10.109  19.734  0.00  0.00    +0.000 A 
ENDBRANCH  16  17
ENDBRANCH  13  15
ENDBRANCH   6  13
TORSDOF 6
ENDMDL
MODEL 8
REMARK VINA RESULT:      -6.8      1.322      2.801
REMARK  Name = 
REMARK  8 active torsions:
REMARK  status: ('A' for Active; 'I' for Inactive)
REMARK    1  A    between atoms: C_1  and  O_2
REMARK    2  A    between atoms: O_2  and  C_3
REMARK    3  A    between atoms: C_5  and  O_6
REMARK    4  A    between atoms: C_8  and  O_9
REMARK    5  A    between atoms: C_10  and  C_11
REMARK    6  A    between atoms: C_11  and  C_13
REMARK    7  A    between atoms: C_14  and  C_15
REMARK    8  A    between atoms: C_18  and  C_19
REMARK                            x       y       z     vdW  Elec       q    Type
REMARK                         _______ _______ _______ _____ _____    ______ ____
ROOT
ATOM      1  C   UNL     1       4.749   3.856  16.699  0.00  0.00    +0.000 A 
ATOM      2  C   UNL     1       5.050   3.429  15.388  0.00  0.00    +0.000 A 
ATOM      3  C   UNL     1       6.182   3.907  14.738  0.00  0.00    +0.000 A 
ATOM      4  C   UNL     1       7.013   4.825  15.357  0.00  0.00    +0.000 A 
ATOM      5  C   UNL     1       6.733   5.239  16.665  0.00  0.00    +0.000 A 
ATOM      6  C   UNL     1       5.616   4.737  17.377  0.00  0.00    +0.000 A 
ENDROOT
BRANCH   1   8
ATOM      7  C   UNL     1       3.331   2.314  17.824  0.00  0.00    +0.000 C 
ATOM      8  O   UNL     1       3.478   3.538  17.108  0.00  0.00    +0.000 OA
ENDBRANCH   1   8
BRANCH   3   9
ATOM      9  O   UNL     1       6.495   3.540  13.462  0.00  0.00    +0.000 OA
ATOM     10  H   UNL     1       6.288   2.599  13.337  0.00  0.00    +0.000 HD
ENDBRANCH   3   9
BRANCH   5  11
ATOM     11  O   UNL     1       7.519   6.215  17.212  0.00  0.00    +0.000 OA
ATOM     12  H   UNL     1       6.995   6.762  17.817  0.00  0.00    +0.000 HD
ENDBRANCH   5  11
BRANCH   6  13
ATOM     13  C   UNL     1       5.468   5.144  18.810  0.00  0.00    +0.000 C 
ATOM     14  O   UNL     1       6.242   4.727  19.664  0.00  0.00    +0.000 OA
BRANCH  13  15
ATOM     15  C   UNL     1       4.341   6.037  19.190  0.00  0.00    +0.000 C 
ATOM     16  C   UNL     1       3.704   6.805  18.286  0.00  0.00    +0.000 C 
BRANCH  16  17
ATOM     17  C   UNL     1       2.609   7.727  18.642  0.00  0.00    +0.000 A 
ATOM     18  C   UNL     1       2.059   7.730  19.935  0.00  0.00    +0.000 A 
ATOM     19  C   UNL     1       1.024   8.617  20.271  0.00  0.00    +0.000 A 
ATOM     20  C   UNL     1       0.528   9.523  19.329  0.00  0.00    +0.000 A 
ATOM     21  C   UNL     1      -0.571  10.491  19.657  0.00  0.00    +0.000 C 
ATOM     22  C   UNL     1       1.086   9.537  18.055  0.00  0.00    +0.000 A 
ATOM     23  C   UNL     1       2.118   8.656  17.716  0.00  0.00    +0.000 A 
ENDBRANCH  16  17
ENDBRANCH  13  15
ENDBRANCH   6  13
TORSDOF 6
ENDMDL
MODEL 9
REMARK VINA RESULT:      -6.8      1.981      3.005
REMARK  Name = 
REMARK  8 active torsions:
REMARK  status: ('A' for Active; 'I' for Inactive)
REMARK    1  A    between atoms: C_1  and  O_2
REMARK    2  A    between atoms: O_2  and  C_3
REMARK    3  A    between atoms: C_5  and  O_6
REMARK    4  A    between atoms: C_8  and  O_9
REMARK    5  A    between atoms: C_10  and  C_11
REMARK    6  A    between atoms: C_11  and  C_13
REMARK    7  A    between atoms: C_14  and  C_15
REMARK    8  A    between atoms: C_18  and  C_19
REMARK                            x       y       z     vdW  Elec       q    Type
REMARK                         _______ _______ _______ _____ _____    ______ ____
ROOT
ATOM      1  C   UNL     1       4.503   4.366  18.973  0.00  0.00    +0.000 A 
ATOM      2  C   UNL     1       4.682   2.966  18.943  0.00  0.00    +0.000 A 
ATOM      3  C   UNL     1       3.724   2.151  18.353  0.00  0.00    +0.000 A 
ATOM      4  C   UNL     1       2.573   2.695  17.810  0.00  0.00    +0.000 A 
ATOM      5  C   UNL     1       2.397   4.085  17.817  0.00  0.00    +0.000 A 
ATOM      6  C   UNL     1       3.372   4.952  18.367  0.00  0.00    +0.000 A 
ENDROOT
BRANCH   1   8
ATOM      7  C   UNL     1       6.588   5.474  19.253  0.00  0.00    +0.000 C 
ATOM      8  O   UNL     1       5.363   5.017  19.821  0.00  0.00    +0.000 OA
ENDBRANCH   1   8
BRANCH   3   9
ATOM      9  O   UNL     1       3.846   0.792  18.325  0.00  0.00    +0.000 OA
ATOM     10  H   UNL     1       4.761   0.554  18.099  0.00  0.00    +0.000 HD
ENDBRANCH   3   9
BRANCH   5  11
ATOM     11  O   UNL     1       1.209   4.584  17.359  0.00  0.00    +0.000 OA
ATOM     12  H   UNL     1       0.478   4.249  17.902  0.00  0.00    +0.000 HD
ENDBRANCH   5  11
BRANCH   6  13
ATOM     13  C   UNL     1       3.152   6.426  18.220  0.00  0.00    +0.000 C 
ATOM     14  O   UNL     1       3.621   7.038  17.267  0.00  0.00    +0.000 OA
BRANCH  13  15
ATOM     15  C   UNL     1       2.383   7.145  19.270  0.00  0.00    +0.000 C 
ATOM     16  C   UNL     1       1.747   8.305  19.017  0.00  0.00    +0.000 C 
BRANCH  16  17
ATOM     17  C   UNL     1       1.010   9.059  20.049  0.00  0.00    +0.000 A 
ATOM     18  C   UNL     1       0.616  10.389  19.827  0.00  0.00    +0.000 A 
ATOM     19  C   UNL     1      -0.095  11.099  20.808  0.00  0.00    +0.000 A 
ATOM     20  C   UNL     1      -0.434  10.492  22.021  0.00  0.00    +0.000 A 
ATOM     21  C   UNL     1      -1.200  11.218  23.088  0.00  0.00    +0.000 C 
ATOM     22  C   UNL     1      -0.062   9.169  22.235  0.00  0.00    +0.000 A 
ATOM     23  C   UNL     1       0.644   8.457  21.260  0.00  0.00    +0.000 A 
ENDBRANCH  16  17
ENDBRANCH  13  15
ENDBRANCH   6  13
TORSDOF 6
ENDMDL
