MODEL 1
REMARK VINA RESULT:      -8.6      0.000      0.000
REMARK  Name = 
REMARK  4 active torsions:
REMARK  status: ('A' for Active; 'I' for Inactive)
REMARK    1  A    between atoms: N_1  and  C_2
REMARK    2  A    between atoms: C_6  and  C_7
REMARK    3  A    between atoms: C_9  and  N_10
REMARK    4  A    between atoms: N_10  and  C_11
REMARK                            x       y       z     vdW  Elec       q    Type
REMARK                         _______ _______ _______ _____ _____    ______ ____
ROOT
ATOM      1  C   UNL     1       2.896   7.408  18.441  0.00  0.00    +0.000 A 
ATOM      2  C   UNL     1       3.179   6.286  19.269  0.00  0.00    +0.000 A 
ATOM      3  C   UNL     1       3.950   5.203  18.822  0.00  0.00    +0.000 A 
ATOM      4  C   UNL     1       4.476   5.253  17.513  0.00  0.00    +0.000 A 
ATOM      5  C   UNL     1       5.127   4.176  16.910  0.00  0.00    +0.000 A 
ATOM      6  C   UNL     1       6.055   4.429  15.926  0.00  0.00    +0.000 A 
ATOM      7  N   UNL     1       6.179   5.623  15.324  0.00  0.00    +0.000 NA
ATOM      8  C   UNL     1       5.302   6.582  15.701  0.00  0.00    +0.000 A 
ATOM      9  C   UNL     1       4.440   6.470  16.800  0.00  0.00    +0.000 A 
ATOM     10  C   UNL     1       3.582   7.502  17.240  0.00  0.00    +0.000 A 
ENDROOT
BRANCH   1  15
ATOM     11  C   UNL     1       0.455   9.311  20.685  0.00  0.00    +0.000 A 
ATOM     12  C   UNL     1      -0.168  10.154  19.772  0.00  0.00    +0.000 A 
ATOM     13  C   UNL     1       0.247  10.172  18.436  0.00  0.00    +0.000 A 
ATOM     14  C   UNL     1       1.257   9.308  17.992  0.00  0.00    +0.000 A 
ATOM     15  C   UNL     1       1.861   8.397  18.872  0.00  0.00    +0.000 A 
ATOM     16  C   UNL     1       1.402   8.408  20.211  0.00  0.00    +0.000 A 
BRANCH  11  17
ATOM     17  N   UNL     1      -0.033   9.186  21.991  0.00  0.00    +0.000 N 
ATOM     18  H   UNL     1       0.627   8.767  22.637  0.00  0.00    +0.000 HD
ATOM     19  H   UNL     1      -0.951   8.749  22.043  0.00  0.00    +0.000 HD
ENDBRANCH  11  17
ENDBRANCH   1  15
BRANCH   3  20
ATOM     20  N   UNL     1       4.224   4.096  19.651  0.00  0.00    +0.000 N 
ATOM     21  H   UNL     1       4.283   4.355  20.628  0.00  0.00    +0.000 HD
BRANCH  20  22
ATOM     22  C   UNL     1       3.437   2.841  19.517  0.00  0.00    +0.000 C 
ATOM     23  C   UNL     1       1.962   3.102  19.176  0.00  0.00    +0.000 C 
ATOM     24  C   UNL     1       1.189   3.688  20.353  0.00  0.00    +0.000 C 
ATOM     25  C   UNL     1       1.317   2.824  21.605  0.00  0.00    +0.000 C 
ATOM     26  N   UNL     1       2.698   2.514  21.966  0.00  0.00    +0.000 NA
ATOM     27  C   UNL     1       3.526   2.046  20.847  0.00  0.00    +0.000 C 
ATOM     28  H   UNL     1       3.134   3.310  22.431  0.00  0.00    +0.000 HD
ENDBRANCH  20  22
ENDBRANCH   3  20
TORSDOF 4
ENDMDL
MODEL 2
REMARK VINA RESULT:      -8.5      0.949      1.365
REMARK  Name = 
REMARK  4 active torsions:
REMARK  status: ('A' for Active; 'I' for Inactive)
REMARK    1  A    between atoms: N_1  and  C_2
REMARK    2  A    between atoms: C_6  and  C_7
REMARK    3  A    between atoms: C_9  and  N_10
REMARK    4  A    between atoms: N_10  and  C_11
REMARK                            x       y       z     vdW  Elec       q    Type
REMARK                         _______ _______ _______ _____ _____    ______ ____
ROOT
ATOM      1  C   UNL     1       2.938   7.244  18.655  0.00  0.00    +0.000 A 
ATOM      2  C   UNL     1       3.296   6.090  19.406  0.00  0.00    +0.000 A 
ATOM      3  C   UNL     1       4.055   5.046  18.856  0.00  0.00    +0.000 A 
ATOM      4  C   UNL     1       4.490   5.170  17.519  0.00  0.00    +0.000 A 
ATOM      5  C   UNL     1       5.118   4.137  16.821  0.00  0.00    +0.000 A 
ATOM      6  C   UNL     1       5.973   4.457  15.791  0.00  0.00    +0.000 A 
ATOM      7  N   UNL     1       6.036   5.681  15.243  0.00  0.00    +0.000 NA
ATOM      8  C   UNL     1       5.169   6.602  15.725  0.00  0.00    +0.000 A 
ATOM      9  C   UNL     1       4.385   6.419  16.871  0.00  0.00    +0.000 A 
ATOM     10  C   UNL     1       3.541   7.411  17.418  0.00  0.00    +0.000 A 
ENDROOT
BRANCH   1  15
ATOM     11  C   UNL     1       0.434  10.127  18.828  0.00  0.00    +0.000 A 
ATOM     12  C   UNL     1       0.064  10.099  20.167  0.00  0.00    +0.000 A 
ATOM     13  C   UNL     1       0.559   9.100  21.012  0.00  0.00    +0.000 A 
ATOM     14  C   UNL     1       1.471   8.150  20.533  0.00  0.00    +0.000 A 
ATOM     15  C   UNL     1       1.918   8.190  19.203  0.00  0.00    +0.000 A 
ATOM     16  C   UNL     1       1.396   9.223  18.389  0.00  0.00    +0.000 A 
BRANCH  11  17
ATOM     17  N   UNL     1       0.052  11.192  18.002  0.00  0.00    +0.000 N 
ATOM     18  H   UNL     1       0.204  12.106  18.414  0.00  0.00    +0.000 HD
ATOM     19  H   UNL     1      -0.887  11.095  17.621  0.00  0.00    +0.000 HD
ENDBRANCH  11  17
ENDBRANCH   1  15
BRANCH   3  20
ATOM     20  N   UNL     1       4.403   3.906  19.608  0.00  0.00    +0.000 N 
ATOM     21  H   UNL     1       4.571   4.127  20.582  0.00  0.00    +0.000 HD
BRANCH  20  22
ATOM     22  C   UNL     1       3.589   2.664  19.515  0.00  0.00    +0.000 C 
ATOM     23  C   UNL     1       2.143   2.936  19.075  0.00  0.00    +0.000 C 
ATOM     24  C   UNL     1       1.323   3.621  20.163  0.00  0.00    +0.000 C 
ATOM     25  C   UNL     1       1.358   2.843  21.476  0.00  0.00    +0.000 C 
ATOM     26  N   UNL     1       2.708   2.525  21.936  0.00  0.00    +0.000 NA
ATOM     27  C   UNL     1       3.583   1.961  20.900  0.00  0.00    +0.000 C 
ATOM     28  H   UNL     1       3.140   3.342  22.370  0.00  0.00    +0.000 HD
ENDBRANCH  20  22
ENDBRANCH   3  20
TORSDOF 4
ENDMDL
MODEL 3
REMARK VINA RESULT:      -8.5      1.625      4.640
REMARK  Name = 
REMARK  4 active torsions:
REMARK  status: ('A' for Active; 'I' for Inactive)
REMARK    1  A    between atoms: N_1  and  C_2
REMARK    2  A    between atoms: C_6  and  C_7
REMARK    3  A    between atoms: C_9  and  N_10
REMARK    4  A    between atoms: N_10  and  C_11
REMARK                            x       y       z     vdW  Elec       q    Type
REMARK                         _______ _______ _______ _____ _____    ______ ____
ROOT
ATOM      1  C   UNL     1       1.858   7.122  19.951  0.00  0.00    +0.000 A 
ATOM      2  C   UNL     1       2.543   6.829  18.739  0.00  0.00    +0.000 A 
ATOM      3  C   UNL     1       3.253   5.634  18.551  0.00  0.00    +0.000 A 
ATOM      4  C   UNL     1       3.258   4.689  19.599  0.00  0.00    +0.000 A 
ATOM      5  C   UNL     1       4.048   3.539  19.587  0.00  0.00    +0.000 A 
ATOM      6  C   UNL     1       3.632   2.442  20.307  0.00  0.00    +0.000 A 
ATOM      7  N   UNL     1       2.660   2.496  21.231  0.00  0.00    +0.000 NA
ATOM      8  C   UNL     1       2.120   3.715  21.466  0.00  0.00    +0.000 A 
ATOM      9  C   UNL     1       2.359   4.846  20.675  0.00  0.00    +0.000 A 
ATOM     10  C   UNL     1       1.732   6.096  20.875  0.00  0.00    +0.000 A 
ENDROOT
BRANCH   1  15
ATOM     11  C   UNL     1       0.829  10.742  19.279  0.00  0.00    +0.000 A 
ATOM     12  C   UNL     1       0.501  11.183  20.556  0.00  0.00    +0.000 A 
ATOM     13  C   UNL     1       0.535  10.295  21.635  0.00  0.00    +0.000 A 
ATOM     14  C   UNL     1       0.946   8.968  21.454  0.00  0.00    +0.000 A 
ATOM     15  C   UNL     1       1.348   8.507  20.191  0.00  0.00    +0.000 A 
ATOM     16  C   UNL     1       1.306   9.443  19.130  0.00  0.00    +0.000 A 
BRANCH  11  17
ATOM     17  N   UNL     1       0.926  11.644  18.213  0.00  0.00    +0.000 N 
ATOM     18  H   UNL     1       0.282  12.426  18.277  0.00  0.00    +0.000 HD
ATOM     19  H   UNL     1       0.898  11.199  17.298  0.00  0.00    +0.000 HD
ENDBRANCH  11  17
ENDBRANCH   1  15
BRANCH   3  20
ATOM     20  N   UNL     1       3.929   5.355  17.346  0.00  0.00    +0.000 N 
ATOM     21  H   UNL     1       3.296   5.294  16.558  0.00  0.00    +0.000 HD
BRANCH  20  22
ATOM     22  C   UNL     1       5.131   6.140  16.957  0.00  0.00    +0.000 C 
ATOM     23  C   UNL     1       5.305   6.240  15.434  0.00  0.00    +0.000 C 
ATOM     24  C   UNL     1       5.731   4.915  14.810  0.00  0.00    +0.000 C 
ATOM     25  C   UNL     1       6.988   4.354  15.469  0.00  0.00    +0.000 C 
ATOM     26  N   UNL     1       6.899   4.261  16.923  0.00  0.00    +0.000 NA
ATOM     27  C   UNL     1       6.389   5.473  17.577  0.00  0.00    +0.000 C 
ATOM     28  H   UNL     1       6.351   3.445  17.197  0.00  0.00    +0.000 HD
ENDBRANCH  20  22
ENDBRANCH   3  20
TORSDOF 4
ENDMDL
MODEL 4
REMARK VINA RESULT:      -8.5      1.368      4.462
REMARK  Name = 
REMARK  4 active torsions:
REMARK  status: ('A' for Active; 'I' for Inactive)
REMARK    1  A    between atoms: N_1  and  C_2
REMARK    2  A    between atoms: C_6  and  C_7
REMARK    3  A    between atoms: C_9  and  N_10
REMARK    4  A    between atoms: N_10  and  C_11
REMARK                            x       y       z     vdW  Elec       q    Type
REMARK                         _______ _______ _______ _____ _____    ______ ____
ROOT
ATOM      1  C   UNL     1       1.813   7.068  20.033  0.00  0.00    +0.000 A 
ATOM      2  C   UNL     1       2.502   6.804  18.816  0.00  0.00    +0.000 A 
ATOM      3  C   UNL     1       3.237   5.627  18.613  0.00  0.00    +0.000 A 
ATOM      4  C   UNL     1       3.263   4.670  19.651  0.00  0.00    +0.000 A 
ATOM      5  C   UNL     1       4.077   3.537  19.623  0.00  0.00    +0.000 A 
ATOM      6  C   UNL     1       3.686   2.422  20.330  0.00  0.00    +0.000 A 
ATOM      7  N   UNL     1       2.714   2.445  21.256  0.00  0.00    +0.000 NA
ATOM      8  C   UNL     1       2.148   3.649  21.507  0.00  0.00    +0.000 A 
ATOM      9  C   UNL     1       2.362   4.794  20.729  0.00  0.00    +0.000 A 
ATOM     10  C   UNL     1       1.709   6.028  20.945  0.00  0.00    +0.000 A 
ENDROOT
BRANCH   1  15
ATOM     11  C   UNL     1       0.192  10.011  21.858  0.00  0.00    +0.000 A 
ATOM     12  C   UNL     1       0.128  10.966  20.850  0.00  0.00    +0.000 A 
ATOM     13  C   UNL     1       0.677  10.697  19.592  0.00  0.00    +0.000 A 
ATOM     14  C   UNL     1       1.252   9.449  19.317  0.00  0.00    +0.000 A 
ATOM     15  C   UNL     1       1.273   8.438  20.290  0.00  0.00    +0.000 A 
ATOM     16  C   UNL     1       0.698   8.753  21.545  0.00  0.00    +0.000 A 
BRANCH  11  17
ATOM     17  N   UNL     1      -0.464  10.212  23.077  0.00  0.00    +0.000 N 
ATOM     18  H   UNL     1      -1.089  11.012  23.080  0.00  0.00    +0.000 HD
ATOM     19  H   UNL     1       0.160  10.211  23.881  0.00  0.00    +0.000 HD
ENDBRANCH  11  17
ENDBRANCH   1  15
BRANCH   3  20
ATOM     20  N   UNL     1       3.917   5.376  17.405  0.00  0.00    +0.000 N 
ATOM     21  H   UNL     1       3.286   5.329  16.614  0.00  0.00    +0.000 HD
BRANCH  20  22
ATOM     22  C   UNL     1       5.116   6.176  17.035  0.00  0.00    +0.000 C 
ATOM     23  C   UNL     1       5.292   6.308  15.515  0.00  0.00    +0.000 C 
ATOM     24  C   UNL     1       5.727   4.999  14.864  0.00  0.00    +0.000 C 
ATOM     25  C   UNL     1       6.986   4.431  15.515  0.00  0.00    +0.000 C 
ATOM     26  N   UNL     1       6.894   4.308  16.967  0.00  0.00    +0.000 NA
ATOM     27  C   UNL     1       6.376   5.504  17.644  0.00  0.00    +0.000 C 
ATOM     28  H   UNL     1       6.350   3.484  17.223  0.00  0.00    +0.000 HD
ENDBRANCH  20  22
ENDBRANCH   3  20
TORSDOF 4
ENDMDL
MODEL 5
REMARK VINA RESULT:      -8.5      1.442      4.324
REMARK  Name = 
REMARK  4 active torsions:
REMARK  status: ('A' for Active; 'I' for Inactive)
REMARK    1  A    between atoms: N_1  and  C_2
REMARK    2  A    between atoms: C_6  and  C_7
REMARK    3  A    between atoms: C_9  and  N_10
REMARK    4  A    between atoms: N_10  and  C_11
REMARK                            x       y       z     vdW  Elec       q    Type
REMARK                         _______ _______ _______ _____ _____    ______ ____
ROOT
ATOM      1  C   UNL     1       2.072   6.728  19.955  0.00  0.00    +0.000 A 
ATOM      2  C   UNL     1       3.396   6.700  19.434  0.00  0.00    +0.000 A 
ATOM      3  C   UNL     1       4.092   5.500  19.226  0.00  0.00    +0.000 A 
ATOM      4  C   UNL     1       3.436   4.287  19.524  0.00  0.00    +0.000 A 
ATOM      5  C   UNL     1       4.075   3.047  19.501  0.00  0.00    +0.000 A 
ATOM      6  C   UNL     1       3.325   1.919  19.258  0.00  0.00    +0.000 A 
ATOM      7  N   UNL     1       1.984   1.905  19.310  0.00  0.00    +0.000 NA
ATOM      8  C   UNL     1       1.382   3.065  19.663  0.00  0.00    +0.000 A 
ATOM      9  C   UNL     1       2.046   4.294  19.765  0.00  0.00    +0.000 A 
ATOM     10  C   UNL     1       1.402   5.518  20.055  0.00  0.00    +0.000 A 
ENDROOT
BRANCH   1  15
ATOM     11  C   UNL     1       0.432   9.350  22.201  0.00  0.00    +0.000 A 
ATOM     12  C   UNL     1       0.256  10.408  21.316  0.00  0.00    +0.000 A 
ATOM     13  C   UNL     1       0.736  10.315  20.006  0.00  0.00    +0.000 A 
ATOM     14  C   UNL     1       1.352   9.140  19.555  0.00  0.00    +0.000 A 
ATOM     15  C   UNL     1       1.485   8.028  20.401  0.00  0.00    +0.000 A 
ATOM     16  C   UNL     1       0.977   8.166  21.715  0.00  0.00    +0.000 A 
BRANCH  11  17
ATOM     17  N   UNL     1      -0.155   9.376  23.472  0.00  0.00    +0.000 N 
ATOM     18  H   UNL     1       0.015   8.539  24.019  0.00  0.00    +0.000 HD
ATOM     19  H   UNL     1      -1.139   9.635  23.461  0.00  0.00    +0.000 HD
ENDBRANCH  11  17
ENDBRANCH   1  15
BRANCH   3  20
ATOM     20  N   UNL     1       5.404   5.485  18.710  0.00  0.00    +0.000 N 
ATOM     21  H   UNL     1       5.774   4.545  18.634  0.00  0.00    +0.000 HD
BRANCH  20  22
ATOM     22  C   UNL     1       5.739   6.250  17.480  0.00  0.00    +0.000 C 
ATOM     23  C   UNL     1       4.892   5.828  16.271  0.00  0.00    +0.000 C 
ATOM     24  C   UNL     1       5.275   4.448  15.747  0.00  0.00    +0.000 C 
ATOM     25  C   UNL     1       6.765   4.352  15.431  0.00  0.00    +0.000 C 
ATOM     26  N   UNL     1       7.628   4.770  16.533  0.00  0.00    +0.000 NA
ATOM     27  C   UNL     1       7.243   6.045  17.153  0.00  0.00    +0.000 C 
ATOM     28  H   UNL     1       7.696   4.032  17.234  0.00  0.00    +0.000 HD
ENDBRANCH  20  22
ENDBRANCH   3  20
TORSDOF 4
ENDMDL
MODEL 6
REMARK VINA RESULT:      -8.4      1.163      1.296
REMARK  Name = 
REMARK  4 active torsions:
REMARK  status: ('A' for Active; 'I' for Inactive)
REMARK    1  A    between atoms: N_1  and  C_2
REMARK    2  A    between atoms: C_6  and  C_7
REMARK    3  A    between atoms: C_9  and  N_10
REMARK    4  A    between atoms: N_10  and  C_11
REMARK                            x       y       z     vdW  Elec       q    Type
REMARK                         _______ _______ _______ _____ _____    ______ ____
ROOT
ATOM      1  C   UNL     1       3.107   6.930  18.130  0.00  0.00    +0.000 A 
ATOM      2  C   UNL     1       2.592   5.607  18.030  0.00  0.00    +0.000 A 
ATOM      3  C   UNL     1       3.272   4.590  17.345  0.00  0.00    +0.000 A 
ATOM      4  C   UNL     1       4.519   4.897  16.760  0.00  0.00    +0.000 A 
ATOM      5  C   UNL     1       5.212   4.014  15.931  0.00  0.00    +0.000 A 
ATOM      6  C   UNL     1       6.582   4.119  15.849  0.00  0.00    +0.000 A 
ATOM      7  N   UNL     1       7.265   5.181  16.304  0.00  0.00    +0.000 NA
ATOM      8  C   UNL     1       6.531   6.194  16.821  0.00  0.00    +0.000 A 
ATOM      9  C   UNL     1       5.160   6.109  17.095  0.00  0.00    +0.000 A 
ATOM     10  C   UNL     1       4.412   7.139  17.708  0.00  0.00    +0.000 A 
ENDROOT
BRANCH   1  15
ATOM     11  C   UNL     1       0.992   9.023  20.530  0.00  0.00    +0.000 A 
ATOM     12  C   UNL     1       0.473   9.990  19.677  0.00  0.00    +0.000 A 
ATOM     13  C   UNL     1       0.862  10.024  18.334  0.00  0.00    +0.000 A 
ATOM     14  C   UNL     1       1.736   9.056  17.821  0.00  0.00    +0.000 A 
ATOM     15  C   UNL     1       2.226   8.025  18.637  0.00  0.00    +0.000 A 
ATOM     16  C   UNL     1       1.798   8.028  19.987  0.00  0.00    +0.000 A 
BRANCH  11  17
ATOM     17  N   UNL     1       0.517   8.896  21.840  0.00  0.00    +0.000 N 
ATOM     18  H   UNL     1       0.192   7.963  22.070  0.00  0.00    +0.000 HD
ATOM     19  H   UNL     1      -0.158   9.612  22.100  0.00  0.00    +0.000 HD
ENDBRANCH  11  17
ENDBRANCH   1  15
BRANCH   3  20
ATOM     20  N   UNL     1       2.752   3.283  17.252  0.00  0.00    +0.000 N 
ATOM     21  H   UNL     1       2.914   2.871  16.341  0.00  0.00    +0.000 HD
BRANCH  20  22
ATOM     22  C   UNL     1       3.044   2.279  18.309  0.00  0.00    +0.000 C 
ATOM     23  C   UNL     1       1.774   1.769  19.007  0.00  0.00    +0.000 C 
ATOM     24  C   UNL     1       1.145   2.823  19.913  0.00  0.00    +0.000 C 
ATOM     25  C   UNL     1       2.145   3.371  20.927  0.00  0.00    +0.000 C 
ATOM     26  N   UNL     1       3.390   3.845  20.329  0.00  0.00    +0.000 NA
ATOM     27  C   UNL     1       3.990   2.916  19.362  0.00  0.00    +0.000 C 
ATOM     28  H   UNL     1       3.259   4.767  19.912  0.00  0.00    +0.000 HD
ENDBRANCH  20  22
ENDBRANCH   3  20
TORSDOF 4
ENDMDL
MODEL 7
REMARK VINA RESULT:      -8.4      1.631      4.515
REMARK  Name = 
REMARK  4 active torsions:
REMARK  status: ('A' for Active; 'I' for Inactive)
REMARK    1  A    between atoms: N_1  and  C_2
REMARK    2  A    between atoms: C_6  and  C_7
REMARK    3  A    between atoms: C_9  and  N_10
REMARK    4  A    between atoms: N_10  and  C_11
REMARK                            x       y       z     vdW  Elec       q    Type
REMARK                         _______ _______ _______ _____ _____    ______ ____
ROOT
ATOM      1  C   UNL     1       2.207   6.690  19.723  0.00  0.00    +0.000 A 
ATOM      2  C   UNL     1       3.529   6.645  19.199  0.00  0.00    +0.000 A 
ATOM      3  C   UNL     1       4.225   5.439  19.027  0.00  0.00    +0.000 A 
ATOM      4  C   UNL     1       3.569   4.236  19.368  0.00  0.00    +0.000 A 
ATOM      5  C   UNL     1       4.209   2.996  19.383  0.00  0.00    +0.000 A 
ATOM      6  C   UNL     1       3.458   1.861  19.180  0.00  0.00    +0.000 A 
ATOM      7  N   UNL     1       2.117   1.848  19.236  0.00  0.00    +0.000 NA
ATOM      8  C   UNL     1       1.516   3.019  19.553  0.00  0.00    +0.000 A 
ATOM      9  C   UNL     1       2.180   4.252  19.613  0.00  0.00    +0.000 A 
ATOM     10  C   UNL     1       1.537   5.484  19.865  0.00  0.00    +0.000 A 
ENDROOT
BRANCH   1  15
ATOM     11  C   UNL     1       0.882  10.267  19.470  0.00  0.00    +0.000 A 
ATOM     12  C   UNL     1       0.619  10.565  20.802  0.00  0.00    +0.000 A 
ATOM     13  C   UNL     1       0.793   9.587  21.787  0.00  0.00    +0.000 A 
ATOM     14  C   UNL     1       1.281   8.317  21.453  0.00  0.00    +0.000 A 
ATOM     15  C   UNL     1       1.621   8.004  20.127  0.00  0.00    +0.000 A 
ATOM     16  C   UNL     1       1.436   9.027  19.167  0.00  0.00    +0.000 A 
BRANCH  11  17
ATOM     17  N   UNL     1       0.838  11.267  18.491  0.00  0.00    +0.000 N 
ATOM     18  H   UNL     1       1.527  11.152  17.756  0.00  0.00    +0.000 HD
ATOM     19  H   UNL     1       0.837  12.210  18.873  0.00  0.00    +0.000 HD
ENDBRANCH  11  17
ENDBRANCH   1  15
BRANCH   3  20
ATOM     20  N   UNL     1       5.535   5.407  18.508  0.00  0.00    +0.000 N 
ATOM     21  H   UNL     1       5.873   4.461  18.383  0.00  0.00    +0.000 HD
BRANCH  20  22
ATOM     22  C   UNL     1       5.894   6.224  17.318  0.00  0.00    +0.000 C 
ATOM     23  C   UNL     1       5.028   5.897  16.093  0.00  0.00    +0.000 C 
ATOM     24  C   UNL     1       5.357   4.533  15.495  0.00  0.00    +0.000 C 
ATOM     25  C   UNL     1       6.842   4.400  15.167  0.00  0.00    +0.000 C 
ATOM     26  N   UNL     1       7.723   4.727  16.285  0.00  0.00    +0.000 NA
ATOM     27  C   UNL     1       7.388   5.980  16.973  0.00  0.00    +0.000 C 
ATOM     28  H   UNL     1       7.766   3.951  16.946  0.00  0.00    +0.000 HD
ENDBRANCH  20  22
ENDBRANCH   3  20
TORSDOF 4
ENDMDL
MODEL 8
REMARK VINA RESULT:      -8.2      1.542      1.919
REMARK  Name = 
REMARK  4 active torsions:
REMARK  status: ('A' for Active; 'I' for Inactive)
REMARK    1  A    between atoms: N_1  and  C_2
REMARK    2  A    between atoms: C_6  and  C_7
REMARK    3  A    between atoms: C_9  and  N_10
REMARK    4  A    between atoms: N_10  and  C_11
REMARK                            x       y       z     vdW  Elec       q    Type
REMARK                         _______ _______ _______ _____ _____    ______ ____
ROOT
ATOM      1  C   UNL     1       3.103   6.796  18.325  0.00  0.00    +0.000 A 
ATOM      2  C   UNL     1       2.581   5.489  18.122  0.00  0.00    +0.000 A 
ATOM      3  C   UNL     1       3.235   4.537  17.325  0.00  0.00    +0.000 A 
ATOM      4  C   UNL     1       4.465   4.896  16.733  0.00  0.00    +0.000 A 
ATOM      5  C   UNL     1       5.129   4.092  15.805  0.00  0.00    +0.000 A 
ATOM      6  C   UNL     1       6.496   4.202  15.690  0.00  0.00    +0.000 A 
ATOM      7  N   UNL     1       7.196   5.218  16.218  0.00  0.00    +0.000 NA
ATOM      8  C   UNL     1       6.482   6.180  16.848  0.00  0.00    +0.000 A 
ATOM      9  C   UNL     1       5.120   6.072  17.156  0.00  0.00    +0.000 A 
ATOM     10  C   UNL     1       4.395   7.041  17.884  0.00  0.00    +0.000 A 
ENDROOT
BRANCH   1  15
ATOM     11  C   UNL     1       1.118  10.032  18.771  0.00  0.00    +0.000 A 
ATOM     12  C   UNL     1       0.711   9.932  20.097  0.00  0.00    +0.000 A 
ATOM     13  C   UNL     1       1.007   8.783  20.838  0.00  0.00    +0.000 A 
ATOM     14  C   UNL     1       1.758   7.745  20.272  0.00  0.00    +0.000 A 
ATOM     15  C   UNL     1       2.243   7.842  18.958  0.00  0.00    +0.000 A 
ATOM     16  C   UNL     1       1.925   9.026  18.251  0.00  0.00    +0.000 A 
BRANCH  11  17
ATOM     17  N   UNL     1       0.943  11.224  18.057  0.00  0.00    +0.000 N 
ATOM     18  H   UNL     1       1.183  12.057  18.584  0.00  0.00    +0.000 HD
ATOM     19  H   UNL     1       0.032  11.302  17.611  0.00  0.00    +0.000 HD
ENDBRANCH  11  17
ENDBRANCH   1  15
BRANCH   3  20
ATOM     20  N   UNL     1       2.707   3.245  17.129  0.00  0.00    +0.000 N 
ATOM     21  H   UNL     1       2.849   2.914  16.183  0.00  0.00    +0.000 HD
BRANCH  20  22
ATOM     22  C   UNL     1       3.016   2.152  18.089  0.00  0.00    +0.000 C 
ATOM     23  C   UNL     1       1.771   1.652  18.837  0.00  0.00    +0.000 C 
ATOM     24  C   UNL     1       1.261   2.663  19.858  0.00  0.00    +0.000 C 
ATOM     25  C   UNL     1       2.355   3.086  20.836  0.00  0.00    +0.000 C 
ATOM     26  N   UNL     1       3.580   3.544  20.186  0.00  0.00    +0.000 NA
ATOM     27  C   UNL     1       4.063   2.663  19.115  0.00  0.00    +0.000 C 
ATOM     28  H   UNL     1       3.469   4.500  19.847  0.00  0.00    +0.000 HD
ENDBRANCH  20  22
ENDBRANCH   3  20
TORSDOF 4
ENDMDL
MODEL 9
REMARK VINA RESULT:      -8.1      1.583      4.292
REMARK  Name = 
REMARK  4 active torsions:
REMARK  status: ('A' for Active; 'I' for Inactive)
REMARK    1  A    between atoms: N_1  and  C_2
REMARK    2  A    between atoms: C_6  and  C_7
REMARK    3  A    between atoms: C_9  and  N_10
REMARK    4  A    between atoms: N_10  and  C_11
REMARK                            x       y       z     vdW  Elec       q    Type
REMARK                         _______ _______ _______ _____ _____    ______ ____
ROOT
ATOM      1  C   UNL     1       1.789   6.845  19.878  0.00  0.00    +0.000 A 
ATOM      2  C   UNL     1       2.665   6.797  18.758  0.00  0.00    +0.000 A 
ATOM      3  C   UNL     1       3.302   5.613  18.358  0.00  0.00    +0.000 A 
ATOM      4  C   UNL     1       3.037   4.433  19.085  0.00  0.00    +0.000 A 
ATOM      5  C   UNL     1       3.723   3.236  18.876  0.00  0.00    +0.000 A 
ATOM      6  C   UNL     1       3.095   2.050  19.183  0.00  0.00    +0.000 A 
ATOM      7  N   UNL     1       1.974   1.982  19.917  0.00  0.00    +0.000 NA
ATOM      8  C   UNL     1       1.495   3.154  20.396  0.00  0.00    +0.000 A 
ATOM      9  C   UNL     1       1.966   4.414  20.004  0.00  0.00    +0.000 A 
ATOM     10  C   UNL     1       1.411   5.636  20.443  0.00  0.00    +0.000 A 
ENDROOT
BRANCH   1  15
ATOM     11  C   UNL     1       0.467   9.483  22.308  0.00  0.00    +0.000 A 
ATOM     12  C   UNL     1       0.399  10.608  21.493  0.00  0.00    +0.000 A 
ATOM     13  C   UNL     1       0.852  10.545  20.171  0.00  0.00    +0.000 A 
ATOM     14  C   UNL     1       1.331   9.341  19.638  0.00  0.00    +0.000 A 
ATOM     15  C   UNL     1       1.351   8.170  20.412  0.00  0.00    +0.000 A 
ATOM     16  C   UNL     1       0.875   8.280  21.741  0.00  0.00    +0.000 A 
BRANCH  11  17
ATOM     17  N   UNL     1      -0.099   9.493  23.588  0.00  0.00    +0.000 N 
ATOM     18  H   UNL     1      -0.080  10.401  24.039  0.00  0.00    +0.000 HD
ATOM     19  H   UNL     1       0.254   8.756  24.195  0.00  0.00    +0.000 HD
ENDBRANCH  11  17
ENDBRANCH   1  15
BRANCH   3  20
ATOM     20  N   UNL     1       4.169   5.577  17.247  0.00  0.00    +0.000 N 
ATOM     21  H   UNL     1       3.682   5.746  16.376  0.00  0.00    +0.000 HD
BRANCH  20  22
ATOM     22  C   UNL     1       5.443   6.346  17.260  0.00  0.00    +0.000 C 
ATOM     23  C   UNL     1       6.351   6.006  16.069  0.00  0.00    +0.000 C 
ATOM     24  C   UNL     1       6.966   4.615  16.186  0.00  0.00    +0.000 C 
ATOM     25  C   UNL     1       7.705   4.428  17.509  0.00  0.00    +0.000 C 
ATOM     26  N   UNL     1       6.904   4.765  18.683  0.00  0.00    +0.000 NA
ATOM     27  C   UNL     1       6.196   6.049  18.585  0.00  0.00    +0.000 C 
ATOM     28  H   UNL     1       6.254   4.010  18.901  0.00  0.00    +0.000 HD
ENDBRANCH  20  22
ENDBRANCH   3  20
TORSDOF 4
ENDMDL
