MODEL 1
REMARK VINA RESULT:      -6.3      0.000      0.000
REMARK  Name = 
REMARK  15 active torsions:
REMARK  status: ('A' for Active; 'I' for Inactive)
REMARK    1  A    between atoms: C_1  and  C_2
REMARK    2  A    between atoms: C_2  and  O_3
REMARK    3  A    between atoms: O_3  and  C_4
REMARK    4  A    between atoms: C_6  and  C_7
REMARK    5  A    between atoms: N_9  and  C_10
REMARK    6  A    between atoms: C_10  and  C_11
REMARK    7  A    between atoms: C_10  and  C_12
REMARK    8  A    between atoms: C_12  and  O_13
REMARK    9  A    between atoms: O_13  and  C_14
REMARK   10  A    between atoms: C_16  and  O_17
REMARK   11  A    between atoms: O_17  and  C_18
REMARK   12  A    between atoms: C_18  and  C_19
REMARK   13  A    between atoms: C_20  and  O_21
REMARK   14  A    between atoms: O_21  and  C_22
REMARK   15  A    between atoms: C_22  and  C_23
REMARK                            x       y       z     vdW  Elec       q    Type
REMARK                         _______ _______ _______ _____ _____    ______ ____
ROOT
ATOM      1  C   UNL     1       2.933   5.550  19.640  0.00  0.00    +0.000 A 
ATOM      2  C   UNL     1       2.390   6.841  19.580  0.00  0.00    +0.000 A 
ATOM      3  C   UNL     1       2.605   7.669  18.484  0.00  0.00    +0.000 A 
ATOM      4  C   UNL     1       3.475   7.254  17.479  0.00  0.00    +0.000 A 
ATOM      5  C   UNL     1       4.103   5.998  17.555  0.00  0.00    +0.000 A 
ATOM      6  C   UNL     1       3.809   5.105  18.620  0.00  0.00    +0.000 A 
ENDROOT
BRANCH   3   7
ATOM      7  C   UNL     1       1.876   8.967  18.449  0.00  0.00    +0.000 C 
ATOM      8  O   UNL     1       2.059   9.732  17.512  0.00  0.00    +0.000 OA
ATOM      9  N   UNL     1       1.087   9.255  19.546  0.00  0.00    +0.000 N 
ATOM     10  H   UNL     1       1.289   8.752  20.400  0.00  0.00    +0.000 HD
BRANCH   9  11
ATOM     11  C   UNL     1       0.523  10.598  19.736  0.00  0.00    +0.000 C 
ATOM     12  C   UNL     1      -0.910  10.691  19.207  0.00  0.00    +0.000 C 
BRANCH  11  13
ATOM     13  C   UNL     1       0.531  10.984  21.227  0.00  0.00    +0.000 C 
BRANCH  13  14
ATOM     14  O   UNL     1       0.821  12.378  21.372  0.00  0.00    +0.000 OA
ATOM     15  C   UNL     1       1.816  12.795  20.440  0.00  0.00    +0.000 C 
ENDBRANCH  13  14
ENDBRANCH  11  13
ENDBRANCH   9  11
ENDBRANCH   3   7
BRANCH   1  16
ATOM     16  O   UNL     1       2.640   4.738  20.714  0.00  0.00    +0.000 OA
BRANCH  16  18
ATOM     17  C   UNL     1       1.442   2.763  21.430  0.00  0.00    +0.000 C 
ATOM     18  C   UNL     1       1.380   4.058  20.637  0.00  0.00    +0.000 C 
ENDBRANCH  16  18
ENDBRANCH   1  16
BRANCH   5  19
ATOM     19  O   UNL     1       4.924   5.779  16.474  0.00  0.00    +0.000 OA
BRANCH  19  20
ATOM     20  C   UNL     1       6.332   5.919  16.660  0.00  0.00    +0.000 C 
ATOM     21  C   UNL     1       6.998   4.639  16.174  0.00  0.00    +0.000 C 
ENDBRANCH  19  20
ENDBRANCH   5  19
BRANCH   6  22
ATOM     22  O   UNL     1       4.388   3.860  18.539  0.00  0.00    +0.000 OA
BRANCH  22  23
ATOM     23  C   UNL     1       3.757   2.859  17.742  0.00  0.00    +0.000 C 
ATOM     24  C   UNL     1       3.528   1.607  18.573  0.00  0.00    +0.000 C 
ENDBRANCH  22  23
ENDBRANCH   6  22
TORSDOF 10
ENDMDL
MODEL 2
REMARK VINA RESULT:      -6.2      1.220      3.742
REMARK  Name = 
REMARK  15 active torsions:
REMARK  status: ('A' for Active; 'I' for Inactive)
REMARK    1  A    between atoms: C_1  and  C_2
REMARK    2  A    between atoms: C_2  and  O_3
REMARK    3  A    between atoms: O_3  and  C_4
REMARK    4  A    between atoms: C_6  and  C_7
REMARK    5  A    between atoms: N_9  and  C_10
REMARK    6  A    between atoms: C_10  and  C_11
REMARK    7  A    between atoms: C_10  and  C_12
REMARK    8  A    between atoms: C_12  and  O_13
REMARK    9  A    between atoms: O_13  and  C_14
REMARK   10  A    between atoms: C_16  and  O_17
REMARK   11  A    between atoms: O_17  and  C_18
REMARK   12  A    between atoms: C_18  and  C_19
REMARK   13  A    between atoms: C_20  and  O_21
REMARK   14  A    between atoms: O_21  and  C_22
REMARK   15  A    between atoms: C_22  and  C_23
REMARK                            x       y       z     vdW  Elec       q    Type
REMARK                         _______ _______ _______ _____ _____    ______ ____
ROOT
ATOM      1  C   UNL     1       4.324   6.401  17.881  0.00  0.00    +0.000 A 
ATOM      2  C   UNL     1       3.493   7.514  17.688  0.00  0.00    +0.000 A 
ATOM      3  C   UNL     1       2.453   7.803  18.564  0.00  0.00    +0.000 A 
ATOM      4  C   UNL     1       2.155   6.905  19.585  0.00  0.00    +0.000 A 
ATOM      5  C   UNL     1       2.919   5.735  19.750  0.00  0.00    +0.000 A 
ATOM      6  C   UNL     1       4.045   5.485  18.924  0.00  0.00    +0.000 A 
ENDROOT
BRANCH   3   7
ATOM      7  C   UNL     1       1.712   9.078  18.355  0.00  0.00    +0.000 C 
ATOM      8  O   UNL     1       2.041   9.819  17.440  0.00  0.00    +0.000 OA
ATOM      9  N   UNL     1       0.734   9.376  19.284  0.00  0.00    +0.000 N 
ATOM     10  H   UNL     1       0.792   8.906  20.178  0.00  0.00    +0.000 HD
BRANCH   9  11
ATOM     11  C   UNL     1       0.114  10.707  19.324  0.00  0.00    +0.000 C 
ATOM     12  C   UNL     1      -1.049  10.821  18.334  0.00  0.00    +0.000 C 
BRANCH  11  13
ATOM     13  C   UNL     1      -0.403  11.023  20.739  0.00  0.00    +0.000 C 
BRANCH  13  14
ATOM     14  O   UNL     1      -0.416   9.835  21.535  0.00  0.00    +0.000 OA
ATOM     15  C   UNL     1      -0.435  10.148  22.926  0.00  0.00    +0.000 C 
ENDBRANCH  13  14
ENDBRANCH  11  13
ENDBRANCH   9  11
ENDBRANCH   3   7
BRANCH   1  16
ATOM     16  O   UNL     1       5.385   6.189  17.027  0.00  0.00    +0.000 OA
BRANCH  16  18
ATOM     17  C   UNL     1       7.513   6.565  18.113  0.00  0.00    +0.000 C 
ATOM     18  C   UNL     1       6.469   7.120  17.159  0.00  0.00    +0.000 C 
ENDBRANCH  16  18
ENDBRANCH   1  16
BRANCH   5  19
ATOM     19  O   UNL     1       2.464   4.981  20.807  0.00  0.00    +0.000 OA
BRANCH  19  20
ATOM     20  C   UNL     1       1.254   4.245  20.635  0.00  0.00    +0.000 C 
ATOM     21  C   UNL     1       1.383   2.944  21.414  0.00  0.00    +0.000 C 
ENDBRANCH  19  20
ENDBRANCH   5  19
BRANCH   6  22
ATOM     22  O   UNL     1       4.791   4.373  19.242  0.00  0.00    +0.000 OA
BRANCH  22  23
ATOM     23  C   UNL     1       4.428   3.116  18.673  0.00  0.00    +0.000 C 
ATOM     24  C   UNL     1       4.394   2.050  19.756  0.00  0.00    +0.000 C 
ENDBRANCH  22  23
ENDBRANCH   6  22
TORSDOF 10
ENDMDL
MODEL 3
REMARK VINA RESULT:      -6.2      1.022      1.302
REMARK  Name = 
REMARK  15 active torsions:
REMARK  status: ('A' for Active; 'I' for Inactive)
REMARK    1  A    between atoms: C_1  and  C_2
REMARK    2  A    between atoms: C_2  and  O_3
REMARK    3  A    between atoms: O_3  and  C_4
REMARK    4  A    between atoms: C_6  and  C_7
REMARK    5  A    between atoms: N_9  and  C_10
REMARK    6  A    between atoms: C_10  and  C_11
REMARK    7  A    between atoms: C_10  and  C_12
REMARK    8  A    between atoms: C_12  and  O_13
REMARK    9  A    between atoms: O_13  and  C_14
REMARK   10  A    between atoms: C_16  and  O_17
REMARK   11  A    between atoms: O_17  and  C_18
REMARK   12  A    between atoms: C_18  and  C_19
REMARK   13  A    between atoms: C_20  and  O_21
REMARK   14  A    between atoms: O_21  and  C_22
REMARK   15  A    between atoms: C_22  and  C_23
REMARK                            x       y       z     vdW  Elec       q    Type
REMARK                         _______ _______ _______ _____ _____    ______ ____
ROOT
ATOM      1  C   UNL     1       2.943   5.295  19.438  0.00  0.00    +0.000 A 
ATOM      2  C   UNL     1       2.361   6.570  19.380  0.00  0.00    +0.000 A 
ATOM      3  C   UNL     1       2.752   7.504  18.427  0.00  0.00    +0.000 A 
ATOM      4  C   UNL     1       3.826   7.213  17.591  0.00  0.00    +0.000 A 
ATOM      5  C   UNL     1       4.487   5.974  17.686  0.00  0.00    +0.000 A 
ATOM      6  C   UNL     1       4.028   4.976  18.585  0.00  0.00    +0.000 A 
ENDROOT
BRANCH   3   7
ATOM      7  C   UNL     1       1.983   8.777  18.356  0.00  0.00    +0.000 C 
ATOM      8  O   UNL     1       2.123   9.509  17.386  0.00  0.00    +0.000 OA
ATOM      9  N   UNL     1       1.208   9.086  19.458  0.00  0.00    +0.000 N 
ATOM     10  H   UNL     1       1.443   8.624  20.327  0.00  0.00    +0.000 HD
BRANCH   9  11
ATOM     11  C   UNL     1       0.607  10.417  19.606  0.00  0.00    +0.000 C 
ATOM     12  C   UNL     1      -0.800  10.475  19.006  0.00  0.00    +0.000 C 
BRANCH  11  13
ATOM     13  C   UNL     1       0.532  10.818  21.091  0.00  0.00    +0.000 C 
BRANCH  13  14
ATOM     14  O   UNL     1      -0.484  10.060  21.754  0.00  0.00    +0.000 OA
ATOM     15  C   UNL     1      -0.023   9.573  23.013  0.00  0.00    +0.000 C 
ENDBRANCH  13  14
ENDBRANCH  11  13
ENDBRANCH   9  11
ENDBRANCH   3   7
BRANCH   1  16
ATOM     16  O   UNL     1       2.479   4.377  20.354  0.00  0.00    +0.000 OA
BRANCH  16  18
ATOM     17  C   UNL     1       0.644   2.979  19.628  0.00  0.00    +0.000 C 
ATOM     18  C   UNL     1       1.053   4.225  20.396  0.00  0.00    +0.000 C 
ENDBRANCH  16  18
ENDBRANCH   1  16
BRANCH   5  19
ATOM     19  O   UNL     1       5.519   5.883  16.781  0.00  0.00    +0.000 OA
BRANCH  19  20
ATOM     20  C   UNL     1       5.198   5.575  15.426  0.00  0.00    +0.000 C 
ATOM     21  C   UNL     1       6.068   4.403  14.993  0.00  0.00    +0.000 C 
ENDBRANCH  19  20
ENDBRANCH   5  19
BRANCH   6  22
ATOM     22  O   UNL     1       4.671   3.762  18.517  0.00  0.00    +0.000 OA
BRANCH  22  23
ATOM     23  C   UNL     1       4.115   2.734  17.698  0.00  0.00    +0.000 C 
ATOM     24  C   UNL     1       3.715   1.548  18.560  0.00  0.00    +0.000 C 
ENDBRANCH  22  23
ENDBRANCH   6  22
TORSDOF 10
ENDMDL
MODEL 4
REMARK VINA RESULT:      -6.2      4.607      8.120
REMARK  Name = 
REMARK  15 active torsions:
REMARK  status: ('A' for Active; 'I' for Inactive)
REMARK    1  A    between atoms: C_1  and  C_2
REMARK    2  A    between atoms: C_2  and  O_3
REMARK    3  A    between atoms: O_3  and  C_4
REMARK    4  A    between atoms: C_6  and  C_7
REMARK    5  A    between atoms: N_9  and  C_10
REMARK    6  A    between atoms: C_10  and  C_11
REMARK    7  A    between atoms: C_10  and  C_12
REMARK    8  A    between atoms: C_12  and  O_13
REMARK    9  A    between atoms: O_13  and  C_14
REMARK   10  A    between atoms: C_16  and  O_17
REMARK   11  A    between atoms: O_17  and  C_18
REMARK   12  A    between atoms: C_18  and  C_19
REMARK   13  A    between atoms: C_20  and  O_21
REMARK   14  A    between atoms: O_21  and  C_22
REMARK   15  A    between atoms: C_22  and  C_23
REMARK                            x       y       z     vdW  Elec       q    Type
REMARK                         _______ _______ _______ _____ _____    ______ ____
ROOT
ATOM      1  C   UNL     1       6.639   4.465  17.793  0.00  0.00    +0.000 A 
ATOM      2  C   UNL     1       6.963   4.326  16.435  0.00  0.00    +0.000 A 
ATOM      3  C   UNL     1       5.982   4.109  15.474  0.00  0.00    +0.000 A 
ATOM      4  C   UNL     1       4.666   3.906  15.879  0.00  0.00    +0.000 A 
ATOM      5  C   UNL     1       4.326   3.954  17.243  0.00  0.00    +0.000 A 
ATOM      6  C   UNL     1       5.303   4.276  18.222  0.00  0.00    +0.000 A 
ENDROOT
BRANCH   3   7
ATOM      7  C   UNL     1       6.407   4.111  14.046  0.00  0.00    +0.000 C 
ATOM      8  O   UNL     1       7.080   5.040  13.622  0.00  0.00    +0.000 OA
ATOM      9  N   UNL     1       5.928   3.077  13.265  0.00  0.00    +0.000 N 
ATOM     10  H   UNL     1       5.108   2.589  13.601  0.00  0.00    +0.000 HD
BRANCH   9  11
ATOM     11  C   UNL     1       6.074   3.107  11.803  0.00  0.00    +0.000 C 
ATOM     12  C   UNL     1       7.147   2.129  11.320  0.00  0.00    +0.000 C 
BRANCH  11  13
ATOM     13  C   UNL     1       4.739   2.763  11.117  0.00  0.00    +0.000 C 
BRANCH  13  14
ATOM     14  O   UNL     1       4.002   3.960  10.849  0.00  0.00    +0.000 OA
ATOM     15  C   UNL     1       3.015   3.741   9.844  0.00  0.00    +0.000 C 
ENDBRANCH  13  14
ENDBRANCH  11  13
ENDBRANCH   9  11
ENDBRANCH   3   7
BRANCH   1  16
ATOM     16  O   UNL     1       7.634   4.746  18.704  0.00  0.00    +0.000 OA
BRANCH  16  18
ATOM     17  C   UNL     1       7.814   7.057  18.017  0.00  0.00    +0.000 C 
ATOM     18  C   UNL     1       7.656   6.097  19.184  0.00  0.00    +0.000 C 
ENDBRANCH  16  18
ENDBRANCH   1  16
BRANCH   5  19
ATOM     19  O   UNL     1       2.984   3.724  17.436  0.00  0.00    +0.000 OA
BRANCH  19  20
ATOM     20  C   UNL     1       2.558   2.382  17.668  0.00  0.00    +0.000 C 
ATOM     21  C   UNL     1       1.288   2.432  18.505  0.00  0.00    +0.000 C 
ENDBRANCH  19  20
ENDBRANCH   5  19
BRANCH   6  22
ATOM     22  O   UNL     1       4.843   4.410  19.511  0.00  0.00    +0.000 OA
BRANCH  22  23
ATOM     23  C   UNL     1       3.943   5.475  19.813  0.00  0.00    +0.000 C 
ATOM     24  C   UNL     1       2.742   4.936  20.574  0.00  0.00    +0.000 C 
ENDBRANCH  22  23
ENDBRANCH   6  22
TORSDOF 10
ENDMDL
MODEL 5
REMARK VINA RESULT:      -6.1      0.972      3.661
REMARK  Name = 
REMARK  15 active torsions:
REMARK  status: ('A' for Active; 'I' for Inactive)
REMARK    1  A    between atoms: C_1  and  C_2
REMARK    2  A    between atoms: C_2  and  O_3
REMARK    3  A    between atoms: O_3  and  C_4
REMARK    4  A    between atoms: C_6  and  C_7
REMARK    5  A    between atoms: N_9  and  C_10
REMARK    6  A    between atoms: C_10  and  C_11
REMARK    7  A    between atoms: C_10  and  C_12
REMARK    8  A    between atoms: C_12  and  O_13
REMARK    9  A    between atoms: O_13  and  C_14
REMARK   10  A    between atoms: C_16  and  O_17
REMARK   11  A    between atoms: O_17  and  C_18
REMARK   12  A    between atoms: C_18  and  C_19
REMARK   13  A    between atoms: C_20  and  O_21
REMARK   14  A    between atoms: O_21  and  C_22
REMARK   15  A    between atoms: C_22  and  C_23
REMARK                            x       y       z     vdW  Elec       q    Type
REMARK                         _______ _______ _______ _____ _____    ______ ____
ROOT
ATOM      1  C   UNL     1       4.339   6.097  17.631  0.00  0.00    +0.000 A 
ATOM      2  C   UNL     1       3.649   7.317  17.590  0.00  0.00    +0.000 A 
ATOM      3  C   UNL     1       2.491   7.521  18.331  0.00  0.00    +0.000 A 
ATOM      4  C   UNL     1       1.937   6.455  19.034  0.00  0.00    +0.000 A 
ATOM      5  C   UNL     1       2.562   5.194  19.023  0.00  0.00    +0.000 A 
ATOM      6  C   UNL     1       3.799   5.005  18.353  0.00  0.00    +0.000 A 
ENDROOT
BRANCH   3   7
ATOM      7  C   UNL     1       1.905   8.891  18.329  0.00  0.00    +0.000 C 
ATOM      8  O   UNL     1       2.182   9.660  17.420  0.00  0.00    +0.000 OA
ATOM      9  N   UNL     1       1.136   9.228  19.427  0.00  0.00    +0.000 N 
ATOM     10  H   UNL     1       1.271   8.680  20.267  0.00  0.00    +0.000 HD
BRANCH   9  11
ATOM     11  C   UNL     1       0.716  10.617  19.653  0.00  0.00    +0.000 C 
ATOM     12  C   UNL     1      -0.693  10.879  19.114  0.00  0.00    +0.000 C 
BRANCH  11  13
ATOM     13  C   UNL     1       0.746  10.955  21.155  0.00  0.00    +0.000 C 
BRANCH  13  14
ATOM     14  O   UNL     1       0.800   9.753  21.929  0.00  0.00    +0.000 OA
ATOM     15  C   UNL     1      -0.165   9.773  22.978  0.00  0.00    +0.000 C 
ENDBRANCH  13  14
ENDBRANCH  11  13
ENDBRANCH   9  11
ENDBRANCH   3   7
BRANCH   1  16
ATOM     16  O   UNL     1       5.520   5.960  16.934  0.00  0.00    +0.000 OA
BRANCH  16  18
ATOM     17  C   UNL     1       6.119   4.517  15.088  0.00  0.00    +0.000 C 
ATOM     18  C   UNL     1       5.374   5.770  15.520  0.00  0.00    +0.000 C 
ENDBRANCH  16  18
ENDBRANCH   1  16
BRANCH   5  19
ATOM     19  O   UNL     1       1.860   4.277  19.770  0.00  0.00    +0.000 OA
BRANCH  19  20
ATOM     20  C   UNL     1       2.145   4.189  21.165  0.00  0.00    +0.000 C 
ATOM     21  C   UNL     1       1.752   2.796  21.636  0.00  0.00    +0.000 C 
ENDBRANCH  19  20
ENDBRANCH   5  19
BRANCH   6  22
ATOM     22  O   UNL     1       4.382   3.768  18.500  0.00  0.00    +0.000 OA
BRANCH  22  23
ATOM     23  C   UNL     1       3.983   2.712  17.628  0.00  0.00    +0.000 C 
ATOM     24  C   UNL     1       3.518   1.517  18.443  0.00  0.00    +0.000 C 
ENDBRANCH  22  23
ENDBRANCH   6  22
TORSDOF 10
ENDMDL
MODEL 6
REMARK VINA RESULT:      -6.1      2.061      4.282
REMARK  Name = 
REMARK  15 active torsions:
REMARK  status: ('A' for Active; 'I' for Inactive)
REMARK    1  A    between atoms: C_1  and  C_2
REMARK    2  A    between atoms: C_2  and  O_3
REMARK    3  A    between atoms: O_3  and  C_4
REMARK    4  A    between atoms: C_6  and  C_7
REMARK    5  A    between atoms: N_9  and  C_10
REMARK    6  A    between atoms: C_10  and  C_11
REMARK    7  A    between atoms: C_10  and  C_12
REMARK    8  A    between atoms: C_12  and  O_13
REMARK    9  A    between atoms: O_13  and  C_14
REMARK   10  A    between atoms: C_16  and  O_17
REMARK   11  A    between atoms: O_17  and  C_18
REMARK   12  A    between atoms: C_18  and  C_19
REMARK   13  A    between atoms: C_20  and  O_21
REMARK   14  A    between atoms: O_21  and  C_22
REMARK   15  A    between atoms: C_22  and  C_23
REMARK                            x       y       z     vdW  Elec       q    Type
REMARK                         _______ _______ _______ _____ _____    ______ ____
ROOT
ATOM      1  C   UNL     1       5.014   6.527  17.003  0.00  0.00    +0.000 A 
ATOM      2  C   UNL     1       4.119   7.420  17.610  0.00  0.00    +0.000 A 
ATOM      3  C   UNL     1       2.936   6.979  18.192  0.00  0.00    +0.000 A 
ATOM      4  C   UNL     1       2.574   5.641  18.065  0.00  0.00    +0.000 A 
ATOM      5  C   UNL     1       3.412   4.738  17.385  0.00  0.00    +0.000 A 
ATOM      6  C   UNL     1       4.669   5.159  16.878  0.00  0.00    +0.000 A 
ENDROOT
BRANCH   3   7
ATOM      7  C   UNL     1       2.117   7.980  18.930  0.00  0.00    +0.000 C 
ATOM      8  O   UNL     1       1.886   7.806  20.118  0.00  0.00    +0.000 OA
ATOM      9  N   UNL     1       1.598   9.018  18.181  0.00  0.00    +0.000 N 
ATOM     10  H   UNL     1       1.534   8.874  17.181  0.00  0.00    +0.000 HD
BRANCH   9  11
ATOM     11  C   UNL     1       0.584   9.919  18.742  0.00  0.00    +0.000 C 
ATOM     12  C   UNL     1       1.134  11.332  18.954  0.00  0.00    +0.000 C 
BRANCH  11  13
ATOM     13  C   UNL     1      -0.646   9.996  17.819  0.00  0.00    +0.000 C 
BRANCH  13  14
ATOM     14  O   UNL     1      -1.791  10.429  18.560  0.00  0.00    +0.000 OA
ATOM     15  C   UNL     1      -2.540  11.397  17.829  0.00  0.00    +0.000 C 
ENDBRANCH  13  14
ENDBRANCH  11  13
ENDBRANCH   9  11
ENDBRANCH   3   7
BRANCH   1  16
ATOM     16  O   UNL     1       6.207   6.998  16.498  0.00  0.00    +0.000 OA
BRANCH  16  18
ATOM     17  C   UNL     1       7.854   8.310  17.686  0.00  0.00    +0.000 C 
ATOM     18  C   UNL     1       7.322   6.916  17.396  0.00  0.00    +0.000 C 
ENDBRANCH  16  18
ENDBRANCH   1  16
BRANCH   5  19
ATOM     19  O   UNL     1       2.877   3.471  17.365  0.00  0.00    +0.000 OA
BRANCH  19  20
ATOM     20  C   UNL     1       1.701   3.226  18.136  0.00  0.00    +0.000 C 
ATOM     21  C   UNL     1       2.004   2.090  19.103  0.00  0.00    +0.000 C 
ENDBRANCH  19  20
ENDBRANCH   5  19
BRANCH   6  22
ATOM     22  O   UNL     1       5.460   4.174  16.334  0.00  0.00    +0.000 OA
BRANCH  22  23
ATOM     23  C   UNL     1       5.450   3.987  14.920  0.00  0.00    +0.000 C 
ATOM     24  C   UNL     1       6.754   4.492  14.323  0.00  0.00    +0.000 C 
ENDBRANCH  22  23
ENDBRANCH   6  22
TORSDOF 10
ENDMDL
MODEL 7
REMARK VINA RESULT:      -6.0      4.140      8.085
REMARK  Name = 
REMARK  15 active torsions:
REMARK  status: ('A' for Active; 'I' for Inactive)
REMARK    1  A    between atoms: C_1  and  C_2
REMARK    2  A    between atoms: C_2  and  O_3
REMARK    3  A    between atoms: O_3  and  C_4
REMARK    4  A    between atoms: C_6  and  C_7
REMARK    5  A    between atoms: N_9  and  C_10
REMARK    6  A    between atoms: C_10  and  C_11
REMARK    7  A    between atoms: C_10  and  C_12
REMARK    8  A    between atoms: C_12  and  O_13
REMARK    9  A    between atoms: O_13  and  C_14
REMARK   10  A    between atoms: C_16  and  O_17
REMARK   11  A    between atoms: O_17  and  C_18
REMARK   12  A    between atoms: C_18  and  C_19
REMARK   13  A    between atoms: C_20  and  O_21
REMARK   14  A    between atoms: O_21  and  C_22
REMARK   15  A    between atoms: C_22  and  C_23
REMARK                            x       y       z     vdW  Elec       q    Type
REMARK                         _______ _______ _______ _____ _____    ______ ____
ROOT
ATOM      1  C   UNL     1       6.013   6.086  17.439  0.00  0.00    +0.000 A 
ATOM      2  C   UNL     1       6.450   5.737  16.153  0.00  0.00    +0.000 A 
ATOM      3  C   UNL     1       5.963   4.609  15.503  0.00  0.00    +0.000 A 
ATOM      4  C   UNL     1       5.116   3.742  16.187  0.00  0.00    +0.000 A 
ATOM      5  C   UNL     1       4.729   4.022  17.511  0.00  0.00    +0.000 A 
ATOM      6  C   UNL     1       5.140   5.224  18.145  0.00  0.00    +0.000 A 
ENDROOT
BRANCH   3   7
ATOM      7  C   UNL     1       6.382   4.395  14.089  0.00  0.00    +0.000 C 
ATOM      8  O   UNL     1       7.183   5.166  13.579  0.00  0.00    +0.000 OA
ATOM      9  N   UNL     1       5.758   3.363  13.416  0.00  0.00    +0.000 N 
ATOM     10  H   UNL     1       4.877   3.038  13.791  0.00  0.00    +0.000 HD
BRANCH   9  11
ATOM     11  C   UNL     1       5.906   3.214  11.963  0.00  0.00    +0.000 C 
ATOM     12  C   UNL     1       6.929   2.134  11.603  0.00  0.00    +0.000 C 
BRANCH  11  13
ATOM     13  C   UNL     1       4.556   2.858  11.313  0.00  0.00    +0.000 C 
BRANCH  13  14
ATOM     14  O   UNL     1       3.865   4.051  10.930  0.00  0.00    +0.000 OA
ATOM     15  C   UNL     1       3.082   3.837   9.758  0.00  0.00    +0.000 C 
ENDBRANCH  13  14
ENDBRANCH  11  13
ENDBRANCH   9  11
ENDBRANCH   3   7
BRANCH   1  16
ATOM     16  O   UNL     1       6.471   7.249  18.020  0.00  0.00    +0.000 OA
BRANCH  16  18
ATOM     17  C   UNL     1       8.090   9.045  17.989  0.00  0.00    +0.000 C 
ATOM     18  C   UNL     1       7.845   7.564  17.754  0.00  0.00    +0.000 C 
ENDBRANCH  16  18
ENDBRANCH   1  16
BRANCH   5  19
ATOM     19  O   UNL     1       3.898   3.047  18.010  0.00  0.00    +0.000 OA
BRANCH  19  20
ATOM     20  C   UNL     1       2.729   2.714  17.263  0.00  0.00    +0.000 C 
ATOM     21  C   UNL     1       1.676   3.777  17.542  0.00  0.00    +0.000 C 
ENDBRANCH  19  20
ENDBRANCH   5  19
BRANCH   6  22
ATOM     22  O   UNL     1       4.613   5.456  19.395  0.00  0.00    +0.000 OA
BRANCH  22  23
ATOM     23  C   UNL     1       3.392   6.186  19.502  0.00  0.00    +0.000 C 
ATOM     24  C   UNL     1       2.481   5.520  20.521  0.00  0.00    +0.000 C 
ENDBRANCH  22  23
ENDBRANCH   6  22
TORSDOF 10
ENDMDL
MODEL 8
REMARK VINA RESULT:      -6.0      4.306      7.501
REMARK  Name = 
REMARK  15 active torsions:
REMARK  status: ('A' for Active; 'I' for Inactive)
REMARK    1  A    between atoms: C_1  and  C_2
REMARK    2  A    between atoms: C_2  and  O_3
REMARK    3  A    between atoms: O_3  and  C_4
REMARK    4  A    between atoms: C_6  and  C_7
REMARK    5  A    between atoms: N_9  and  C_10
REMARK    6  A    between atoms: C_10  and  C_11
REMARK    7  A    between atoms: C_10  and  C_12
REMARK    8  A    between atoms: C_12  and  O_13
REMARK    9  A    between atoms: O_13  and  C_14
REMARK   10  A    between atoms: C_16  and  O_17
REMARK   11  A    between atoms: O_17  and  C_18
REMARK   12  A    between atoms: C_18  and  C_19
REMARK   13  A    between atoms: C_20  and  O_21
REMARK   14  A    between atoms: O_21  and  C_22
REMARK   15  A    between atoms: C_22  and  C_23
REMARK                            x       y       z     vdW  Elec       q    Type
REMARK                         _______ _______ _______ _____ _____    ______ ____
ROOT
ATOM      1  C   UNL     1       4.439   3.778  17.336  0.00  0.00    +0.000 A 
ATOM      2  C   UNL     1       4.858   3.711  16.000  0.00  0.00    +0.000 A 
ATOM      3  C   UNL     1       5.812   4.586  15.493  0.00  0.00    +0.000 A 
ATOM      4  C   UNL     1       6.275   5.625  16.295  0.00  0.00    +0.000 A 
ATOM      5  C   UNL     1       5.808   5.769  17.614  0.00  0.00    +0.000 A 
ATOM      6  C   UNL     1       4.911   4.820  18.171  0.00  0.00    +0.000 A 
ENDROOT
BRANCH   3   7
ATOM      7  C   UNL     1       6.292   4.350  14.102  0.00  0.00    +0.000 C 
ATOM      8  O   UNL     1       7.173   5.063  13.644  0.00  0.00    +0.000 OA
ATOM      9  N   UNL     1       5.632   3.370  13.386  0.00  0.00    +0.000 N 
ATOM     10  H   UNL     1       4.710   3.109  13.709  0.00  0.00    +0.000 HD
BRANCH   9  11
ATOM     11  C   UNL     1       5.848   3.220  11.941  0.00  0.00    +0.000 C 
ATOM     12  C   UNL     1       6.847   2.102  11.630  0.00  0.00    +0.000 C 
BRANCH  11  13
ATOM     13  C   UNL     1       4.521   2.916  11.222  0.00  0.00    +0.000 C 
BRANCH  13  14
ATOM     14  O   UNL     1       3.885   4.136  10.828  0.00  0.00    +0.000 OA
ATOM     15  C   UNL     1       3.007   3.924   9.725  0.00  0.00    +0.000 C 
ENDBRANCH  13  14
ENDBRANCH  11  13
ENDBRANCH   9  11
ENDBRANCH   3   7
BRANCH   1  16
ATOM     16  O   UNL     1       3.541   2.850  17.815  0.00  0.00    +0.000 OA
BRANCH  16  18
ATOM     17  C   UNL     1       1.268   2.405  18.511  0.00  0.00    +0.000 C 
ATOM     18  C   UNL     1       2.165   3.123  17.517  0.00  0.00    +0.000 C 
ENDBRANCH  16  18
ENDBRANCH   1  16
BRANCH   5  19
ATOM     19  O   UNL     1       6.379   6.855  18.235  0.00  0.00    +0.000 OA
BRANCH  19  20
ATOM     20  C   UNL     1       7.765   7.106  18.008  0.00  0.00    +0.000 C 
ATOM     21  C   UNL     1       7.933   8.594  17.734  0.00  0.00    +0.000 C 
ENDBRANCH  19  20
ENDBRANCH   5  19
BRANCH   6  22
ATOM     22  O   UNL     1       4.606   4.988  19.502  0.00  0.00    +0.000 OA
BRANCH  22  23
ATOM     23  C   UNL     1       3.415   5.690  19.852  0.00  0.00    +0.000 C 
ATOM     24  C   UNL     1       2.565   4.835  20.777  0.00  0.00    +0.000 C 
ENDBRANCH  22  23
ENDBRANCH   6  22
TORSDOF 10
ENDMDL
MODEL 9
REMARK VINA RESULT:      -6.0      0.877      3.453
REMARK  Name = 
REMARK  15 active torsions:
REMARK  status: ('A' for Active; 'I' for Inactive)
REMARK    1  A    between atoms: C_1  and  C_2
REMARK    2  A    between atoms: C_2  and  O_3
REMARK    3  A    between atoms: O_3  and  C_4
REMARK    4  A    between atoms: C_6  and  C_7
REMARK    5  A    between atoms: N_9  and  C_10
REMARK    6  A    between atoms: C_10  and  C_11
REMARK    7  A    between atoms: C_10  and  C_12
REMARK    8  A    between atoms: C_12  and  O_13
REMARK    9  A    between atoms: O_13  and  C_14
REMARK   10  A    between atoms: C_16  and  O_17
REMARK   11  A    between atoms: O_17  and  C_18
REMARK   12  A    between atoms: C_18  and  C_19
REMARK   13  A    between atoms: C_20  and  O_21
REMARK   14  A    between atoms: O_21  and  C_22
REMARK   15  A    between atoms: C_22  and  C_23
REMARK                            x       y       z     vdW  Elec       q    Type
REMARK                         _______ _______ _______ _____ _____    ______ ____
ROOT
ATOM      1  C   UNL     1       4.536   6.279  17.886  0.00  0.00    +0.000 A 
ATOM      2  C   UNL     1       3.698   7.384  17.681  0.00  0.00    +0.000 A 
ATOM      3  C   UNL     1       2.625   7.648  18.525  0.00  0.00    +0.000 A 
ATOM      4  C   UNL     1       2.303   6.731  19.522  0.00  0.00    +0.000 A 
ATOM      5  C   UNL     1       3.076   5.568  19.696  0.00  0.00    +0.000 A 
ATOM      6  C   UNL     1       4.233   5.343  18.905  0.00  0.00    +0.000 A 
ENDROOT
BRANCH   3   7
ATOM      7  C   UNL     1       1.875   8.917  18.309  0.00  0.00    +0.000 C 
ATOM      8  O   UNL     1       2.077   9.566  17.293  0.00  0.00    +0.000 OA
ATOM      9  N   UNL     1       1.045   9.319  19.337  0.00  0.00    +0.000 N 
ATOM     10  H   UNL     1       1.227   8.928  20.253  0.00  0.00    +0.000 HD
BRANCH   9  11
ATOM     11  C   UNL     1       0.452  10.662  19.345  0.00  0.00    +0.000 C 
ATOM     12  C   UNL     1      -0.914  10.683  18.653  0.00  0.00    +0.000 C 
BRANCH  11  13
ATOM     13  C   UNL     1       0.288  11.176  20.787  0.00  0.00    +0.000 C 
BRANCH  13  14
ATOM     14  O   UNL     1       1.431  11.949  21.166  0.00  0.00    +0.000 OA
ATOM     15  C   UNL     1       1.350  13.275  20.650  0.00  0.00    +0.000 C 
ENDBRANCH  13  14
ENDBRANCH  11  13
ENDBRANCH   9  11
ENDBRANCH   3   7
BRANCH   1  16
ATOM     16  O   UNL     1       5.628   6.092  17.066  0.00  0.00    +0.000 OA
BRANCH  16  18
ATOM     17  C   UNL     1       5.412   4.346  15.407  0.00  0.00    +0.000 C 
ATOM     18  C   UNL     1       5.319   5.837  15.689  0.00  0.00    +0.000 C 
ENDBRANCH  16  18
ENDBRANCH   1  16
BRANCH   5  19
ATOM     19  O   UNL     1       2.594   4.793  20.725  0.00  0.00    +0.000 OA
BRANCH  19  20
ATOM     20  C   UNL     1       1.203   4.477  20.734  0.00  0.00    +0.000 C 
ATOM     21  C   UNL     1       0.996   3.252  19.856  0.00  0.00    +0.000 C 
ENDBRANCH  19  20
ENDBRANCH   5  19
BRANCH   6  22
ATOM     22  O   UNL     1       4.981   4.236  19.233  0.00  0.00    +0.000 OA
BRANCH  22  23
ATOM     23  C   UNL     1       4.538   2.953  18.795  0.00  0.00    +0.000 C 
ATOM     24  C   UNL     1       4.482   1.996  19.975  0.00  0.00    +0.000 C 
ENDBRANCH  22  23
ENDBRANCH   6  22
TORSDOF 10
ENDMDL
