MODEL 1
REMARK VINA RESULT:      -7.1      0.000      0.000
REMARK  Name = 
REMARK  6 active torsions:
REMARK  status: ('A' for Active; 'I' for Inactive)
REMARK    1  A    between atoms: C_1  and  O_2
REMARK    2  A    between atoms: O_2  and  C_3
REMARK    3  A    between atoms: C_6  and  C_7
REMARK    4  A    between atoms: C_10  and  C_11
REMARK    5  A    between atoms: C_11  and  N_12
REMARK    6  A    between atoms: N_17  and  C_18
REMARK                            x       y       z     vdW  Elec       q    Type
REMARK                         _______ _______ _______ _____ _____    ______ ____
ROOT
ATOM      1  C   UNL     1       2.426   6.212  19.655  0.00  0.00    +0.000 A 
ATOM      2  C   UNL     1       1.840   5.120  20.265  0.00  0.00    +0.000 A 
ATOM      3  C   UNL     1       2.781   4.061  20.205  0.00  0.00    +0.000 A 
ATOM      4  C   UNL     1       3.866   4.545  19.509  0.00  0.00    +0.000 A 
ATOM      5  O   UNL     1       3.661   5.855  19.185  0.00  0.00    +0.000 OA
ENDROOT
BRANCH   1   9
ATOM      6  C   UNL     1       1.088  10.237  19.033  0.00  0.00    +0.000 A 
ATOM      7  C   UNL     1       1.747   9.549  18.015  0.00  0.00    +0.000 A 
ATOM      8  C   UNL     1       2.210   8.242  18.223  0.00  0.00    +0.000 A 
ATOM      9  C   UNL     1       2.034   7.607  19.461  0.00  0.00    +0.000 A 
ATOM     10  C   UNL     1       1.425   8.335  20.492  0.00  0.00    +0.000 A 
ATOM     11  C   UNL     1       0.953   9.635  20.281  0.00  0.00    +0.000 A 
BRANCH   6  13
ATOM     12  C   UNL     1      -0.763  11.602  18.522  0.00  0.00    +0.000 C 
ATOM     13  O   UNL     1       0.645  11.491  18.715  0.00  0.00    +0.000 OA
ENDBRANCH   6  13
ENDBRANCH   1   9
BRANCH   4  14
ATOM     14  C   UNL     1       5.149   3.939  19.051  0.00  0.00    +0.000 C 
BRANCH  14  15
ATOM     15  N   UNL     1       5.566   4.279  17.697  0.00  0.00    +0.000 N 
ATOM     16  C   UNL     1       4.565   4.082  16.646  0.00  0.00    +0.000 C 
ATOM     17  C   UNL     1       5.319   4.014  15.327  0.00  0.00    +0.000 C 
ATOM     18  S   UNL     1       6.651   5.221  15.539  0.00  0.00    +0.000 S 
ATOM     19  C   UNL     1       6.662   5.029  17.317  0.00  0.00    +0.000 C 
ATOM     20  N   UNL     1       7.664   5.590  17.886  0.00  0.00    +0.000 NA
BRANCH  20  21
ATOM     21  C   UNL     1       7.822   5.546  19.200  0.00  0.00    +0.000 C 
ATOM     22  N   UNL     1       7.964   5.499  20.351  0.00  0.00    +0.000 NA
ENDBRANCH  20  21
ENDBRANCH  14  15
ENDBRANCH   4  14
TORSDOF 5
ENDMDL
MODEL 2
REMARK VINA RESULT:      -7.1      2.218      3.685
REMARK  Name = 
REMARK  6 active torsions:
REMARK  status: ('A' for Active; 'I' for Inactive)
REMARK    1  A    between atoms: C_1  and  O_2
REMARK    2  A    between atoms: O_2  and  C_3
REMARK    3  A    between atoms: C_6  and  C_7
REMARK    4  A    between atoms: C_10  and  C_11
REMARK    5  A    between atoms: C_11  and  N_12
REMARK    6  A    between atoms: N_17  and  C_18
REMARK                            x       y       z     vdW  Elec       q    Type
REMARK                         _______ _______ _______ _____ _____    ______ ____
ROOT
ATOM      1  C   UNL     1       1.712   8.363  19.592  0.00  0.00    +0.000 A 
ATOM      2  C   UNL     1       1.965   8.430  18.235  0.00  0.00    +0.000 A 
ATOM      3  C   UNL     1       2.764   7.306  17.909  0.00  0.00    +0.000 A 
ATOM      4  C   UNL     1       3.006   6.645  19.092  0.00  0.00    +0.000 A 
ATOM      5  O   UNL     1       2.358   7.275  20.114  0.00  0.00    +0.000 OA
ENDROOT
BRANCH   1   9
ATOM      6  C   UNL     1      -0.490  10.759  22.382  0.00  0.00    +0.000 A 
ATOM      7  C   UNL     1      -0.083   9.471  22.727  0.00  0.00    +0.000 A 
ATOM      8  C   UNL     1       0.614   8.674  21.808  0.00  0.00    +0.000 A 
ATOM      9  C   UNL     1       0.903   9.149  20.521  0.00  0.00    +0.000 A 
ATOM     10  C   UNL     1       0.434  10.422  20.170  0.00  0.00    +0.000 A 
ATOM     11  C   UNL     1      -0.253  11.222  21.090  0.00  0.00    +0.000 A 
BRANCH   6  13
ATOM     12  C   UNL     1      -1.329  12.848  23.078  0.00  0.00    +0.000 C 
ATOM     13  O   UNL     1      -1.130  11.465  23.363  0.00  0.00    +0.000 OA
ENDBRANCH   6  13
ENDBRANCH   1   9
BRANCH   4  14
ATOM     14  C   UNL     1       3.812   5.444  19.455  0.00  0.00    +0.000 C 
BRANCH  14  15
ATOM     15  N   UNL     1       5.003   5.209  18.649  0.00  0.00    +0.000 N 
ATOM     16  C   UNL     1       6.278   5.607  19.252  0.00  0.00    +0.000 C 
ATOM     17  C   UNL     1       7.279   5.742  18.116  0.00  0.00    +0.000 C 
ATOM     18  S   UNL     1       6.822   4.402  16.989  0.00  0.00    +0.000 S 
ATOM     19  C   UNL     1       5.118   4.406  17.532  0.00  0.00    +0.000 C 
ATOM     20  N   UNL     1       4.345   3.698  16.795  0.00  0.00    +0.000 NA
BRANCH  20  21
ATOM     21  C   UNL     1       3.052   3.591  17.060  0.00  0.00    +0.000 C 
ATOM     22  N   UNL     1       1.921   3.490  17.298  0.00  0.00    +0.000 NA
ENDBRANCH  20  21
ENDBRANCH  14  15
ENDBRANCH   4  14
TORSDOF 5
ENDMDL
MODEL 3
REMARK VINA RESULT:      -7.0      2.785      4.358
REMARK  Name = 
REMARK  6 active torsions:
REMARK  status: ('A' for Active; 'I' for Inactive)
REMARK    1  A    between atoms: C_1  and  O_2
REMARK    2  A    between atoms: O_2  and  C_3
REMARK    3  A    between atoms: C_6  and  C_7
REMARK    4  A    between atoms: C_10  and  C_11
REMARK    5  A    between atoms: C_11  and  N_12
REMARK    6  A    between atoms: N_17  and  C_18
REMARK                            x       y       z     vdW  Elec       q    Type
REMARK                         _______ _______ _______ _____ _____    ______ ____
ROOT
ATOM      1  C   UNL     1       1.507   8.674  19.708  0.00  0.00    +0.000 A 
ATOM      2  C   UNL     1       1.815   8.760  18.364  0.00  0.00    +0.000 A 
ATOM      3  C   UNL     1       2.549   7.594  18.033  0.00  0.00    +0.000 A 
ATOM      4  C   UNL     1       2.701   6.886  19.204  0.00  0.00    +0.000 A 
ATOM      5  O   UNL     1       2.059   7.530  20.221  0.00  0.00    +0.000 OA
ENDROOT
BRANCH   1   9
ATOM      6  C   UNL     1      -0.634  11.132  22.493  0.00  0.00    +0.000 A 
ATOM      7  C   UNL     1      -0.359   9.799  22.796  0.00  0.00    +0.000 A 
ATOM      8  C   UNL     1       0.318   8.984  21.877  0.00  0.00    +0.000 A 
ATOM      9  C   UNL     1       0.718   9.486  20.631  0.00  0.00    +0.000 A 
ATOM     10  C   UNL     1       0.379  10.810  20.317  0.00  0.00    +0.000 A 
ATOM     11  C   UNL     1      -0.286  11.627  21.239  0.00  0.00    +0.000 A 
BRANCH   6  13
ATOM     12  C   UNL     1      -2.644  12.114  23.231  0.00  0.00    +0.000 C 
ATOM     13  O   UNL     1      -1.264  11.848  23.472  0.00  0.00    +0.000 OA
ENDBRANCH   6  13
ENDBRANCH   1   9
BRANCH   4  14
ATOM     14  C   UNL     1       3.411   5.623  19.559  0.00  0.00    +0.000 C 
BRANCH  14  15
ATOM     15  N   UNL     1       2.611   4.406  19.503  0.00  0.00    +0.000 N 
ATOM     16  C   UNL     1       1.536   4.295  20.491  0.00  0.00    +0.000 C 
ATOM     17  C   UNL     1       1.175   2.821  20.585  0.00  0.00    +0.000 C 
ATOM     18  S   UNL     1       1.337   2.237  18.880  0.00  0.00    +0.000 S 
ATOM     19  C   UNL     1       2.544   3.492  18.471  0.00  0.00    +0.000 C 
ATOM     20  N   UNL     1       3.116   3.301  17.340  0.00  0.00    +0.000 NA
BRANCH  20  21
ATOM     21  C   UNL     1       4.033   4.140  16.883  0.00  0.00    +0.000 C 
ATOM     22  N   UNL     1       4.842   4.874  16.491  0.00  0.00    +0.000 NA
ENDBRANCH  20  21
ENDBRANCH  14  15
ENDBRANCH   4  14
TORSDOF 5
ENDMDL
MODEL 4
REMARK VINA RESULT:      -7.0      0.591      1.228
REMARK  Name = 
REMARK  6 active torsions:
REMARK  status: ('A' for Active; 'I' for Inactive)
REMARK    1  A    between atoms: C_1  and  O_2
REMARK    2  A    between atoms: O_2  and  C_3
REMARK    3  A    between atoms: C_6  and  C_7
REMARK    4  A    between atoms: C_10  and  C_11
REMARK    5  A    between atoms: C_11  and  N_12
REMARK    6  A    between atoms: N_17  and  C_18
REMARK                            x       y       z     vdW  Elec       q    Type
REMARK                         _______ _______ _______ _____ _____    ______ ____
ROOT
ATOM      1  C   UNL     1       2.401   6.283  19.611  0.00  0.00    +0.000 A 
ATOM      2  C   UNL     1       1.828   5.217  20.278  0.00  0.00    +0.000 A 
ATOM      3  C   UNL     1       2.772   4.161  20.255  0.00  0.00    +0.000 A 
ATOM      4  C   UNL     1       3.848   4.617  19.526  0.00  0.00    +0.000 A 
ATOM      5  O   UNL     1       3.633   5.910  19.145  0.00  0.00    +0.000 OA
ENDROOT
BRANCH   1   9
ATOM      6  C   UNL     1       1.413  10.399  18.929  0.00  0.00    +0.000 A 
ATOM      7  C   UNL     1       1.080   9.785  20.136  0.00  0.00    +0.000 A 
ATOM      8  C   UNL     1       1.377   8.432  20.353  0.00  0.00    +0.000 A 
ATOM      9  C   UNL     1       2.000   7.666  19.358  0.00  0.00    +0.000 A 
ATOM     10  C   UNL     1       2.273   8.282  18.129  0.00  0.00    +0.000 A 
ATOM     11  C   UNL     1       1.986   9.635  17.916  0.00  0.00    +0.000 A 
BRANCH   6  13
ATOM     12  C   UNL     1       2.152  12.545  18.301  0.00  0.00    +0.000 C 
ATOM     13  O   UNL     1       1.113  11.729  18.835  0.00  0.00    +0.000 OA
ENDBRANCH   6  13
ENDBRANCH   1   9
BRANCH   4  14
ATOM     14  C   UNL     1       5.129   3.997  19.082  0.00  0.00    +0.000 C 
BRANCH  14  15
ATOM     15  N   UNL     1       5.558   4.324  17.728  0.00  0.00    +0.000 N 
ATOM     16  C   UNL     1       4.557   4.143  16.673  0.00  0.00    +0.000 C 
ATOM     17  C   UNL     1       5.316   4.056  15.358  0.00  0.00    +0.000 C 
ATOM     18  S   UNL     1       6.671   5.235  15.572  0.00  0.00    +0.000 S 
ATOM     19  C   UNL     1       6.671   5.049  17.351  0.00  0.00    +0.000 C 
ATOM     20  N   UNL     1       7.682   5.591  17.922  0.00  0.00    +0.000 NA
BRANCH  20  21
ATOM     21  C   UNL     1       7.833   5.549  19.236  0.00  0.00    +0.000 C 
ATOM     22  N   UNL     1       7.975   5.514  20.388  0.00  0.00    +0.000 NA
ENDBRANCH  20  21
ENDBRANCH  14  15
ENDBRANCH   4  14
TORSDOF 5
ENDMDL
MODEL 5
REMARK VINA RESULT:      -7.0      2.826      4.361
REMARK  Name = 
REMARK  6 active torsions:
REMARK  status: ('A' for Active; 'I' for Inactive)
REMARK    1  A    between atoms: C_1  and  O_2
REMARK    2  A    between atoms: O_2  and  C_3
REMARK    3  A    between atoms: C_6  and  C_7
REMARK    4  A    between atoms: C_10  and  C_11
REMARK    5  A    between atoms: C_11  and  N_12
REMARK    6  A    between atoms: N_17  and  C_18
REMARK                            x       y       z     vdW  Elec       q    Type
REMARK                         _______ _______ _______ _____ _____    ______ ____
ROOT
ATOM      1  C   UNL     1       1.391   8.858  19.843  0.00  0.00    +0.000 A 
ATOM      2  C   UNL     1       1.606   8.933  18.480  0.00  0.00    +0.000 A 
ATOM      3  C   UNL     1       2.311   7.762  18.109  0.00  0.00    +0.000 A 
ATOM      4  C   UNL     1       2.542   7.062  19.272  0.00  0.00    +0.000 A 
ATOM      5  O   UNL     1       1.973   7.717  20.325  0.00  0.00    +0.000 OA
ENDROOT
BRANCH   1   9
ATOM      6  C   UNL     1      -0.903  11.196  22.608  0.00  0.00    +0.000 A 
ATOM      7  C   UNL     1      -0.477  11.750  21.402  0.00  0.00    +0.000 A 
ATOM      8  C   UNL     1       0.297  10.997  20.507  0.00  0.00    +0.000 A 
ATOM      9  C   UNL     1       0.669   9.680  20.811  0.00  0.00    +0.000 A 
ATOM     10  C   UNL     1       0.283   9.160  22.054  0.00  0.00    +0.000 A 
ATOM     11  C   UNL     1      -0.498   9.907  22.943  0.00  0.00    +0.000 A 
BRANCH   6  13
ATOM     12  C   UNL     1      -2.977  12.284  22.865  0.00  0.00    +0.000 C 
ATOM     13  O   UNL     1      -1.683  12.001  23.391  0.00  0.00    +0.000 OA
ENDBRANCH   6  13
ENDBRANCH   1   9
BRANCH   4  14
ATOM     14  C   UNL     1       3.270   5.800  19.587  0.00  0.00    +0.000 C 
BRANCH  14  15
ATOM     15  N   UNL     1       2.491   4.572  19.484  0.00  0.00    +0.000 N 
ATOM     16  C   UNL     1       1.378   4.435  20.426  0.00  0.00    +0.000 C 
ATOM     17  C   UNL     1       1.034   2.955  20.489  0.00  0.00    +0.000 C 
ATOM     18  S   UNL     1       1.275   2.393  18.785  0.00  0.00    +0.000 S 
ATOM     19  C   UNL     1       2.479   3.669  18.440  0.00  0.00    +0.000 C 
ATOM     20  N   UNL     1       3.099   3.501  17.331  0.00  0.00    +0.000 NA
BRANCH  20  21
ATOM     21  C   UNL     1       4.022   4.357  16.922  0.00  0.00    +0.000 C 
ATOM     22  N   UNL     1       4.836   5.102  16.560  0.00  0.00    +0.000 NA
ENDBRANCH  20  21
ENDBRANCH  14  15
ENDBRANCH   4  14
TORSDOF 5
ENDMDL
MODEL 6
REMARK VINA RESULT:      -6.9      2.463      3.869
REMARK  Name = 
REMARK  6 active torsions:
REMARK  status: ('A' for Active; 'I' for Inactive)
REMARK    1  A    between atoms: C_1  and  O_2
REMARK    2  A    between atoms: O_2  and  C_3
REMARK    3  A    between atoms: C_6  and  C_7
REMARK    4  A    between atoms: C_10  and  C_11
REMARK    5  A    between atoms: C_11  and  N_12
REMARK    6  A    between atoms: N_17  and  C_18
REMARK                            x       y       z     vdW  Elec       q    Type
REMARK                         _______ _______ _______ _____ _____    ______ ____
ROOT
ATOM      1  C   UNL     1       1.541   8.758  19.641  0.00  0.00    +0.000 A 
ATOM      2  C   UNL     1       1.791   8.946  18.295  0.00  0.00    +0.000 A 
ATOM      3  C   UNL     1       2.539   7.826  17.855  0.00  0.00    +0.000 A 
ATOM      4  C   UNL     1       2.756   7.042  18.966  0.00  0.00    +0.000 A 
ATOM      5  O   UNL     1       2.140   7.597  20.050  0.00  0.00    +0.000 OA
ENDROOT
BRANCH   1   9
ATOM      6  C   UNL     1      -0.881  10.766  22.553  0.00  0.00    +0.000 A 
ATOM      7  C   UNL     1      -0.748  11.288  21.267  0.00  0.00    +0.000 A 
ATOM      8  C   UNL     1       0.065  10.649  20.319  0.00  0.00    +0.000 A 
ATOM      9  C   UNL     1       0.770   9.483  20.649  0.00  0.00    +0.000 A 
ATOM     10  C   UNL     1       0.674   9.007  21.963  0.00  0.00    +0.000 A 
ATOM     11  C   UNL     1      -0.146   9.638  22.906  0.00  0.00    +0.000 A 
BRANCH   6  13
ATOM     12  C   UNL     1      -1.806  12.849  23.151  0.00  0.00    +0.000 C 
ATOM     13  O   UNL     1      -1.726  11.445  23.386  0.00  0.00    +0.000 OA
ENDBRANCH   6  13
ENDBRANCH   1   9
BRANCH   4  14
ATOM     14  C   UNL     1       3.509   5.777  19.203  0.00  0.00    +0.000 C 
BRANCH  14  15
ATOM     15  N   UNL     1       4.429   5.376  18.146  0.00  0.00    +0.000 N 
ATOM     16  C   UNL     1       5.802   5.872  18.264  0.00  0.00    +0.000 C 
ATOM     17  C   UNL     1       6.427   5.769  16.882  0.00  0.00    +0.000 C 
ATOM     18  S   UNL     1       5.731   4.238  16.216  0.00  0.00    +0.000 S 
ATOM     19  C   UNL     1       4.257   4.366  17.221  0.00  0.00    +0.000 C 
ATOM     20  N   UNL     1       3.339   3.535  16.890  0.00  0.00    +0.000 NA
BRANCH  20  21
ATOM     21  C   UNL     1       2.184   3.495  17.536  0.00  0.00    +0.000 C 
ATOM     22  N   UNL     1       1.169   3.451  18.097  0.00  0.00    +0.000 NA
ENDBRANCH  20  21
ENDBRANCH  14  15
ENDBRANCH   4  14
TORSDOF 5
ENDMDL
MODEL 7
REMARK VINA RESULT:      -6.9      4.848      6.524
REMARK  Name = 
REMARK  6 active torsions:
REMARK  status: ('A' for Active; 'I' for Inactive)
REMARK    1  A    between atoms: C_1  and  O_2
REMARK    2  A    between atoms: O_2  and  C_3
REMARK    3  A    between atoms: C_6  and  C_7
REMARK    4  A    between atoms: C_10  and  C_11
REMARK    5  A    between atoms: C_11  and  N_12
REMARK    6  A    between atoms: N_17  and  C_18
REMARK                            x       y       z     vdW  Elec       q    Type
REMARK                         _______ _______ _______ _____ _____    ______ ____
ROOT
ATOM      1  C   UNL     1       8.138   8.764  18.166  0.00  0.00    +0.000 A 
ATOM      2  C   UNL     1       8.472   7.541  18.717  0.00  0.00    +0.000 A 
ATOM      3  C   UNL     1       7.574   6.587  18.178  0.00  0.00    +0.000 A 
ATOM      4  C   UNL     1       6.703   7.285  17.372  0.00  0.00    +0.000 A 
ATOM      5  O   UNL     1       7.050   8.605  17.351  0.00  0.00    +0.000 OA
ENDROOT
BRANCH   1   9
ATOM      6  C   UNL     1       9.689  12.743  18.538  0.00  0.00    +0.000 A 
ATOM      7  C   UNL     1       8.637  12.476  17.662  0.00  0.00    +0.000 A 
ATOM      8  C   UNL     1       8.145  11.171  17.517  0.00  0.00    +0.000 A 
ATOM      9  C   UNL     1       8.708  10.107  18.237  0.00  0.00    +0.000 A 
ATOM     10  C   UNL     1       9.804  10.383  19.067  0.00  0.00    +0.000 A 
ATOM     11  C   UNL     1      10.288  11.687  19.220  0.00  0.00    +0.000 A 
BRANCH   6  13
ATOM     12  C   UNL     1      10.957  14.498  17.609  0.00  0.00    +0.000 C 
ATOM     13  O   UNL     1      10.068  14.053  18.631  0.00  0.00    +0.000 OA
ENDBRANCH   6  13
ENDBRANCH   1   9
BRANCH   4  14
ATOM     14  C   UNL     1       5.505   6.899  16.572  0.00  0.00    +0.000 C 
BRANCH  14  15
ATOM     15  N   UNL     1       4.835   5.671  16.982  0.00  0.00    +0.000 N 
ATOM     16  C   UNL     1       3.607   5.837  17.762  0.00  0.00    +0.000 C 
ATOM     17  C   UNL     1       3.360   4.519  18.480  0.00  0.00    +0.000 C 
ATOM     18  S   UNL     1       3.887   3.276  17.275  0.00  0.00    +0.000 S 
ATOM     19  C   UNL     1       5.040   4.397  16.491  0.00  0.00    +0.000 C 
ATOM     20  N   UNL     1       5.827   3.821  15.659  0.00  0.00    +0.000 NA
BRANCH  20  21
ATOM     21  C   UNL     1       6.741   4.508  14.990  0.00  0.00    +0.000 C 
ATOM     22  N   UNL     1       7.534   5.115  14.400  0.00  0.00    +0.000 NA
ENDBRANCH  20  21
ENDBRANCH  14  15
ENDBRANCH   4  14
TORSDOF 5
ENDMDL
MODEL 8
REMARK VINA RESULT:      -6.9      1.060      1.085
REMARK  Name = 
REMARK  6 active torsions:
REMARK  status: ('A' for Active; 'I' for Inactive)
REMARK    1  A    between atoms: C_1  and  O_2
REMARK    2  A    between atoms: O_2  and  C_3
REMARK    3  A    between atoms: C_6  and  C_7
REMARK    4  A    between atoms: C_10  and  C_11
REMARK    5  A    between atoms: C_11  and  N_12
REMARK    6  A    between atoms: N_17  and  C_18
REMARK                            x       y       z     vdW  Elec       q    Type
REMARK                         _______ _______ _______ _____ _____    ______ ____
ROOT
ATOM      1  C   UNL     1       2.907   6.276  19.393  0.00  0.00    +0.000 A 
ATOM      2  C   UNL     1       2.599   5.061  19.976  0.00  0.00    +0.000 A 
ATOM      3  C   UNL     1       3.735   4.229  19.817  0.00  0.00    +0.000 A 
ATOM      4  C   UNL     1       4.654   4.958  19.095  0.00  0.00    +0.000 A 
ATOM      5  O   UNL     1       4.160   6.206  18.847  0.00  0.00    +0.000 OA
ENDROOT
BRANCH   1   9
ATOM      6  C   UNL     1       0.721   9.947  19.044  0.00  0.00    +0.000 A 
ATOM      7  C   UNL     1       1.415   9.434  17.949  0.00  0.00    +0.000 A 
ATOM      8  C   UNL     1       2.154   8.248  18.066  0.00  0.00    +0.000 A 
ATOM      9  C   UNL     1       2.221   7.562  19.287  0.00  0.00    +0.000 A 
ATOM     10  C   UNL     1       1.567   8.123  20.393  0.00  0.00    +0.000 A 
ATOM     11  C   UNL     1       0.821   9.302  20.274  0.00  0.00    +0.000 A 
BRANCH   6  13
ATOM     12  C   UNL     1      -1.321  10.879  18.327  0.00  0.00    +0.000 C 
ATOM     13  O   UNL     1       0.003  11.087  18.813  0.00  0.00    +0.000 OA
ENDBRANCH   6  13
ENDBRANCH   1   9
BRANCH   4  14
ATOM     14  C   UNL     1       6.006   4.656  18.546  0.00  0.00    +0.000 C 
BRANCH  14  15
ATOM     15  N   UNL     1       6.108   4.612  17.093  0.00  0.00    +0.000 N 
ATOM     16  C   UNL     1       5.164   3.726  16.407  0.00  0.00    +0.000 C 
ATOM     17  C   UNL     1       5.740   3.455  15.026  0.00  0.00    +0.000 C 
ATOM     18  S   UNL     1       6.495   5.033  14.565  0.00  0.00    +0.000 S 
ATOM     19  C   UNL     1       6.769   5.502  16.270  0.00  0.00    +0.000 C 
ATOM     20  N   UNL     1       7.518   6.533  16.402  0.00  0.00    +0.000 NA
BRANCH  20  21
ATOM     21  C   UNL     1       7.818   7.015  17.599  0.00  0.00    +0.000 C 
ATOM     22  N   UNL     1       8.083   7.446  18.643  0.00  0.00    +0.000 NA
ENDBRANCH  20  21
ENDBRANCH  14  15
ENDBRANCH   4  14
TORSDOF 5
ENDMDL
MODEL 9
REMARK VINA RESULT:      -6.9      4.888      6.611
REMARK  Name = 
REMARK  6 active torsions:
REMARK  status: ('A' for Active; 'I' for Inactive)
REMARK    1  A    between atoms: C_1  and  O_2
REMARK    2  A    between atoms: O_2  and  C_3
REMARK    3  A    between atoms: C_6  and  C_7
REMARK    4  A    between atoms: C_10  and  C_11
REMARK    5  A    between atoms: C_11  and  N_12
REMARK    6  A    between atoms: N_17  and  C_18
REMARK                            x       y       z     vdW  Elec       q    Type
REMARK                         _______ _______ _______ _____ _____    ______ ____
ROOT
ATOM      1  C   UNL     1       8.141   8.782  18.234  0.00  0.00    +0.000 A 
ATOM      2  C   UNL     1       8.503   7.541  18.724  0.00  0.00    +0.000 A 
ATOM      3  C   UNL     1       7.619   6.596  18.146  0.00  0.00    +0.000 A 
ATOM      4  C   UNL     1       6.728   7.315  17.380  0.00  0.00    +0.000 A 
ATOM      5  O   UNL     1       7.049   8.640  17.420  0.00  0.00    +0.000 OA
ENDROOT
BRANCH   1   9
ATOM      6  C   UNL     1       9.869  12.698  18.464  0.00  0.00    +0.000 A 
ATOM      7  C   UNL     1      10.317  11.680  19.305  0.00  0.00    +0.000 A 
ATOM      8  C   UNL     1       9.736  10.404  19.252  0.00  0.00    +0.000 A 
ATOM      9  C   UNL     1       8.685  10.131  18.365  0.00  0.00    +0.000 A 
ATOM     10  C   UNL     1       8.206  11.182  17.570  0.00  0.00    +0.000 A 
ATOM     11  C   UNL     1       8.793  12.452  17.615  0.00  0.00    +0.000 A 
BRANCH   6  13
ATOM     12  C   UNL     1      11.024  14.418  17.343  0.00  0.00    +0.000 C 
ATOM     13  O   UNL     1      10.527  13.891  18.571  0.00  0.00    +0.000 OA
ENDBRANCH   6  13
ENDBRANCH   1   9
BRANCH   4  14
ATOM     14  C   UNL     1       5.531   6.944  16.572  0.00  0.00    +0.000 C 
BRANCH  14  15
ATOM     15  N   UNL     1       4.837   5.729  16.982  0.00  0.00    +0.000 N 
ATOM     16  C   UNL     1       3.606   5.919  17.752  0.00  0.00    +0.000 C 
ATOM     17  C   UNL     1       3.331   4.609  18.473  0.00  0.00    +0.000 C 
ATOM     18  S   UNL     1       3.847   3.352  17.278  0.00  0.00    +0.000 S 
ATOM     19  C   UNL     1       5.025   4.450  16.498  0.00  0.00    +0.000 C 
ATOM     20  N   UNL     1       5.809   3.857  15.676  0.00  0.00    +0.000 NA
BRANCH  20  21
ATOM     21  C   UNL     1       6.738   4.525  15.010  0.00  0.00    +0.000 C 
ATOM     22  N   UNL     1       7.552   5.117  14.432  0.00  0.00    +0.000 NA
ENDBRANCH  20  21
ENDBRANCH  14  15
ENDBRANCH   4  14
TORSDOF 5
ENDMDL
