MODEL 1
REMARK VINA RESULT:      -8.1      0.000      0.000
REMARK  Name = 
REMARK  4 active torsions:
REMARK  status: ('A' for Active; 'I' for Inactive)
REMARK    1  A    between atoms: C_2  and  C_13
REMARK    2  A    between atoms: N_3  and  C_4
REMARK    3  A    between atoms: C_4  and  C_5
REMARK    4  A    between atoms: C_5  and  N_6
REMARK                            x       y       z     vdW  Elec       q    Type
REMARK                         _______ _______ _______ _____ _____    ______ ____
ROOT
ATOM      1  O   UNL     1       4.962   6.035  17.811  0.00  0.00    +0.000 OA
ATOM      2  C   UNL     1       3.765   5.835  17.955  0.00  0.00    +0.000 C 
ATOM      3  N   UNL     1       3.100   4.667  17.663  0.00  0.00    +0.000 N 
ATOM      4  H   UNL     1       2.113   4.623  17.905  0.00  0.00    +0.000 HD
ENDROOT
BRANCH   2   5
ATOM      5  C   UNL     1       2.899   6.952  18.523  0.00  0.00    +0.000 A 
ATOM      6  N   UNL     1       2.348   6.845  19.691  0.00  0.00    +0.000 NA
ATOM      7  C   UNL     1       1.600   7.950  20.142  0.00  0.00    +0.000 A 
ATOM      8  C   UNL     1       1.012   7.890  21.407  0.00  0.00    +0.000 A 
ATOM      9  C   UNL     1       0.305   8.983  21.917  0.00  0.00    +0.000 A 
ATOM     10  C   UNL     1       0.178  10.151  21.163  0.00  0.00    +0.000 A 
ATOM     11  C   UNL     1       0.747  10.225  19.894  0.00  0.00    +0.000 A 
ATOM     12  C   UNL     1       1.449   9.124  19.392  0.00  0.00    +0.000 A 
ATOM     13  C   UNL     1       2.078   9.168  18.058  0.00  0.00    +0.000 A 
ATOM     14  O   UNL     1       1.982  10.147  17.325  0.00  0.00    +0.000 OA
ATOM     15  N   UNL     1       2.777   8.047  17.705  0.00  0.00    +0.000 N 
ATOM     16  H   UNL     1       3.241   8.036  16.804  0.00  0.00    +0.000 HD
ENDBRANCH   2   5
BRANCH   3  17
ATOM     17  C   UNL     1       3.785   3.518  17.104  0.00  0.00    +0.000 C 
BRANCH  17  18
ATOM     18  C   UNL     1       3.459   2.220  17.849  0.00  0.00    +0.000 C 
BRANCH  18  19
ATOM     19  N   UNL     1       2.840   2.465  19.142  0.00  0.00    +0.000 N 
ATOM     20  C   UNL     1       3.526   2.459  20.320  0.00  0.00    +0.000 C 
ATOM     21  O   UNL     1       4.725   2.274  20.464  0.00  0.00    +0.000 OA
ATOM     22  C   UNL     1       2.568   2.696  21.448  0.00  0.00    +0.000 C 
ATOM     23  C   UNL     1       1.222   2.874  20.773  0.00  0.00    +0.000 C 
ATOM     24  C   UNL     1       1.497   2.623  19.318  0.00  0.00    +0.000 C 
ATOM     25  O   UNL     1       0.641   2.572  18.450  0.00  0.00    +0.000 OA
ENDBRANCH  18  19
ENDBRANCH  17  18
ENDBRANCH   3  17
TORSDOF 4
ENDMDL
MODEL 2
REMARK VINA RESULT:      -7.9      1.094      1.242
REMARK  Name = 
REMARK  4 active torsions:
REMARK  status: ('A' for Active; 'I' for Inactive)
REMARK    1  A    between atoms: C_2  and  C_13
REMARK    2  A    between atoms: N_3  and  C_4
REMARK    3  A    between atoms: C_4  and  C_5
REMARK    4  A    between atoms: C_5  and  N_6
REMARK                            x       y       z     vdW  Elec       q    Type
REMARK                         _______ _______ _______ _____ _____    ______ ____
ROOT
ATOM      1  O   UNL     1       4.164   5.894  17.193  0.00  0.00    +0.000 OA
ATOM      2  C   UNL     1       3.789   5.932  18.356  0.00  0.00    +0.000 C 
ATOM      3  N   UNL     1       4.135   5.042  19.346  0.00  0.00    +0.000 N 
ATOM      4  H   UNL     1       3.804   5.243  20.286  0.00  0.00    +0.000 HD
ENDROOT
BRANCH   2   5
ATOM      5  C   UNL     1       2.865   7.062  18.791  0.00  0.00    +0.000 A 
ATOM      6  N   UNL     1       2.248   7.022  19.929  0.00  0.00    +0.000 NA
ATOM      7  C   UNL     1       1.448   8.135  20.255  0.00  0.00    +0.000 A 
ATOM      8  C   UNL     1       0.787   8.147  21.484  0.00  0.00    +0.000 A 
ATOM      9  C   UNL     1       0.026   9.254  21.874  0.00  0.00    +0.000 A 
ATOM     10  C   UNL     1      -0.082  10.363  21.032  0.00  0.00    +0.000 A 
ATOM     11  C   UNL     1       0.561  10.363  19.797  0.00  0.00    +0.000 A 
ATOM     12  C   UNL     1       1.317   9.249  19.416  0.00  0.00    +0.000 A 
ATOM     13  C   UNL     1       2.024   9.218  18.122  0.00  0.00    +0.000 A 
ATOM     14  O   UNL     1       1.951  10.140  17.317  0.00  0.00    +0.000 OA
ATOM     15  N   UNL     1       2.769   8.094  17.892  0.00  0.00    +0.000 N 
ATOM     16  H   UNL     1       3.287   8.033  17.022  0.00  0.00    +0.000 HD
ENDBRANCH   2   5
BRANCH   3  17
ATOM     17  C   UNL     1       4.996   3.905  19.083  0.00  0.00    +0.000 C 
BRANCH  17  18
ATOM     18  C   UNL     1       4.363   2.578  19.513  0.00  0.00    +0.000 C 
BRANCH  18  19
ATOM     19  N   UNL     1       2.918   2.672  19.648  0.00  0.00    +0.000 N 
ATOM     20  C   UNL     1       2.277   2.756  20.848  0.00  0.00    +0.000 C 
ATOM     21  O   UNL     1       2.799   2.785  21.953  0.00  0.00    +0.000 OA
ATOM     22  C   UNL     1       0.798   2.787  20.615  0.00  0.00    +0.000 C 
ATOM     23  C   UNL     1       0.650   2.740  19.106  0.00  0.00    +0.000 C 
ATOM     24  C   UNL     1       2.054   2.583  18.598  0.00  0.00    +0.000 C 
ATOM     25  O   UNL     1       2.350   2.403  17.427  0.00  0.00    +0.000 OA
ENDBRANCH  18  19
ENDBRANCH  17  18
ENDBRANCH   3  17
TORSDOF 4
ENDMDL
MODEL 3
REMARK VINA RESULT:      -7.9      0.264      1.575
REMARK  Name = 
REMARK  4 active torsions:
REMARK  status: ('A' for Active; 'I' for Inactive)
REMARK    1  A    between atoms: C_2  and  C_13
REMARK    2  A    between atoms: N_3  and  C_4
REMARK    3  A    between atoms: C_4  and  C_5
REMARK    4  A    between atoms: C_5  and  N_6
REMARK                            x       y       z     vdW  Elec       q    Type
REMARK                         _______ _______ _______ _____ _____    ______ ____
ROOT
ATOM      1  O   UNL     1       4.708   6.112  17.493  0.00  0.00    +0.000 OA
ATOM      2  C   UNL     1       3.559   5.896  17.851  0.00  0.00    +0.000 C 
ATOM      3  N   UNL     1       2.898   4.693  17.765  0.00  0.00    +0.000 N 
ATOM      4  H   UNL     1       1.968   4.644  18.172  0.00  0.00    +0.000 HD
ENDROOT
BRANCH   2   5
ATOM      5  C   UNL     1       2.758   7.034  18.470  0.00  0.00    +0.000 A 
ATOM      6  N   UNL     1       2.238   6.923  19.652  0.00  0.00    +0.000 NA
ATOM      7  C   UNL     1       1.550   8.047  20.149  0.00  0.00    +0.000 A 
ATOM      8  C   UNL     1       0.999   7.982  21.429  0.00  0.00    +0.000 A 
ATOM      9  C   UNL     1       0.354   9.091  21.985  0.00  0.00    +0.000 A 
ATOM     10  C   UNL     1       0.254  10.281  21.261  0.00  0.00    +0.000 A 
ATOM     11  C   UNL     1       0.787  10.360  19.977  0.00  0.00    +0.000 A 
ATOM     12  C   UNL     1       1.427   9.243  19.430  0.00  0.00    +0.000 A 
ATOM     13  C   UNL     1       2.017   9.292  18.078  0.00  0.00    +0.000 A 
ATOM     14  O   UNL     1       1.941  10.291  17.371  0.00  0.00    +0.000 OA
ATOM     15  N   UNL     1       2.658   8.152  17.680  0.00  0.00    +0.000 N 
ATOM     16  H   UNL     1       3.094   8.143  16.765  0.00  0.00    +0.000 HD
ENDBRANCH   2   5
BRANCH   3  17
ATOM     17  C   UNL     1       3.524   3.518  17.187  0.00  0.00    +0.000 C 
BRANCH  17  18
ATOM     18  C   UNL     1       3.018   2.216  17.815  0.00  0.00    +0.000 C 
BRANCH  18  19
ATOM     19  N   UNL     1       2.612   2.390  19.200  0.00  0.00    +0.000 N 
ATOM     20  C   UNL     1       1.313   2.518  19.594  0.00  0.00    +0.000 C 
ATOM     21  O   UNL     1       0.327   2.488  18.874  0.00  0.00    +0.000 OA
ATOM     22  C   UNL     1       1.268   2.732  21.077  0.00  0.00    +0.000 C 
ATOM     23  C   UNL     1       2.720   2.681  21.512  0.00  0.00    +0.000 C 
ATOM     24  C   UNL     1       3.490   2.546  20.231  0.00  0.00    +0.000 C 
ATOM     25  O   UNL     1       4.708   2.574  20.149  0.00  0.00    +0.000 OA
ENDBRANCH  18  19
ENDBRANCH  17  18
ENDBRANCH   3  17
TORSDOF 4
ENDMDL
MODEL 4
REMARK VINA RESULT:      -7.8      2.351      4.147
REMARK  Name = 
REMARK  4 active torsions:
REMARK  status: ('A' for Active; 'I' for Inactive)
REMARK    1  A    between atoms: C_2  and  C_13
REMARK    2  A    between atoms: N_3  and  C_4
REMARK    3  A    between atoms: C_4  and  C_5
REMARK    4  A    between atoms: C_5  and  N_6
REMARK                            x       y       z     vdW  Elec       q    Type
REMARK                         _______ _______ _______ _____ _____    ______ ____
ROOT
ATOM      1  O   UNL     1       2.856   5.203  17.590  0.00  0.00    +0.000 OA
ATOM      2  C   UNL     1       3.230   5.802  18.589  0.00  0.00    +0.000 C 
ATOM      3  N   UNL     1       4.293   5.454  19.389  0.00  0.00    +0.000 N 
ATOM      4  H   UNL     1       4.531   6.090  20.146  0.00  0.00    +0.000 HD
ENDROOT
BRANCH   2   5
ATOM      5  C   UNL     1       2.484   7.062  19.009  0.00  0.00    +0.000 A 
ATOM      6  N   UNL     1       1.958   7.167  20.188  0.00  0.00    +0.000 NA
ATOM      7  C   UNL     1       1.325   8.389  20.492  0.00  0.00    +0.000 A 
ATOM      8  C   UNL     1       0.768   8.557  21.761  0.00  0.00    +0.000 A 
ATOM      9  C   UNL     1       0.177   9.770  22.125  0.00  0.00    +0.000 A 
ATOM     10  C   UNL     1       0.137  10.831  21.219  0.00  0.00    +0.000 A 
ATOM     11  C   UNL     1       0.676  10.678  19.943  0.00  0.00    +0.000 A 
ATOM     12  C   UNL     1       1.262   9.458  19.589  0.00  0.00    +0.000 A 
ATOM     13  C   UNL     1       1.856   9.261  18.253  0.00  0.00    +0.000 A 
ATOM     14  O   UNL     1       1.830  10.135  17.393  0.00  0.00    +0.000 OA
ATOM     15  N   UNL     1       2.441   8.042  18.049  0.00  0.00    +0.000 N 
ATOM     16  H   UNL     1       2.877   7.864  17.152  0.00  0.00    +0.000 HD
ENDBRANCH   2   5
BRANCH   3  17
ATOM     17  C   UNL     1       5.091   4.272  19.126  0.00  0.00    +0.000 C 
BRANCH  17  18
ATOM     18  C   UNL     1       6.038   4.456  17.936  0.00  0.00    +0.000 C 
BRANCH  18  19
ATOM     19  N   UNL     1       6.749   5.724  17.985  0.00  0.00    +0.000 N 
ATOM     20  C   UNL     1       6.534   6.743  17.106  0.00  0.00    +0.000 C 
ATOM     21  O   UNL     1       5.727   6.757  16.189  0.00  0.00    +0.000 OA
ATOM     22  C   UNL     1       7.471   7.870  17.420  0.00  0.00    +0.000 C 
ATOM     23  C   UNL     1       8.252   7.389  18.628  0.00  0.00    +0.000 C 
ATOM     24  C   UNL     1       7.772   5.984  18.848  0.00  0.00    +0.000 C 
ATOM     25  O   UNL     1       8.239   5.213  19.672  0.00  0.00    +0.000 OA
ENDBRANCH  18  19
ENDBRANCH  17  18
ENDBRANCH   3  17
TORSDOF 4
ENDMDL
MODEL 5
REMARK VINA RESULT:      -7.8      2.359      3.888
REMARK  Name = 
REMARK  4 active torsions:
REMARK  status: ('A' for Active; 'I' for Inactive)
REMARK    1  A    between atoms: C_2  and  C_13
REMARK    2  A    between atoms: N_3  and  C_4
REMARK    3  A    between atoms: C_4  and  C_5
REMARK    4  A    between atoms: C_5  and  N_6
REMARK                            x       y       z     vdW  Elec       q    Type
REMARK                         _______ _______ _______ _____ _____    ______ ____
ROOT
ATOM      1  O   UNL     1       2.810   5.068  17.589  0.00  0.00    +0.000 OA
ATOM      2  C   UNL     1       3.245   5.706  18.537  0.00  0.00    +0.000 C 
ATOM      3  N   UNL     1       4.368   5.400  19.270  0.00  0.00    +0.000 N 
ATOM      4  H   UNL     1       4.650   6.065  19.986  0.00  0.00    +0.000 HD
ENDROOT
BRANCH   2   5
ATOM      5  C   UNL     1       2.513   6.971  18.967  0.00  0.00    +0.000 A 
ATOM      6  N   UNL     1       2.011   7.083  20.156  0.00  0.00    +0.000 NA
ATOM      7  C   UNL     1       1.389   8.308  20.467  0.00  0.00    +0.000 A 
ATOM      8  C   UNL     1       0.860   8.484  21.747  0.00  0.00    +0.000 A 
ATOM      9  C   UNL     1       0.281   9.701  22.118  0.00  0.00    +0.000 A 
ATOM     10  C   UNL     1       0.224  10.758  21.207  0.00  0.00    +0.000 A 
ATOM     11  C   UNL     1       0.736  10.596  19.922  0.00  0.00    +0.000 A 
ATOM     12  C   UNL     1       1.310   9.373  19.561  0.00  0.00    +0.000 A 
ATOM     13  C   UNL     1       1.875   9.167  18.213  0.00  0.00    +0.000 A 
ATOM     14  O   UNL     1       1.834  10.038  17.350  0.00  0.00    +0.000 OA
ATOM     15  N   UNL     1       2.452   7.946  18.003  0.00  0.00    +0.000 N 
ATOM     16  H   UNL     1       2.869   7.763  17.098  0.00  0.00    +0.000 HD
ENDBRANCH   2   5
BRANCH   3  17
ATOM     17  C   UNL     1       5.163   4.219  18.991  0.00  0.00    +0.000 C 
BRANCH  17  18
ATOM     18  C   UNL     1       6.122   4.423  17.814  0.00  0.00    +0.000 C 
BRANCH  18  19
ATOM     19  N   UNL     1       6.842   5.683  17.898  0.00  0.00    +0.000 N 
ATOM     20  C   UNL     1       7.778   5.954  18.852  0.00  0.00    +0.000 C 
ATOM     21  O   UNL     1       8.156   5.200  19.737  0.00  0.00    +0.000 OA
ATOM     22  C   UNL     1       8.276   7.355  18.670  0.00  0.00    +0.000 C 
ATOM     23  C   UNL     1       7.527   7.869  17.455  0.00  0.00    +0.000 C 
ATOM     24  C   UNL     1       6.584   6.756  17.099  0.00  0.00    +0.000 C 
ATOM     25  O   UNL     1       5.729   6.825  16.230  0.00  0.00    +0.000 OA
ENDBRANCH  18  19
ENDBRANCH  17  18
ENDBRANCH   3  17
TORSDOF 4
ENDMDL
MODEL 6
REMARK VINA RESULT:      -7.8      1.860      2.706
REMARK  Name = 
REMARK  4 active torsions:
REMARK  status: ('A' for Active; 'I' for Inactive)
REMARK    1  A    between atoms: C_2  and  C_13
REMARK    2  A    between atoms: N_3  and  C_4
REMARK    3  A    between atoms: C_4  and  C_5
REMARK    4  A    between atoms: C_5  and  N_6
REMARK                            x       y       z     vdW  Elec       q    Type
REMARK                         _______ _______ _______ _____ _____    ______ ____
ROOT
ATOM      1  O   UNL     1       2.574   8.890  17.144  0.00  0.00    +0.000 OA
ATOM      2  C   UNL     1       2.162   8.399  18.185  0.00  0.00    +0.000 C 
ATOM      3  N   UNL     1       2.467   7.146  18.663  0.00  0.00    +0.000 N 
ATOM      4  H   UNL     1       2.109   6.901  19.583  0.00  0.00    +0.000 HD
ENDROOT
BRANCH   2   5
ATOM      5  C   UNL     1       1.238   9.226  19.070  0.00  0.00    +0.000 A 
ATOM      6  N   UNL     1       1.027   8.901  20.307  0.00  0.00    +0.000 NA
ATOM      7  C   UNL     1       0.188   9.753  21.050  0.00  0.00    +0.000 A 
ATOM      8  C   UNL     1      -0.044   9.458  22.395  0.00  0.00    +0.000 A 
ATOM      9  C   UNL     1      -0.827  10.304  23.186  0.00  0.00    +0.000 A 
ATOM     10  C   UNL     1      -1.389  11.458  22.636  0.00  0.00    +0.000 A 
ATOM     11  C   UNL     1      -1.179  11.762  21.293  0.00  0.00    +0.000 A 
ATOM     12  C   UNL     1      -0.396  10.906  20.510  0.00  0.00    +0.000 A 
ATOM     13  C   UNL     1      -0.139  11.202  19.088  0.00  0.00    +0.000 A 
ATOM     14  O   UNL     1      -0.624  12.179  18.527  0.00  0.00    +0.000 OA
ATOM     15  N   UNL     1       0.682  10.315  18.448  0.00  0.00    +0.000 N 
ATOM     16  H   UNL     1       0.901  10.484  17.473  0.00  0.00    +0.000 HD
ENDBRANCH   2   5
BRANCH   3  17
ATOM     17  C   UNL     1       3.324   6.236  17.927  0.00  0.00    +0.000 C 
BRANCH  17  18
ATOM     18  C   UNL     1       3.698   4.994  18.743  0.00  0.00    +0.000 C 
BRANCH  18  19
ATOM     19  N   UNL     1       2.544   4.164  19.048  0.00  0.00    +0.000 N 
ATOM     20  C   UNL     1       1.988   4.073  20.289  0.00  0.00    +0.000 C 
ATOM     21  O   UNL     1       2.347   4.668  21.294  0.00  0.00    +0.000 OA
ATOM     22  C   UNL     1       0.854   3.094  20.250  0.00  0.00    +0.000 C 
ATOM     23  C   UNL     1       0.795   2.639  18.805  0.00  0.00    +0.000 C 
ATOM     24  C   UNL     1       1.965   3.316  18.152  0.00  0.00    +0.000 C 
ATOM     25  O   UNL     1       2.323   3.122  17.001  0.00  0.00    +0.000 OA
ENDBRANCH  18  19
ENDBRANCH  17  18
ENDBRANCH   3  17
TORSDOF 4
ENDMDL
MODEL 7
REMARK VINA RESULT:      -7.6      1.416      1.829
REMARK  Name = 
REMARK  4 active torsions:
REMARK  status: ('A' for Active; 'I' for Inactive)
REMARK    1  A    between atoms: C_2  and  C_13
REMARK    2  A    between atoms: N_3  and  C_4
REMARK    3  A    between atoms: C_4  and  C_5
REMARK    4  A    between atoms: C_5  and  N_6
REMARK                            x       y       z     vdW  Elec       q    Type
REMARK                         _______ _______ _______ _____ _____    ______ ____
ROOT
ATOM      1  O   UNL     1       3.300   6.049  17.480  0.00  0.00    +0.000 OA
ATOM      2  C   UNL     1       3.277   6.262  18.684  0.00  0.00    +0.000 C 
ATOM      3  N   UNL     1       3.995   5.581  19.639  0.00  0.00    +0.000 N 
ATOM      4  H   UNL     1       3.931   5.919  20.596  0.00  0.00    +0.000 HD
ENDROOT
BRANCH   2   5
ATOM      5  C   UNL     1       2.397   7.388  19.212  0.00  0.00    +0.000 A 
ATOM      6  N   UNL     1       1.911   7.351  20.413  0.00  0.00    +0.000 NA
ATOM      7  C   UNL     1       1.142   8.460  20.818  0.00  0.00    +0.000 A 
ATOM      8  C   UNL     1       0.622   8.476  22.113  0.00  0.00    +0.000 A 
ATOM      9  C   UNL     1      -0.101   9.579  22.577  0.00  0.00    +0.000 A 
ATOM     10  C   UNL     1      -0.313  10.680  21.746  0.00  0.00    +0.000 A 
ATOM     11  C   UNL     1       0.188  10.677  20.446  0.00  0.00    +0.000 A 
ATOM     12  C   UNL     1       0.908   9.566  19.991  0.00  0.00    +0.000 A 
ATOM     13  C   UNL     1       1.466   9.530  18.626  0.00  0.00    +0.000 A 
ATOM     14  O   UNL     1       1.294  10.446  17.828  0.00  0.00    +0.000 OA
ATOM     15  N   UNL     1       2.191   8.412  18.322  0.00  0.00    +0.000 N 
ATOM     16  H   UNL     1       2.609   8.348  17.401  0.00  0.00    +0.000 HD
ENDBRANCH   2   5
BRANCH   3  17
ATOM     17  C   UNL     1       4.866   4.474  19.294  0.00  0.00    +0.000 C 
BRANCH  17  18
ATOM     18  C   UNL     1       4.378   3.141  19.869  0.00  0.00    +0.000 C 
BRANCH  18  19
ATOM     19  N   UNL     1       2.941   2.970  19.724  0.00  0.00    +0.000 N 
ATOM     20  C   UNL     1       2.351   2.468  18.602  0.00  0.00    +0.000 C 
ATOM     21  O   UNL     1       2.918   2.082  17.591  0.00  0.00    +0.000 OA
ATOM     22  C   UNL     1       0.863   2.481  18.781  0.00  0.00    +0.000 C 
ATOM     23  C   UNL     1       0.654   3.031  20.179  0.00  0.00    +0.000 C 
ATOM     24  C   UNL     1       2.033   3.387  20.652  0.00  0.00    +0.000 C 
ATOM     25  O   UNL     1       2.280   3.959  21.702  0.00  0.00    +0.000 OA
ENDBRANCH  18  19
ENDBRANCH  17  18
ENDBRANCH   3  17
TORSDOF 4
ENDMDL
MODEL 8
REMARK VINA RESULT:      -7.6      2.181      3.560
REMARK  Name = 
REMARK  4 active torsions:
REMARK  status: ('A' for Active; 'I' for Inactive)
REMARK    1  A    between atoms: C_2  and  C_13
REMARK    2  A    between atoms: N_3  and  C_4
REMARK    3  A    between atoms: C_4  and  C_5
REMARK    4  A    between atoms: C_5  and  N_6
REMARK                            x       y       z     vdW  Elec       q    Type
REMARK                         _______ _______ _______ _____ _____    ______ ____
ROOT
ATOM      1  O   UNL     1       3.872   5.208  19.939  0.00  0.00    +0.000 OA
ATOM      2  C   UNL     1       3.273   5.714  19.001  0.00  0.00    +0.000 C 
ATOM      3  N   UNL     1       3.224   5.227  17.716  0.00  0.00    +0.000 N 
ATOM      4  H   UNL     1       2.624   5.716  17.057  0.00  0.00    +0.000 HD
ENDROOT
BRANCH   2   5
ATOM      5  C   UNL     1       2.483   6.994  19.242  0.00  0.00    +0.000 A 
ATOM      6  N   UNL     1       1.834   7.183  20.347  0.00  0.00    +0.000 NA
ATOM      7  C   UNL     1       1.169   8.417  20.488  0.00  0.00    +0.000 A 
ATOM      8  C   UNL     1       0.480   8.675  21.674  0.00  0.00    +0.000 A 
ATOM      9  C   UNL     1      -0.150   9.906  21.880  0.00  0.00    +0.000 A 
ATOM     10  C   UNL     1      -0.097  10.894  20.895  0.00  0.00    +0.000 A 
ATOM     11  C   UNL     1       0.575  10.650  19.700  0.00  0.00    +0.000 A 
ATOM     12  C   UNL     1       1.199   9.413  19.504  0.00  0.00    +0.000 A 
ATOM     13  C   UNL     1       1.932   9.122  18.257  0.00  0.00    +0.000 A 
ATOM     14  O   UNL     1       1.995   9.928  17.335  0.00  0.00    +0.000 OA
ATOM     15  N   UNL     1       2.539   7.898  18.211  0.00  0.00    +0.000 N 
ATOM     16  H   UNL     1       3.069   7.657  17.380  0.00  0.00    +0.000 HD
ENDBRANCH   2   5
BRANCH   3  17
ATOM     17  C   UNL     1       3.936   4.024  17.328  0.00  0.00    +0.000 C 
BRANCH  17  18
ATOM     18  C   UNL     1       5.121   4.316  16.403  0.00  0.00    +0.000 C 
BRANCH  18  19
ATOM     19  N   UNL     1       5.977   5.373  16.917  0.00  0.00    +0.000 N 
ATOM     20  C   UNL     1       6.895   5.185  17.908  0.00  0.00    +0.000 C 
ATOM     21  O   UNL     1       7.145   4.134  18.480  0.00  0.00    +0.000 OA
ATOM     22  C   UNL     1       7.557   6.492  18.219  0.00  0.00    +0.000 C 
ATOM     23  C   UNL     1       6.927   7.477  17.254  0.00  0.00    +0.000 C 
ATOM     24  C   UNL     1       5.879   6.678  16.536  0.00  0.00    +0.000 C 
ATOM     25  O   UNL     1       5.076   7.143  15.742  0.00  0.00    +0.000 OA
ENDBRANCH  18  19
ENDBRANCH  17  18
ENDBRANCH   3  17
TORSDOF 4
ENDMDL
MODEL 9
REMARK VINA RESULT:      -7.6      3.394      6.594
REMARK  Name = 
REMARK  4 active torsions:
REMARK  status: ('A' for Active; 'I' for Inactive)
REMARK    1  A    between atoms: C_2  and  C_13
REMARK    2  A    between atoms: N_3  and  C_4
REMARK    3  A    between atoms: C_4  and  C_5
REMARK    4  A    between atoms: C_5  and  N_6
REMARK                            x       y       z     vdW  Elec       q    Type
REMARK                         _______ _______ _______ _____ _____    ______ ____
ROOT
ATOM      1  O   UNL     1       2.846   3.733  16.998  0.00  0.00    +0.000 OA
ATOM      2  C   UNL     1       4.006   3.364  17.117  0.00  0.00    +0.000 C 
ATOM      3  N   UNL     1       4.483   2.496  18.071  0.00  0.00    +0.000 N 
ATOM      4  H   UNL     1       5.460   2.221  18.001  0.00  0.00    +0.000 HD
ENDROOT
BRANCH   2   5
ATOM      5  C   UNL     1       5.043   3.878  16.128  0.00  0.00    +0.000 A 
ATOM      6  N   UNL     1       5.102   3.415  14.918  0.00  0.00    +0.000 NA
ATOM      7  C   UNL     1       6.071   3.985  14.070  0.00  0.00    +0.000 A 
ATOM      8  C   UNL     1       6.151   3.538  12.750  0.00  0.00    +0.000 A 
ATOM      9  C   UNL     1       7.061   4.112  11.857  0.00  0.00    +0.000 A 
ATOM     10  C   UNL     1       7.904   5.142  12.278  0.00  0.00    +0.000 A 
ATOM     11  C   UNL     1       7.847   5.592  13.595  0.00  0.00    +0.000 A 
ATOM     12  C   UNL     1       6.935   5.009  14.481  0.00  0.00    +0.000 A 
ATOM     13  C   UNL     1       6.835   5.468  15.879  0.00  0.00    +0.000 A 
ATOM     14  O   UNL     1       7.564   6.345  16.330  0.00  0.00    +0.000 OA
ATOM     15  N   UNL     1       5.870   4.852  16.627  0.00  0.00    +0.000 N 
ATOM     16  H   UNL     1       5.752   5.144  17.591  0.00  0.00    +0.000 HD
ENDBRANCH   2   5
BRANCH   3  17
ATOM     17  C   UNL     1       3.619   1.932  19.091  0.00  0.00    +0.000 C 
BRANCH  17  18
ATOM     18  C   UNL     1       3.711   2.688  20.420  0.00  0.00    +0.000 C 
BRANCH  18  19
ATOM     19  N   UNL     1       2.921   3.909  20.418  0.00  0.00    +0.000 N 
ATOM     20  C   UNL     1       1.593   3.949  20.725  0.00  0.00    +0.000 C 
ATOM     21  O   UNL     1       0.894   3.004  21.058  0.00  0.00    +0.000 OA
ATOM     22  C   UNL     1       1.094   5.354  20.571  0.00  0.00    +0.000 C 
ATOM     23  C   UNL     1       2.319   6.148  20.159  0.00  0.00    +0.000 C 
ATOM     24  C   UNL     1       3.400   5.118  20.009  0.00  0.00    +0.000 C 
ATOM     25  O   UNL     1       4.522   5.348  19.586  0.00  0.00    +0.000 OA
ENDBRANCH  18  19
ENDBRANCH  17  18
ENDBRANCH   3  17
TORSDOF 4
ENDMDL
