MODEL 1
REMARK VINA RESULT:      -7.7      0.000      0.000
REMARK  Name = 
REMARK  6 active torsions:
REMARK  status: ('A' for Active; 'I' for Inactive)
REMARK    1  A    between atoms: C_1  and  C_2
REMARK    2  A    between atoms: C_2  and  C_3
REMARK    3  A    between atoms: C_3  and  C_4
REMARK    4  A    between atoms: C_3  and  N_15
REMARK    5  A    between atoms: N_8  and  C_9
REMARK    6  A    between atoms: C_9  and  C_10
REMARK                            x       y       z     vdW  Elec       q    Type
REMARK                         _______ _______ _______ _____ _____    ______ ____
ROOT
ATOM      1  N   UNL     1       2.691   4.582  18.650  0.00  0.00    +0.000 NA
ATOM      2  C   UNL     1       1.810   4.637  19.833  0.00  0.00    +0.000 C 
ATOM      3  C   UNL     1       1.982   5.865  20.745  0.00  0.00    +0.000 C 
ATOM      4  N   UNL     1       1.885   7.117  19.978  0.00  0.00    +0.000 N 
ATOM      5  C   UNL     1       1.309   8.220  20.579  0.00  0.00    +0.000 C 
ATOM      6  N   UNL     1       0.671   8.184  21.722  0.00  0.00    +0.000 NA
ATOM      7  C   UNL     1       0.153   9.464  21.939  0.00  0.00    +0.000 A 
ATOM      8  C   UNL     1      -0.655   9.851  22.991  0.00  0.00    +0.000 A 
ATOM      9  C   UNL     1      -1.127  11.166  23.012  0.00  0.00    +0.000 A 
ATOM     10  C   UNL     1      -0.785  12.064  21.986  0.00  0.00    +0.000 A 
ATOM     11  C   UNL     1       0.035  11.664  20.928  0.00  0.00    +0.000 A 
ATOM     12  C   UNL     1       0.489  10.359  20.926  0.00  0.00    +0.000 A 
ATOM     13  C   UNL     1       1.333   9.625  19.944  0.00  0.00    +0.000 C 
ATOM     14  C   UNL     1       2.631   7.183  18.722  0.00  0.00    +0.000 C 
ATOM     15  C   UNL     1       2.562   5.858  17.914  0.00  0.00    +0.000 C 
ENDROOT
BRANCH   1  16
ATOM     16  C   UNL     1       4.077   4.114  18.874  0.00  0.00    +0.000 C 
BRANCH  16  17
ATOM     17  C   UNL     1       4.863   4.112  17.578  0.00  0.00    +0.000 A 
ATOM     18  N   UNL     1       4.419   3.688  16.406  0.00  0.00    +0.000 NA
ATOM     19  N   UNL     1       5.461   3.775  15.527  0.00  0.00    +0.000 NA
ATOM     20  N   UNL     1       6.538   4.256  16.123  0.00  0.00    +0.000 NA
ATOM     21  N   UNL     1       6.166   4.506  17.396  0.00  0.00    +0.000 N 
BRANCH  21  22
ATOM     22  C   UNL     1       7.170   4.939  18.345  0.00  0.00    +0.000 C 
BRANCH  22  23
ATOM     23  C   UNL     1       7.525   6.389  18.200  0.00  0.00    +0.000 A 
ATOM     24  C   UNL     1       8.474   7.132  18.880  0.00  0.00    +0.000 A 
ATOM     25  C   UNL     1       8.435   8.512  18.532  0.00  0.00    +0.000 A 
ATOM     26  C   UNL     1       7.462   8.787  17.598  0.00  0.00    +0.000 A 
ATOM     27  S   UNL     1       6.619   7.372  17.125  0.00  0.00    +0.000 S 
ENDBRANCH  22  23
ENDBRANCH  21  22
ENDBRANCH  16  17
BRANCH  16  29
ATOM     28  C   UNL     1       3.587   1.584  18.813  0.00  0.00    +0.000 C 
ATOM     29  C   UNL     1       4.244   2.735  19.568  0.00  0.00    +0.000 C 
ENDBRANCH  16  29
ENDBRANCH   1  16
TORSDOF 5
ENDMDL
MODEL 2
REMARK VINA RESULT:      -7.3      3.858      9.232
REMARK  Name = 
REMARK  6 active torsions:
REMARK  status: ('A' for Active; 'I' for Inactive)
REMARK    1  A    between atoms: C_1  and  C_2
REMARK    2  A    between atoms: C_2  and  C_3
REMARK    3  A    between atoms: C_3  and  C_4
REMARK    4  A    between atoms: C_3  and  N_15
REMARK    5  A    between atoms: N_8  and  C_9
REMARK    6  A    between atoms: C_9  and  C_10
REMARK                            x       y       z     vdW  Elec       q    Type
REMARK                         _______ _______ _______ _____ _____    ______ ____
ROOT
ATOM      1  N   UNL     1       0.897  10.689  21.530  0.00  0.00    +0.000 NA
ATOM      2  C   UNL     1       1.309   9.474  22.261  0.00  0.00    +0.000 C 
ATOM      3  C   UNL     1       0.992   8.134  21.575  0.00  0.00    +0.000 C 
ATOM      4  N   UNL     1       1.512   8.101  20.199  0.00  0.00    +0.000 N 
ATOM      5  C   UNL     1       1.981   6.904  19.694  0.00  0.00    +0.000 C 
ATOM      6  N   UNL     1       2.171   5.827  20.416  0.00  0.00    +0.000 NA
ATOM      7  C   UNL     1       2.742   4.869  19.573  0.00  0.00    +0.000 A 
ATOM      8  C   UNL     1       3.176   3.611  19.943  0.00  0.00    +0.000 A 
ATOM      9  C   UNL     1       3.778   2.807  18.972  0.00  0.00    +0.000 A 
ATOM     10  C   UNL     1       3.935   3.275  17.656  0.00  0.00    +0.000 A 
ATOM     11  C   UNL     1       3.489   4.548  17.290  0.00  0.00    +0.000 A 
ATOM     12  C   UNL     1       2.899   5.327  18.267  0.00  0.00    +0.000 A 
ATOM     13  C   UNL     1       2.363   6.714  18.212  0.00  0.00    +0.000 C 
ATOM     14  C   UNL     1       1.266   9.282  19.371  0.00  0.00    +0.000 C 
ATOM     15  C   UNL     1       1.439  10.611  20.156  0.00  0.00    +0.000 C 
ENDROOT
BRANCH   1  16
ATOM     16  C   UNL     1      -0.528  11.073  21.630  0.00  0.00    +0.000 C 
BRANCH  16  17
ATOM     17  C   UNL     1      -0.760  12.451  21.042  0.00  0.00    +0.000 A 
ATOM     18  N   UNL     1       0.023  13.504  21.212  0.00  0.00    +0.000 NA
ATOM     19  N   UNL     1      -0.586  14.559  20.594  0.00  0.00    +0.000 NA
ATOM     20  N   UNL     1      -1.722  14.182  20.033  0.00  0.00    +0.000 NA
ATOM     21  N   UNL     1      -1.823  12.858  20.274  0.00  0.00    +0.000 N 
BRANCH  21  22
ATOM     22  C   UNL     1      -3.032  12.166  19.879  0.00  0.00    +0.000 C 
BRANCH  22  23
ATOM     23  C   UNL     1      -2.892  11.444  18.572  0.00  0.00    +0.000 A 
ATOM     24  C   UNL     1      -1.809  10.746  18.067  0.00  0.00    +0.000 A 
ATOM     25  C   UNL     1      -2.028  10.292  16.736  0.00  0.00    +0.000 A 
ATOM     26  C   UNL     1      -3.269  10.651  16.259  0.00  0.00    +0.000 A 
ATOM     27  S   UNL     1      -4.174  11.512  17.433  0.00  0.00    +0.000 S 
ENDBRANCH  22  23
ENDBRANCH  21  22
ENDBRANCH  16  17
BRANCH  16  29
ATOM     28  C   UNL     1      -2.365  11.942  23.216  0.00  0.00    +0.000 C 
ATOM     29  C   UNL     1      -1.168  11.013  23.044  0.00  0.00    +0.000 C 
ENDBRANCH  16  29
ENDBRANCH   1  16
TORSDOF 5
ENDMDL
MODEL 3
REMARK VINA RESULT:      -7.3      4.033      9.156
REMARK  Name = 
REMARK  6 active torsions:
REMARK  status: ('A' for Active; 'I' for Inactive)
REMARK    1  A    between atoms: C_1  and  C_2
REMARK    2  A    between atoms: C_2  and  C_3
REMARK    3  A    between atoms: C_3  and  C_4
REMARK    4  A    between atoms: C_3  and  N_15
REMARK    5  A    between atoms: N_8  and  C_9
REMARK    6  A    between atoms: C_9  and  C_10
REMARK                            x       y       z     vdW  Elec       q    Type
REMARK                         _______ _______ _______ _____ _____    ______ ____
ROOT
ATOM      1  N   UNL     1       0.298  10.923  21.978  0.00  0.00    +0.000 NA
ATOM      2  C   UNL     1       0.227   9.640  22.704  0.00  0.00    +0.000 C 
ATOM      3  C   UNL     1       0.079   8.380  21.835  0.00  0.00    +0.000 C 
ATOM      4  N   UNL     1       1.120   8.320  20.797  0.00  0.00    +0.000 N 
ATOM      5  C   UNL     1       1.621   7.087  20.427  0.00  0.00    +0.000 C 
ATOM      6  N   UNL     1       1.369   5.971  21.066  0.00  0.00    +0.000 NA
ATOM      7  C   UNL     1       2.130   4.971  20.453  0.00  0.00    +0.000 A 
ATOM      8  C   UNL     1       2.226   3.654  20.857  0.00  0.00    +0.000 A 
ATOM      9  C   UNL     1       3.085   2.808  20.153  0.00  0.00    +0.000 A 
ATOM     10  C   UNL     1       3.830   3.292  19.063  0.00  0.00    +0.000 A 
ATOM     11  C   UNL     1       3.724   4.626  18.660  0.00  0.00    +0.000 A 
ATOM     12  C   UNL     1       2.870   5.446  19.372  0.00  0.00    +0.000 A 
ATOM     13  C   UNL     1       2.564   6.894  19.222  0.00  0.00    +0.000 C 
ATOM     14  C   UNL     1       1.377   9.550  20.047  0.00  0.00    +0.000 C 
ATOM     15  C   UNL     1       1.352  10.817  20.947  0.00  0.00    +0.000 C 
ENDROOT
BRANCH   1  16
ATOM     16  C   UNL     1      -0.986  11.496  21.517  0.00  0.00    +0.000 C 
BRANCH  16  17
ATOM     17  C   UNL     1      -0.780  12.372  20.296  0.00  0.00    +0.000 A 
ATOM     18  N   UNL     1      -0.468  13.657  20.312  0.00  0.00    +0.000 NA
ATOM     19  N   UNL     1      -0.464  14.084  19.015  0.00  0.00    +0.000 NA
ATOM     20  N   UNL     1      -0.753  13.091  18.193  0.00  0.00    +0.000 NA
ATOM     21  N   UNL     1      -0.916  12.006  18.980  0.00  0.00    +0.000 N 
BRANCH  21  22
ATOM     22  C   UNL     1      -1.360  10.766  18.377  0.00  0.00    +0.000 C 
BRANCH  22  23
ATOM     23  C   UNL     1      -2.580  10.936  17.521  0.00  0.00    +0.000 A 
ATOM     24  C   UNL     1      -2.728  10.749  16.158  0.00  0.00    +0.000 A 
ATOM     25  C   UNL     1      -4.022  11.119  15.697  0.00  0.00    +0.000 A 
ATOM     26  C   UNL     1      -4.829  11.576  16.714  0.00  0.00    +0.000 A 
ATOM     27  S   UNL     1      -4.026  11.529  18.228  0.00  0.00    +0.000 S 
ENDBRANCH  22  23
ENDBRANCH  21  22
ENDBRANCH  16  17
BRANCH  16  29
ATOM     28  C   UNL     1      -3.261  12.530  22.149  0.00  0.00    +0.000 C 
ATOM     29  C   UNL     1      -1.816  12.282  22.568  0.00  0.00    +0.000 C 
ENDBRANCH  16  29
ENDBRANCH   1  16
TORSDOF 5
ENDMDL
MODEL 4
REMARK VINA RESULT:      -7.3      1.946      3.584
REMARK  Name = 
REMARK  6 active torsions:
REMARK  status: ('A' for Active; 'I' for Inactive)
REMARK    1  A    between atoms: C_1  and  C_2
REMARK    2  A    between atoms: C_2  and  C_3
REMARK    3  A    between atoms: C_3  and  C_4
REMARK    4  A    between atoms: C_3  and  N_15
REMARK    5  A    between atoms: N_8  and  C_9
REMARK    6  A    between atoms: C_9  and  C_10
REMARK                            x       y       z     vdW  Elec       q    Type
REMARK                         _______ _______ _______ _____ _____    ______ ____
ROOT
ATOM      1  N   UNL     1       3.073   6.117  18.362  0.00  0.00    +0.000 NA
ATOM      2  C   UNL     1       2.512   6.034  19.724  0.00  0.00    +0.000 C 
ATOM      3  C   UNL     1       2.404   7.364  20.490  0.00  0.00    +0.000 C 
ATOM      4  N   UNL     1       1.684   8.377  19.704  0.00  0.00    +0.000 N 
ATOM      5  C   UNL     1       0.881   9.286  20.366  0.00  0.00    +0.000 C 
ATOM      6  N   UNL     1       0.563   9.197  21.633  0.00  0.00    +0.000 NA
ATOM      7  C   UNL     1      -0.336  10.234  21.901  0.00  0.00    +0.000 A 
ATOM      8  C   UNL     1      -0.984  10.464  23.099  0.00  0.00    +0.000 A 
ATOM      9  C   UNL     1      -1.897  11.520  23.163  0.00  0.00    +0.000 A 
ATOM     10  C   UNL     1      -2.144  12.321  22.035  0.00  0.00    +0.000 A 
ATOM     11  C   UNL     1      -1.480  12.081  20.828  0.00  0.00    +0.000 A 
ATOM     12  C   UNL     1      -0.584  11.031  20.786  0.00  0.00    +0.000 A 
ATOM     13  C   UNL     1       0.241  10.502  19.666  0.00  0.00    +0.000 C 
ATOM     14  C   UNL     1       2.063   8.515  18.297  0.00  0.00    +0.000 C 
ATOM     15  C   UNL     1       2.323   7.146  17.610  0.00  0.00    +0.000 C 
ENDROOT
BRANCH   1  16
ATOM     16  C   UNL     1       4.547   6.199  18.254  0.00  0.00    +0.000 C 
BRANCH  16  17
ATOM     17  C   UNL     1       5.016   5.740  16.888  0.00  0.00    +0.000 A 
ATOM     18  N   UNL     1       5.239   6.522  15.845  0.00  0.00    +0.000 NA
ATOM     19  N   UNL     1       5.560   5.709  14.795  0.00  0.00    +0.000 NA
ATOM     20  N   UNL     1       5.556   4.440  15.167  0.00  0.00    +0.000 NA
ATOM     21  N   UNL     1       5.254   4.449  16.483  0.00  0.00    +0.000 N 
BRANCH  21  22
ATOM     22  C   UNL     1       5.058   3.186  17.163  0.00  0.00    +0.000 C 
BRANCH  22  23
ATOM     23  C   UNL     1       3.648   2.990  17.636  0.00  0.00    +0.000 A 
ATOM     24  C   UNL     1       2.461   3.360  17.030  0.00  0.00    +0.000 A 
ATOM     25  C   UNL     1       1.327   3.094  17.848  0.00  0.00    +0.000 A 
ATOM     26  C   UNL     1       1.675   2.528  19.054  0.00  0.00    +0.000 A 
ATOM     27  S   UNL     1       3.368   2.295  19.179  0.00  0.00    +0.000 S 
ENDBRANCH  22  23
ENDBRANCH  21  22
ENDBRANCH  16  17
BRANCH  16  29
ATOM     28  C   UNL     1       6.875   5.656  19.219  0.00  0.00    +0.000 C 
ATOM     29  C   UNL     1       5.368   5.460  19.346  0.00  0.00    +0.000 C 
ENDBRANCH  16  29
ENDBRANCH   1  16
TORSDOF 5
ENDMDL
MODEL 5
REMARK VINA RESULT:      -7.1      3.938      9.911
REMARK  Name = 
REMARK  6 active torsions:
REMARK  status: ('A' for Active; 'I' for Inactive)
REMARK    1  A    between atoms: C_1  and  C_2
REMARK    2  A    between atoms: C_2  and  C_3
REMARK    3  A    between atoms: C_3  and  C_4
REMARK    4  A    between atoms: C_3  and  N_15
REMARK    5  A    between atoms: N_8  and  C_9
REMARK    6  A    between atoms: C_9  and  C_10
REMARK                            x       y       z     vdW  Elec       q    Type
REMARK                         _______ _______ _______ _____ _____    ______ ____
ROOT
ATOM      1  N   UNL     1      -0.556  10.279  20.139  0.00  0.00    +0.000 NA
ATOM      2  C   UNL     1       0.062  10.296  18.799  0.00  0.00    +0.000 C 
ATOM      3  C   UNL     1       1.528   9.837  18.725  0.00  0.00    +0.000 C 
ATOM      4  N   UNL     1       1.706   8.517  19.350  0.00  0.00    +0.000 N 
ATOM      5  C   UNL     1       2.636   7.647  18.813  0.00  0.00    +0.000 C 
ATOM      6  N   UNL     1       3.243   7.838  17.668  0.00  0.00    +0.000 NA
ATOM      7  C   UNL     1       4.021   6.701  17.427  0.00  0.00    +0.000 A 
ATOM      8  C   UNL     1       4.768   6.449  16.293  0.00  0.00    +0.000 A 
ATOM      9  C   UNL     1       5.438   5.227  16.202  0.00  0.00    +0.000 A 
ATOM     10  C   UNL     1       5.350   4.285  17.242  0.00  0.00    +0.000 A 
ATOM     11  C   UNL     1       4.595   4.551  18.387  0.00  0.00    +0.000 A 
ATOM     12  C   UNL     1       3.938   5.765  18.455  0.00  0.00    +0.000 A 
ATOM     13  C   UNL     1       3.041   6.327  19.500  0.00  0.00    +0.000 C 
ATOM     14  C   UNL     1       1.068   8.309  20.650  0.00  0.00    +0.000 C 
ATOM     15  C   UNL     1      -0.350   8.938  20.729  0.00  0.00    +0.000 C 
ENDROOT
BRANCH   1  16
ATOM     16  C   UNL     1      -0.243  11.419  21.029  0.00  0.00    +0.000 C 
BRANCH  16  17
ATOM     17  C   UNL     1      -1.433  11.764  21.904  0.00  0.00    +0.000 A 
ATOM     18  N   UNL     1      -1.633  11.335  23.139  0.00  0.00    +0.000 NA
ATOM     19  N   UNL     1      -2.855  11.803  23.532  0.00  0.00    +0.000 NA
ATOM     20  N   UNL     1      -3.411  12.525  22.575  0.00  0.00    +0.000 NA
ATOM     21  N   UNL     1      -2.514  12.539  21.565  0.00  0.00    +0.000 N 
BRANCH  21  22
ATOM     22  C   UNL     1      -2.884  13.162  20.312  0.00  0.00    +0.000 C 
BRANCH  22  23
ATOM     23  C   UNL     1      -3.742  12.282  19.453  0.00  0.00    +0.000 A 
ATOM     24  C   UNL     1      -3.381  11.476  18.388  0.00  0.00    +0.000 A 
ATOM     25  C   UNL     1      -4.506  10.875  17.755  0.00  0.00    +0.000 A 
ATOM     26  C   UNL     1      -5.694  11.235  18.351  0.00  0.00    +0.000 A 
ATOM     27  S   UNL     1      -5.442  12.275  19.689  0.00  0.00    +0.000 S 
ENDBRANCH  22  23
ENDBRANCH  21  22
ENDBRANCH  16  17
BRANCH  16  29
ATOM     28  C   UNL     1       1.712  13.069  20.716  0.00  0.00    +0.000 C 
ATOM     29  C   UNL     1       0.276  12.714  20.347  0.00  0.00    +0.000 C 
ENDBRANCH  16  29
ENDBRANCH   1  16
TORSDOF 5
ENDMDL
MODEL 6
REMARK VINA RESULT:      -7.1      3.810      9.505
REMARK  Name = 
REMARK  6 active torsions:
REMARK  status: ('A' for Active; 'I' for Inactive)
REMARK    1  A    between atoms: C_1  and  C_2
REMARK    2  A    between atoms: C_2  and  C_3
REMARK    3  A    between atoms: C_3  and  C_4
REMARK    4  A    between atoms: C_3  and  N_15
REMARK    5  A    between atoms: N_8  and  C_9
REMARK    6  A    between atoms: C_9  and  C_10
REMARK                            x       y       z     vdW  Elec       q    Type
REMARK                         _______ _______ _______ _____ _____    ______ ____
ROOT
ATOM      1  N   UNL     1       0.977  10.678  21.550  0.00  0.00    +0.000 NA
ATOM      2  C   UNL     1       1.267   9.419  22.263  0.00  0.00    +0.000 C 
ATOM      3  C   UNL     1       0.952   8.122  21.497  0.00  0.00    +0.000 C 
ATOM      4  N   UNL     1       1.592   8.116  20.172  0.00  0.00    +0.000 N 
ATOM      5  C   UNL     1       2.050   6.917  19.661  0.00  0.00    +0.000 C 
ATOM      6  N   UNL     1       2.125   5.806  20.351  0.00  0.00    +0.000 NA
ATOM      7  C   UNL     1       2.726   4.853  19.523  0.00  0.00    +0.000 A 
ATOM      8  C   UNL     1       3.068   3.563  19.877  0.00  0.00    +0.000 A 
ATOM      9  C   UNL     1       3.718   2.768  18.930  0.00  0.00    +0.000 A 
ATOM     10  C   UNL     1       4.013   3.276  17.652  0.00  0.00    +0.000 A 
ATOM     11  C   UNL     1       3.660   4.582  17.303  0.00  0.00    +0.000 A 
ATOM     12  C   UNL     1       3.020   5.352  18.255  0.00  0.00    +0.000 A 
ATOM     13  C   UNL     1       2.554   6.764  18.211  0.00  0.00    +0.000 C 
ATOM     14  C   UNL     1       1.474   9.337  19.375  0.00  0.00    +0.000 C 
ATOM     15  C   UNL     1       1.635  10.626  20.227  0.00  0.00    +0.000 C 
ENDROOT
BRANCH   1  16
ATOM     16  C   UNL     1      -0.433  11.127  21.541  0.00  0.00    +0.000 C 
BRANCH  16  17
ATOM     17  C   UNL     1      -0.604  12.356  20.670  0.00  0.00    +0.000 A 
ATOM     18  N   UNL     1      -0.232  13.585  20.987  0.00  0.00    +0.000 NA
ATOM     19  N   UNL     1      -0.644  14.403  19.974  0.00  0.00    +0.000 NA
ATOM     20  N   UNL     1      -1.252  13.709  19.029  0.00  0.00    +0.000 NA
ATOM     21  N   UNL     1      -1.200  12.422  19.434  0.00  0.00    +0.000 N 
BRANCH  21  22
ATOM     22  C   UNL     1      -1.892  11.415  18.656  0.00  0.00    +0.000 C 
BRANCH  22  23
ATOM     23  C   UNL     1      -3.355  11.704  18.497  0.00  0.00    +0.000 A 
ATOM     24  C   UNL     1      -4.260  12.186  19.426  0.00  0.00    +0.000 A 
ATOM     25  C   UNL     1      -5.590  12.223  18.920  0.00  0.00    +0.000 A 
ATOM     26  C   UNL     1      -5.667  11.772  17.621  0.00  0.00    +0.000 A 
ATOM     27  S   UNL     1      -4.128  11.332  17.011  0.00  0.00    +0.000 S 
ENDBRANCH  22  23
ENDBRANCH  21  22
ENDBRANCH  16  17
BRANCH  16  29
ATOM     28  C   UNL     1      -2.494  11.978  22.834  0.00  0.00    +0.000 C 
ATOM     29  C   UNL     1      -1.089  11.392  22.923  0.00  0.00    +0.000 C 
ENDBRANCH  16  29
ENDBRANCH   1  16
TORSDOF 5
ENDMDL
MODEL 7
REMARK VINA RESULT:      -6.9      4.286     10.107
REMARK  Name = 
REMARK  6 active torsions:
REMARK  status: ('A' for Active; 'I' for Inactive)
REMARK    1  A    between atoms: C_1  and  C_2
REMARK    2  A    between atoms: C_2  and  C_3
REMARK    3  A    between atoms: C_3  and  C_4
REMARK    4  A    between atoms: C_3  and  N_15
REMARK    5  A    between atoms: N_8  and  C_9
REMARK    6  A    between atoms: C_9  and  C_10
REMARK                            x       y       z     vdW  Elec       q    Type
REMARK                         _______ _______ _______ _____ _____    ______ ____
ROOT
ATOM      1  N   UNL     1       0.465  11.427  20.154  0.00  0.00    +0.000 NA
ATOM      2  C   UNL     1       0.815  10.289  21.026  0.00  0.00    +0.000 C 
ATOM      3  C   UNL     1       0.836   8.906  20.353  0.00  0.00    +0.000 C 
ATOM      4  N   UNL     1       1.687   8.908  19.153  0.00  0.00    +0.000 N 
ATOM      5  C   UNL     1       2.402   7.767  18.842  0.00  0.00    +0.000 C 
ATOM      6  N   UNL     1       2.525   6.738  19.643  0.00  0.00    +0.000 NA
ATOM      7  C   UNL     1       3.396   5.839  19.019  0.00  0.00    +0.000 A 
ATOM      8  C   UNL     1       3.863   4.653  19.549  0.00  0.00    +0.000 A 
ATOM      9  C   UNL     1       4.778   3.909  18.800  0.00  0.00    +0.000 A 
ATOM     10  C   UNL     1       5.208   4.364  17.542  0.00  0.00    +0.000 A 
ATOM     11  C   UNL     1       4.727   5.565  17.012  0.00  0.00    +0.000 A 
ATOM     12  C   UNL     1       3.824   6.285  17.771  0.00  0.00    +0.000 A 
ATOM     13  C   UNL     1       3.164   7.594  17.513  0.00  0.00    +0.000 C 
ATOM     14  C   UNL     1       1.525  10.031  18.230  0.00  0.00    +0.000 C 
ATOM     15  C   UNL     1       1.341  11.388  18.964  0.00  0.00    +0.000 C 
ENDROOT
BRANCH   1  16
ATOM     16  C   UNL     1      -0.974  11.634  19.878  0.00  0.00    +0.000 C 
BRANCH  16  17
ATOM     17  C   UNL     1      -1.738  11.897  21.161  0.00  0.00    +0.000 A 
ATOM     18  N   UNL     1      -1.422  11.429  22.358  0.00  0.00    +0.000 NA
ATOM     19  N   UNL     1      -2.409  11.823  23.215  0.00  0.00    +0.000 NA
ATOM     20  N   UNL     1      -3.324  12.537  22.582  0.00  0.00    +0.000 NA
ATOM     21  N   UNL     1      -2.896  12.621  21.304  0.00  0.00    +0.000 N 
BRANCH  21  22
ATOM     22  C   UNL     1      -3.752  13.252  20.321  0.00  0.00    +0.000 C 
BRANCH  22  23
ATOM     23  C   UNL     1      -4.959  12.430  19.984  0.00  0.00    +0.000 A 
ATOM     24  C   UNL     1      -5.229  11.695  18.842  0.00  0.00    +0.000 A 
ATOM     25  C   UNL     1      -6.538  11.136  18.852  0.00  0.00    +0.000 A 
ATOM     26  C   UNL     1      -7.233  11.455  19.997  0.00  0.00    +0.000 A 
ATOM     27  S   UNL     1      -6.289  12.405  21.067  0.00  0.00    +0.000 S 
ENDBRANCH  22  23
ENDBRANCH  21  22
ENDBRANCH  16  17
BRANCH  16  29
ATOM     28  C   UNL     1      -1.978  10.886  17.625  0.00  0.00    +0.000 C 
ATOM     29  C   UNL     1      -1.698  10.518  19.078  0.00  0.00    +0.000 C 
ENDBRANCH  16  29
ENDBRANCH   1  16
TORSDOF 5
ENDMDL
MODEL 8
REMARK VINA RESULT:      -6.9      4.002      9.443
REMARK  Name = 
REMARK  6 active torsions:
REMARK  status: ('A' for Active; 'I' for Inactive)
REMARK    1  A    between atoms: C_1  and  C_2
REMARK    2  A    between atoms: C_2  and  C_3
REMARK    3  A    between atoms: C_3  and  C_4
REMARK    4  A    between atoms: C_3  and  N_15
REMARK    5  A    between atoms: N_8  and  C_9
REMARK    6  A    between atoms: C_9  and  C_10
REMARK                            x       y       z     vdW  Elec       q    Type
REMARK                         _______ _______ _______ _____ _____    ______ ____
ROOT
ATOM      1  N   UNL     1       0.890  10.868  19.419  0.00  0.00    +0.000 NA
ATOM      2  C   UNL     1       0.846  10.021  18.211  0.00  0.00    +0.000 C 
ATOM      3  C   UNL     1       1.868   8.872  18.156  0.00  0.00    +0.000 C 
ATOM      4  N   UNL     1       1.799   8.037  19.366  0.00  0.00    +0.000 N 
ATOM      5  C   UNL     1       2.030   6.680  19.251  0.00  0.00    +0.000 C 
ATOM      6  N   UNL     1       2.124   6.046  18.109  0.00  0.00    +0.000 NA
ATOM      7  C   UNL     1       2.257   4.686  18.410  0.00  0.00    +0.000 A 
ATOM      8  C   UNL     1       2.309   3.650  17.498  0.00  0.00    +0.000 A 
ATOM      9  C   UNL     1       2.385   2.343  17.986  0.00  0.00    +0.000 A 
ATOM     10  C   UNL     1       2.406   2.099  19.371  0.00  0.00    +0.000 A 
ATOM     11  C   UNL     1       2.356   3.154  20.285  0.00  0.00    +0.000 A 
ATOM     12  C   UNL     1       2.279   4.438  19.780  0.00  0.00    +0.000 A 
ATOM     13  C   UNL     1       2.177   5.751  20.474  0.00  0.00    +0.000 C 
ATOM     14  C   UNL     1       1.739   8.737  20.649  0.00  0.00    +0.000 C 
ATOM     15  C   UNL     1       0.821   9.990  20.606  0.00  0.00    +0.000 C 
ENDROOT
BRANCH   1  16
ATOM     16  C   UNL     1       1.938  11.912  19.460  0.00  0.00    +0.000 C 
BRANCH  16  17
ATOM     17  C   UNL     1       1.596  12.981  20.479  0.00  0.00    +0.000 A 
ATOM     18  N   UNL     1       2.435  13.506  21.358  0.00  0.00    +0.000 NA
ATOM     19  N   UNL     1       1.712  14.361  22.140  0.00  0.00    +0.000 NA
ATOM     20  N   UNL     1       0.447  14.390  21.759  0.00  0.00    +0.000 NA
ATOM     21  N   UNL     1       0.370  13.559  20.697  0.00  0.00    +0.000 N 
BRANCH  21  22
ATOM     22  C   UNL     1      -0.928  13.285  20.118  0.00  0.00    +0.000 C 
BRANCH  22  23
ATOM     23  C   UNL     1      -2.001  13.099  21.149  0.00  0.00    +0.000 A 
ATOM     24  C   UNL     1      -2.023  12.263  22.252  0.00  0.00    +0.000 A 
ATOM     25  C   UNL     1      -3.272  12.295  22.933  0.00  0.00    +0.000 A 
ATOM     26  C   UNL     1      -4.170  13.152  22.337  0.00  0.00    +0.000 A 
ATOM     27  S   UNL     1      -3.489  13.935  20.974  0.00  0.00    +0.000 S 
ENDBRANCH  22  23
ENDBRANCH  21  22
ENDBRANCH  16  17
BRANCH  16  29
ATOM     28  C   UNL     1       2.958  13.959  18.271  0.00  0.00    +0.000 C 
ATOM     29  C   UNL     1       2.295  12.595  18.112  0.00  0.00    +0.000 C 
ENDBRANCH  16  29
ENDBRANCH   1  16
TORSDOF 5
ENDMDL
MODEL 9
REMARK VINA RESULT:      -6.9      2.385      3.663
REMARK  Name = 
REMARK  6 active torsions:
REMARK  status: ('A' for Active; 'I' for Inactive)
REMARK    1  A    between atoms: C_1  and  C_2
REMARK    2  A    between atoms: C_2  and  C_3
REMARK    3  A    between atoms: C_3  and  C_4
REMARK    4  A    between atoms: C_3  and  N_15
REMARK    5  A    between atoms: N_8  and  C_9
REMARK    6  A    between atoms: C_9  and  C_10
REMARK                            x       y       z     vdW  Elec       q    Type
REMARK                         _______ _______ _______ _____ _____    ______ ____
ROOT
ATOM      1  N   UNL     1       2.860   6.504  19.751  0.00  0.00    +0.000 NA
ATOM      2  C   UNL     1       3.012   7.585  18.757  0.00  0.00    +0.000 C 
ATOM      3  C   UNL     1       1.758   8.435  18.488  0.00  0.00    +0.000 C 
ATOM      4  N   UNL     1       1.196   8.969  19.738  0.00  0.00    +0.000 N 
ATOM      5  C   UNL     1       0.610  10.220  19.722  0.00  0.00    +0.000 C 
ATOM      6  N   UNL     1       0.682  11.052  18.713  0.00  0.00    +0.000 NA
ATOM      7  C   UNL     1       0.058  12.236  19.117  0.00  0.00    +0.000 A 
ATOM      8  C   UNL     1      -0.025  13.405  18.386  0.00  0.00    +0.000 A 
ATOM      9  C   UNL     1      -0.639  14.512  18.977  0.00  0.00    +0.000 A 
ATOM     10  C   UNL     1      -1.156  14.428  20.282  0.00  0.00    +0.000 A 
ATOM     11  C   UNL     1      -1.070  13.240  21.012  0.00  0.00    +0.000 A 
ATOM     12  C   UNL     1      -0.457  12.159  20.409  0.00  0.00    +0.000 A 
ATOM     13  C   UNL     1      -0.178  10.789  20.920  0.00  0.00    +0.000 C 
ATOM     14  C   UNL     1       1.069   8.036  20.858  0.00  0.00    +0.000 C 
ATOM     15  C   UNL     1       2.291   7.085  20.986  0.00  0.00    +0.000 C 
ENDROOT
BRANCH   1  16
ATOM     16  C   UNL     1       2.219   5.256  19.283  0.00  0.00    +0.000 C 
BRANCH  16  17
ATOM     17  C   UNL     1       3.072   4.049  19.622  0.00  0.00    +0.000 A 
ATOM     18  N   UNL     1       2.644   2.940  20.202  0.00  0.00    +0.000 NA
ATOM     19  N   UNL     1       3.738   2.148  20.407  0.00  0.00    +0.000 NA
ATOM     20  N   UNL     1       4.832   2.733  19.955  0.00  0.00    +0.000 NA
ATOM     21  N   UNL     1       4.424   3.907  19.427  0.00  0.00    +0.000 N 
BRANCH  21  22
ATOM     22  C   UNL     1       5.420   4.842  18.948  0.00  0.00    +0.000 C 
BRANCH  22  23
ATOM     23  C   UNL     1       5.733   4.667  17.492  0.00  0.00    +0.000 A 
ATOM     24  C   UNL     1       5.089   3.891  16.543  0.00  0.00    +0.000 A 
ATOM     25  C   UNL     1       5.757   3.904  15.287  0.00  0.00    +0.000 A 
ATOM     26  C   UNL     1       6.889   4.688  15.305  0.00  0.00    +0.000 A 
ATOM     27  S   UNL     1       7.124   5.425  16.834  0.00  0.00    +0.000 S 
ENDBRANCH  22  23
ENDBRANCH  21  22
ENDBRANCH  16  17
BRANCH  16  29
ATOM     28  C   UNL     1       1.462   3.794  17.299  0.00  0.00    +0.000 C 
ATOM     29  C   UNL     1       1.830   5.193  17.780  0.00  0.00    +0.000 C 
ENDBRANCH  16  29
ENDBRANCH   1  16
TORSDOF 5
ENDMDL
