MODEL 1
REMARK VINA RESULT:      -7.5      0.000      0.000
REMARK  Name = 
REMARK  1 active torsions:
REMARK  status: ('A' for Active; 'I' for Inactive)
REMARK    1  A    between atoms: C_12  and  O_13
REMARK                            x       y       z     vdW  Elec       q    Type
REMARK                         _______ _______ _______ _____ _____    ______ ____
ROOT
ATOM      1  O   UNL     1       6.552   5.306  19.828  0.00  0.00    +0.000 OA
ATOM      2  C   UNL     1       5.634   4.979  19.080  0.00  0.00    +0.000 C 
ATOM      3  C   UNL     1       4.223   4.836  19.569  0.00  0.00    +0.000 C 
ATOM      4  C   UNL     1       3.318   4.119  18.565  0.00  0.00    +0.000 C 
ATOM      5  C   UNL     1       1.845   4.355  18.978  0.00  0.00    +0.000 C 
ATOM      6  C   UNL     1       1.124   3.053  18.674  0.00  0.00    +0.000 C 
ATOM      7  C   UNL     1       2.152   2.002  19.043  0.00  0.00    +0.000 C 
ATOM      8  C   UNL     1       3.470   2.575  18.534  0.00  0.00    +0.000 C 
ATOM      9  O   UNL     1       3.482   4.640  17.232  0.00  0.00    +0.000 OA
ATOM     10  C   UNL     1       4.780   4.610  16.795  0.00  0.00    +0.000 A 
ATOM     11  C   UNL     1       4.987   4.423  15.425  0.00  0.00    +0.000 A 
ATOM     12  C   UNL     1       6.290   4.354  14.938  0.00  0.00    +0.000 A 
ATOM     13  C   UNL     1       7.384   4.502  15.785  0.00  0.00    +0.000 A 
ATOM     14  C   UNL     1       7.179   4.721  17.147  0.00  0.00    +0.000 A 
ATOM     15  C   UNL     1       5.875   4.763  17.645  0.00  0.00    +0.000 A 
ENDROOT
BRANCH  12  16
ATOM     16  O   UNL     1       6.543   4.130  13.617  0.00  0.00    +0.000 OA
ATOM     17  H   UNL     1       6.051   3.345  13.329  0.00  0.00    +0.000 HD
ENDBRANCH  12  16
TORSDOF 1
ENDMDL
MODEL 2
REMARK VINA RESULT:      -7.3      1.912      2.551
REMARK  Name = 
REMARK  1 active torsions:
REMARK  status: ('A' for Active; 'I' for Inactive)
REMARK    1  A    between atoms: C_12  and  O_13
REMARK                            x       y       z     vdW  Elec       q    Type
REMARK                         _______ _______ _______ _____ _____    ______ ____
ROOT
ATOM      1  O   UNL     1       3.259   8.054  17.655  0.00  0.00    +0.000 OA
ATOM      2  C   UNL     1       3.333   6.847  17.865  0.00  0.00    +0.000 C 
ATOM      3  C   UNL     1       2.132   6.032  18.249  0.00  0.00    +0.000 C 
ATOM      4  C   UNL     1       2.501   4.642  18.770  0.00  0.00    +0.000 C 
ATOM      5  C   UNL     1       1.226   3.765  18.774  0.00  0.00    +0.000 C 
ATOM      6  C   UNL     1       1.331   2.900  20.018  0.00  0.00    +0.000 C 
ATOM      7  C   UNL     1       1.951   3.840  21.034  0.00  0.00    +0.000 C 
ATOM      8  C   UNL     1       3.001   4.607  20.239  0.00  0.00    +0.000 C 
ATOM      9  O   UNL     1       3.469   3.994  17.923  0.00  0.00    +0.000 OA
ATOM     10  C   UNL     1       4.604   4.736  17.729  0.00  0.00    +0.000 A 
ATOM     11  C   UNL     1       5.801   4.037  17.552  0.00  0.00    +0.000 A 
ATOM     12  C   UNL     1       6.986   4.749  17.383  0.00  0.00    +0.000 A 
ATOM     13  C   UNL     1       6.991   6.141  17.355  0.00  0.00    +0.000 A 
ATOM     14  C   UNL     1       5.793   6.839  17.500  0.00  0.00    +0.000 A 
ATOM     15  C   UNL     1       4.606   6.131  17.697  0.00  0.00    +0.000 A 
ENDROOT
BRANCH  12  16
ATOM     16  O   UNL     1       8.185   4.113  17.250  0.00  0.00    +0.000 OA
ATOM     17  H   UNL     1       8.416   4.066  16.308  0.00  0.00    +0.000 HD
ENDBRANCH  12  16
TORSDOF 1
ENDMDL
MODEL 3
REMARK VINA RESULT:      -7.3      1.692      3.323
REMARK  Name = 
REMARK  1 active torsions:
REMARK  status: ('A' for Active; 'I' for Inactive)
REMARK    1  A    between atoms: C_12  and  O_13
REMARK                            x       y       z     vdW  Elec       q    Type
REMARK                         _______ _______ _______ _____ _____    ______ ____
ROOT
ATOM      1  O   UNL     1       4.760   4.071  15.388  0.00  0.00    +0.000 OA
ATOM      2  C   UNL     1       4.862   4.089  16.612  0.00  0.00    +0.000 C 
ATOM      3  C   UNL     1       4.029   3.206  17.493  0.00  0.00    +0.000 C 
ATOM      4  C   UNL     1       4.084   3.616  18.966  0.00  0.00    +0.000 C 
ATOM      5  C   UNL     1       3.524   2.453  19.820  0.00  0.00    +0.000 C 
ATOM      6  C   UNL     1       2.751   3.113  20.949  0.00  0.00    +0.000 C 
ATOM      7  C   UNL     1       2.111   4.307  20.269  0.00  0.00    +0.000 C 
ATOM      8  C   UNL     1       3.198   4.834  19.339  0.00  0.00    +0.000 C 
ATOM      9  O   UNL     1       5.436   3.860  19.401  0.00  0.00    +0.000 OA
ATOM     10  C   UNL     1       6.094   4.785  18.634  0.00  0.00    +0.000 A 
ATOM     11  C   UNL     1       7.048   5.580  19.273  0.00  0.00    +0.000 A 
ATOM     12  C   UNL     1       7.720   6.557  18.541  0.00  0.00    +0.000 A 
ATOM     13  C   UNL     1       7.481   6.727  17.181  0.00  0.00    +0.000 A 
ATOM     14  C   UNL     1       6.553   5.913  16.535  0.00  0.00    +0.000 A 
ATOM     15  C   UNL     1       5.856   4.951  17.270  0.00  0.00    +0.000 A 
ENDROOT
BRANCH  12  16
ATOM     16  O   UNL     1       8.628   7.387  19.130  0.00  0.00    +0.000 OA
ATOM     17  H   UNL     1       8.574   8.261  18.713  0.00  0.00    +0.000 HD
ENDBRANCH  12  16
TORSDOF 1
ENDMDL
MODEL 4
REMARK VINA RESULT:      -7.1      1.945      5.390
REMARK  Name = 
REMARK  1 active torsions:
REMARK  status: ('A' for Active; 'I' for Inactive)
REMARK    1  A    between atoms: C_12  and  O_13
REMARK                            x       y       z     vdW  Elec       q    Type
REMARK                         _______ _______ _______ _____ _____    ______ ____
ROOT
ATOM      1  O   UNL     1       2.400   2.255  17.562  0.00  0.00    +0.000 OA
ATOM      2  C   UNL     1       3.012   3.319  17.598  0.00  0.00    +0.000 C 
ATOM      3  C   UNL     1       4.128   3.627  16.643  0.00  0.00    +0.000 C 
ATOM      4  C   UNL     1       4.950   4.845  17.065  0.00  0.00    +0.000 C 
ATOM      5  C   UNL     1       5.805   5.302  15.857  0.00  0.00    +0.000 C 
ATOM      6  C   UNL     1       7.131   5.755  16.446  0.00  0.00    +0.000 C 
ATOM      7  C   UNL     1       7.361   4.761  17.568  0.00  0.00    +0.000 C 
ATOM      8  C   UNL     1       5.982   4.579  18.193  0.00  0.00    +0.000 C 
ATOM      9  O   UNL     1       4.109   5.952  17.442  0.00  0.00    +0.000 OA
ATOM     10  C   UNL     1       3.205   5.637  18.421  0.00  0.00    +0.000 A 
ATOM     11  C   UNL     1       2.848   6.654  19.310  0.00  0.00    +0.000 A 
ATOM     12  C   UNL     1       1.956   6.373  20.343  0.00  0.00    +0.000 A 
ATOM     13  C   UNL     1       1.392   5.109  20.482  0.00  0.00    +0.000 A 
ATOM     14  C   UNL     1       1.723   4.101  19.577  0.00  0.00    +0.000 A 
ATOM     15  C   UNL     1       2.638   4.370  18.556  0.00  0.00    +0.000 A 
ENDROOT
BRANCH  12  16
ATOM     16  O   UNL     1       1.610   7.320  21.261  0.00  0.00    +0.000 OA
ATOM     17  H   UNL     1       1.376   6.883  22.095  0.00  0.00    +0.000 HD
ENDBRANCH  12  16
TORSDOF 1
ENDMDL
MODEL 5
REMARK VINA RESULT:      -7.0      1.707      4.981
REMARK  Name = 
REMARK  1 active torsions:
REMARK  status: ('A' for Active; 'I' for Inactive)
REMARK    1  A    between atoms: C_12  and  O_13
REMARK                            x       y       z     vdW  Elec       q    Type
REMARK                         _______ _______ _______ _____ _____    ______ ____
ROOT
ATOM      1  O   UNL     1       2.842   7.478  18.027  0.00  0.00    +0.000 OA
ATOM      2  C   UNL     1       3.560   6.503  17.821  0.00  0.00    +0.000 C 
ATOM      3  C   UNL     1       4.974   6.646  17.338  0.00  0.00    +0.000 C 
ATOM      4  C   UNL     1       5.568   5.326  16.846  0.00  0.00    +0.000 C 
ATOM      5  C   UNL     1       7.103   5.490  16.735  0.00  0.00    +0.000 C 
ATOM      6  C   UNL     1       7.509   4.701  15.501  0.00  0.00    +0.000 C 
ATOM      7  C   UNL     1       6.363   4.957  14.542  0.00  0.00    +0.000 C 
ATOM      8  C   UNL     1       5.120   4.897  15.423  0.00  0.00    +0.000 C 
ATOM      9  O   UNL     1       5.314   4.250  17.768  0.00  0.00    +0.000 OA
ATOM     10  C   UNL     1       3.985   4.084  18.057  0.00  0.00    +0.000 A 
ATOM     11  C   UNL     1       3.549   2.786  18.331  0.00  0.00    +0.000 A 
ATOM     12  C   UNL     1       2.199   2.564  18.598  0.00  0.00    +0.000 A 
ATOM     13  C   UNL     1       1.290   3.617  18.630  0.00  0.00    +0.000 A 
ATOM     14  C   UNL     1       1.730   4.918  18.388  0.00  0.00    +0.000 A 
ATOM     15  C   UNL     1       3.076   5.142  18.092  0.00  0.00    +0.000 A 
ENDROOT
BRANCH  12  16
ATOM     16  O   UNL     1       1.718   1.309  18.828  0.00  0.00    +0.000 OA
ATOM     17  H   UNL     1       2.454   0.678  18.802  0.00  0.00    +0.000 HD
ENDBRANCH  12  16
TORSDOF 1
ENDMDL
MODEL 6
REMARK VINA RESULT:      -7.0      2.029      2.491
REMARK  Name = 
REMARK  1 active torsions:
REMARK  status: ('A' for Active; 'I' for Inactive)
REMARK    1  A    between atoms: C_12  and  O_13
REMARK                            x       y       z     vdW  Elec       q    Type
REMARK                         _______ _______ _______ _____ _____    ______ ____
ROOT
ATOM      1  O   UNL     1       2.933   7.852  18.256  0.00  0.00    +0.000 OA
ATOM      2  C   UNL     1       2.845   6.631  18.357  0.00  0.00    +0.000 C 
ATOM      3  C   UNL     1       1.798   5.979  19.211  0.00  0.00    +0.000 C 
ATOM      4  C   UNL     1       2.067   4.491  19.446  0.00  0.00    +0.000 C 
ATOM      5  C   UNL     1       0.775   3.839  19.994  0.00  0.00    +0.000 C 
ATOM      6  C   UNL     1       1.238   2.813  21.014  0.00  0.00    +0.000 C 
ATOM      7  C   UNL     1       2.418   3.499  21.674  0.00  0.00    +0.000 C 
ATOM      8  C   UNL     1       3.144   4.183  20.520  0.00  0.00    +0.000 C 
ATOM      9  O   UNL     1       2.409   3.812  18.222  0.00  0.00    +0.000 OA
ATOM     10  C   UNL     1       3.467   4.379  17.564  0.00  0.00    +0.000 A 
ATOM     11  C   UNL     1       4.293   3.525  16.829  0.00  0.00    +0.000 A 
ATOM     12  C   UNL     1       5.401   4.052  16.168  0.00  0.00    +0.000 A 
ATOM     13  C   UNL     1       5.676   5.416  16.201  0.00  0.00    +0.000 A 
ATOM     14  C   UNL     1       4.834   6.274  16.908  0.00  0.00    +0.000 A 
ATOM     15  C   UNL     1       3.739   5.747  17.595  0.00  0.00    +0.000 A 
ENDROOT
BRANCH  12  16
ATOM     16  O   UNL     1       6.261   3.253  15.474  0.00  0.00    +0.000 OA
ATOM     17  H   UNL     1       5.756   2.720  14.840  0.00  0.00    +0.000 HD
ENDBRANCH  12  16
TORSDOF 1
ENDMDL
MODEL 7
REMARK VINA RESULT:      -6.8      2.127      5.479
REMARK  Name = 
REMARK  1 active torsions:
REMARK  status: ('A' for Active; 'I' for Inactive)
REMARK    1  A    between atoms: C_12  and  O_13
REMARK                            x       y       z     vdW  Elec       q    Type
REMARK                         _______ _______ _______ _____ _____    ______ ____
ROOT
ATOM      1  O   UNL     1       3.659   2.345  17.864  0.00  0.00    +0.000 OA
ATOM      2  C   UNL     1       3.975   3.525  17.986  0.00  0.00    +0.000 C 
ATOM      3  C   UNL     1       5.139   4.116  17.245  0.00  0.00    +0.000 C 
ATOM      4  C   UNL     1       5.546   5.490  17.781  0.00  0.00    +0.000 C 
ATOM      5  C   UNL     1       6.472   6.166  16.741  0.00  0.00    +0.000 C 
ATOM      6  C   UNL     1       7.515   6.918  17.552  0.00  0.00    +0.000 C 
ATOM      7  C   UNL     1       7.768   5.987  18.723  0.00  0.00    +0.000 C 
ATOM      8  C   UNL     1       6.385   5.460  19.086  0.00  0.00    +0.000 C 
ATOM      9  O   UNL     1       4.406   6.349  17.968  0.00  0.00    +0.000 OA
ATOM     10  C   UNL     1       3.441   5.803  18.772  0.00  0.00    +0.000 A 
ATOM     11  C   UNL     1       2.688   6.683  19.553  0.00  0.00    +0.000 A 
ATOM     12  C   UNL     1       1.716   6.170  20.410  0.00  0.00    +0.000 A 
ATOM     13  C   UNL     1       1.462   4.804  20.474  0.00  0.00    +0.000 A 
ATOM     14  C   UNL     1       2.191   3.927  19.672  0.00  0.00    +0.000 A 
ATOM     15  C   UNL     1       3.185   4.432  18.831  0.00  0.00    +0.000 A 
ENDROOT
BRANCH  12  16
ATOM     16  O   UNL     1       0.986   6.985  21.224  0.00  0.00    +0.000 OA
ATOM     17  H   UNL     1       0.060   6.973  20.935  0.00  0.00    +0.000 HD
ENDBRANCH  12  16
TORSDOF 1
ENDMDL
MODEL 8
REMARK VINA RESULT:      -6.8      3.076      4.806
REMARK  Name = 
REMARK  1 active torsions:
REMARK  status: ('A' for Active; 'I' for Inactive)
REMARK    1  A    between atoms: C_12  and  O_13
REMARK                            x       y       z     vdW  Elec       q    Type
REMARK                         _______ _______ _______ _____ _____    ______ ____
ROOT
ATOM      1  O   UNL     1       4.529   5.627  16.837  0.00  0.00    +0.000 OA
ATOM      2  C   UNL     1       3.846   5.538  17.854  0.00  0.00    +0.000 C 
ATOM      3  C   UNL     1       3.803   4.282  18.675  0.00  0.00    +0.000 C 
ATOM      4  C   UNL     1       2.663   4.279  19.694  0.00  0.00    +0.000 C 
ATOM      5  C   UNL     1       2.927   3.152  20.722  0.00  0.00    +0.000 C 
ATOM      6  C   UNL     1       1.562   2.570  21.048  0.00  0.00    +0.000 C 
ATOM      7  C   UNL     1       0.847   2.614  19.711  0.00  0.00    +0.000 C 
ATOM      8  C   UNL     1       1.264   3.951  19.109  0.00  0.00    +0.000 C 
ATOM      9  O   UNL     1       2.595   5.520  20.422  0.00  0.00    +0.000 OA
ATOM     10  C   UNL     1       2.493   6.619  19.611  0.00  0.00    +0.000 A 
ATOM     11  C   UNL     1       1.773   7.711  20.104  0.00  0.00    +0.000 A 
ATOM     12  C   UNL     1       1.615   8.839  19.302  0.00  0.00    +0.000 A 
ATOM     13  C   UNL     1       2.191   8.909  18.038  0.00  0.00    +0.000 A 
ATOM     14  C   UNL     1       2.937   7.834  17.557  0.00  0.00    +0.000 A 
ATOM     15  C   UNL     1       3.075   6.689  18.345  0.00  0.00    +0.000 A 
ENDROOT
BRANCH  12  16
ATOM     16  O   UNL     1       0.884   9.912  19.721  0.00  0.00    +0.000 OA
ATOM     17  H   UNL     1       1.029  10.042  20.672  0.00  0.00    +0.000 HD
ENDBRANCH  12  16
TORSDOF 1
ENDMDL
MODEL 9
REMARK VINA RESULT:      -6.8      1.528      3.523
REMARK  Name = 
REMARK  1 active torsions:
REMARK  status: ('A' for Active; 'I' for Inactive)
REMARK    1  A    between atoms: C_12  and  O_13
REMARK                            x       y       z     vdW  Elec       q    Type
REMARK                         _______ _______ _______ _____ _____    ______ ____
ROOT
ATOM      1  O   UNL     1       5.994   5.960  14.907  0.00  0.00    +0.000 OA
ATOM      2  C   UNL     1       5.563   5.357  15.886  0.00  0.00    +0.000 C 
ATOM      3  C   UNL     1       4.354   4.472  15.805  0.00  0.00    +0.000 C 
ATOM      4  C   UNL     1       3.809   4.085  17.181  0.00  0.00    +0.000 C 
ATOM      5  C   UNL     1       2.832   2.897  17.006  0.00  0.00    +0.000 C 
ATOM      6  C   UNL     1       1.713   3.140  18.005  0.00  0.00    +0.000 C 
ATOM      7  C   UNL     1       1.540   4.646  17.961  0.00  0.00    +0.000 C 
ATOM      8  C   UNL     1       2.965   5.183  17.882  0.00  0.00    +0.000 C 
ATOM      9  O   UNL     1       4.859   3.654  18.068  0.00  0.00    +0.000 OA
ATOM     10  C   UNL     1       5.864   4.573  18.206  0.00  0.00    +0.000 A 
ATOM     11  C   UNL     1       6.520   4.622  19.439  0.00  0.00    +0.000 A 
ATOM     12  C   UNL     1       7.529   5.562  19.637  0.00  0.00    +0.000 A 
ATOM     13  C   UNL     1       7.914   6.428  18.618  0.00  0.00    +0.000 A 
ATOM     14  C   UNL     1       7.282   6.361  17.377  0.00  0.00    +0.000 A 
ATOM     15  C   UNL     1       6.252   5.438  17.182  0.00  0.00    +0.000 A 
ENDROOT
BRANCH  12  16
ATOM     16  O   UNL     1       8.168   5.677  20.836  0.00  0.00    +0.000 OA
ATOM     17  H   UNL     1       9.113   5.497  20.710  0.00  0.00    +0.000 HD
ENDBRANCH  12  16
TORSDOF 1
ENDMDL
