MODEL 1
REMARK VINA RESULT:      -6.2      0.000      0.000
REMARK  Name = 
REMARK  8 active torsions:
REMARK  status: ('A' for Active; 'I' for Inactive)
REMARK    1  A    between atoms: C_1  and  O_2
REMARK    2  A    between atoms: O_2  and  C_3
REMARK    3  A    between atoms: C_3  and  C_4
REMARK    4  A    between atoms: C_4  and  O_5
REMARK    5  A    between atoms: O_5  and  C_6
REMARK    6  A    between atoms: C_6  and  C_7
REMARK    7  A    between atoms: C_11  and  C_13
REMARK    8  A    between atoms: C_13  and  C_14
REMARK                            x       y       z     vdW  Elec       q    Type
REMARK                         _______ _______ _______ _____ _____    ______ ____
ROOT
ATOM      1  C   UNL     1       3.172   2.413  19.460  0.00  0.00    +0.000 C 
ATOM      2  C   UNL     1       2.828   2.775  18.011  0.00  0.00    +0.000 C 
ATOM      3  C   UNL     1       4.199   2.983  17.386  0.00  0.00    +0.000 C 
ATOM      4  N   UNL     1       4.943   3.651  18.445  0.00  0.00    +0.000 N 
ATOM      5  C   UNL     1       5.875   4.672  18.376  0.00  0.00    +0.000 C 
ATOM      6  O   UNL     1       6.391   5.095  19.417  0.00  0.00    +0.000 OA
ATOM      7  C   UNL     1       4.441   3.225  19.746  0.00  0.00    +0.000 C 
ENDROOT
BRANCH   5   8
ATOM      8  C   UNL     1       6.254   5.286  17.019  0.00  0.00    +0.000 C 
ATOM      9  C   UNL     1       5.044   5.415  16.068  0.00  0.00    +0.000 C 
ATOM     10  C   UNL     1       5.472   4.823  14.719  0.00  0.00    +0.000 C 
ATOM     11  C   UNL     1       6.985   4.741  14.777  0.00  0.00    +0.000 C 
ATOM     12  C   UNL     1       7.240   4.387  16.235  0.00  0.00    +0.000 C 
BRANCH   8  13
ATOM     13  C   UNL     1       6.918   6.585  17.245  0.00  0.00    +0.000 C 
ATOM     14  N   UNL     1       7.462   7.596  17.433  0.00  0.00    +0.000 NA
ENDBRANCH   8  13
ENDBRANCH   5   8
BRANCH   1  15
ATOM     15  C   UNL     1       2.063   2.735  20.457  0.00  0.00    +0.000 C 
BRANCH  15  16
ATOM     16  O   UNL     1       2.286   4.010  21.061  0.00  0.00    +0.000 OA
BRANCH  16  17
ATOM     17  C   UNL     1       1.303   4.954  20.620  0.00  0.00    +0.000 C 
BRANCH  17  18
ATOM     18  C   UNL     1       1.903   6.353  20.542  0.00  0.00    +0.000 C 
BRANCH  18  20
ATOM     19  C   UNL     1       2.532   6.578  18.281  0.00  0.00    +0.000 C 
ATOM     20  O   UNL     1       2.983   6.347  19.608  0.00  0.00    +0.000 OA
ENDBRANCH  18  20
ENDBRANCH  17  18
ENDBRANCH  16  17
ENDBRANCH  15  16
ENDBRANCH   1  15
TORSDOF 7
ENDMDL
MODEL 2
REMARK VINA RESULT:      -6.2      2.047      3.502
REMARK  Name = 
REMARK  8 active torsions:
REMARK  status: ('A' for Active; 'I' for Inactive)
REMARK    1  A    between atoms: C_1  and  O_2
REMARK    2  A    between atoms: O_2  and  C_3
REMARK    3  A    between atoms: C_3  and  C_4
REMARK    4  A    between atoms: C_4  and  O_5
REMARK    5  A    between atoms: O_5  and  C_6
REMARK    6  A    between atoms: C_6  and  C_7
REMARK    7  A    between atoms: C_11  and  C_13
REMARK    8  A    between atoms: C_13  and  C_14
REMARK                            x       y       z     vdW  Elec       q    Type
REMARK                         _______ _______ _______ _____ _____    ______ ____
ROOT
ATOM      1  C   UNL     1       1.926   5.110  18.997  0.00  0.00    +0.000 C 
ATOM      2  C   UNL     1       3.102   5.592  19.854  0.00  0.00    +0.000 C 
ATOM      3  C   UNL     1       4.000   6.274  18.833  0.00  0.00    +0.000 C 
ATOM      4  N   UNL     1       3.887   5.408  17.668  0.00  0.00    +0.000 N 
ATOM      5  C   UNL     1       4.845   5.017  16.748  0.00  0.00    +0.000 C 
ATOM      6  O   UNL     1       4.526   4.263  15.821  0.00  0.00    +0.000 OA
ATOM      7  C   UNL     1       2.574   4.774  17.648  0.00  0.00    +0.000 C 
ENDROOT
BRANCH   5   8
ATOM      8  C   UNL     1       6.296   5.505  16.884  0.00  0.00    +0.000 C 
ATOM      9  C   UNL     1       7.044   4.823  18.051  0.00  0.00    +0.000 C 
ATOM     10  C   UNL     1       7.715   5.938  18.863  0.00  0.00    +0.000 C 
ATOM     11  C   UNL     1       7.696   7.159  17.963  0.00  0.00    +0.000 C 
ATOM     12  C   UNL     1       6.368   7.010  17.236  0.00  0.00    +0.000 C 
BRANCH   8  13
ATOM     13  C   UNL     1       6.993   5.314  15.597  0.00  0.00    +0.000 C 
ATOM     14  N   UNL     1       7.564   5.156  14.596  0.00  0.00    +0.000 NA
ENDBRANCH   8  13
ENDBRANCH   5   8
BRANCH   1  15
ATOM     15  C   UNL     1       1.189   3.908  19.579  0.00  0.00    +0.000 C 
BRANCH  15  16
ATOM     16  O   UNL     1       1.313   2.776  18.716  0.00  0.00    +0.000 OA
BRANCH  16  17
ATOM     17  C   UNL     1       2.154   1.781  19.309  0.00  0.00    +0.000 C 
BRANCH  17  18
ATOM     18  C   UNL     1       3.399   1.558  18.459  0.00  0.00    +0.000 C 
BRANCH  18  20
ATOM     19  C   UNL     1       4.335   2.211  20.523  0.00  0.00    +0.000 C 
ATOM     20  O   UNL     1       4.524   2.144  19.117  0.00  0.00    +0.000 OA
ENDBRANCH  18  20
ENDBRANCH  17  18
ENDBRANCH  16  17
ENDBRANCH  15  16
ENDBRANCH   1  15
TORSDOF 7
ENDMDL
MODEL 3
REMARK VINA RESULT:      -6.2      2.089      5.869
REMARK  Name = 
REMARK  8 active torsions:
REMARK  status: ('A' for Active; 'I' for Inactive)
REMARK    1  A    between atoms: C_1  and  O_2
REMARK    2  A    between atoms: O_2  and  C_3
REMARK    3  A    between atoms: C_3  and  C_4
REMARK    4  A    between atoms: C_4  and  O_5
REMARK    5  A    between atoms: O_5  and  C_6
REMARK    6  A    between atoms: C_6  and  C_7
REMARK    7  A    between atoms: C_11  and  C_13
REMARK    8  A    between atoms: C_13  and  C_14
REMARK                            x       y       z     vdW  Elec       q    Type
REMARK                         _______ _______ _______ _____ _____    ______ ____
ROOT
ATOM      1  C   UNL     1       5.182   6.111  16.100  0.00  0.00    +0.000 C 
ATOM      2  C   UNL     1       5.380   4.601  16.283  0.00  0.00    +0.000 C 
ATOM      3  C   UNL     1       4.058   4.164  16.893  0.00  0.00    +0.000 C 
ATOM      4  N   UNL     1       3.738   5.258  17.800  0.00  0.00    +0.000 N 
ATOM      5  C   UNL     1       3.168   5.236  19.061  0.00  0.00    +0.000 C 
ATOM      6  O   UNL     1       2.984   6.301  19.663  0.00  0.00    +0.000 OA
ATOM      7  C   UNL     1       4.289   6.505  17.283  0.00  0.00    +0.000 C 
ENDROOT
BRANCH   5   8
ATOM      8  C   UNL     1       2.781   3.901  19.715  0.00  0.00    +0.000 C 
ATOM      9  C   UNL     1       1.662   3.166  18.945  0.00  0.00    +0.000 C 
ATOM     10  C   UNL     1       0.603   2.759  19.978  0.00  0.00    +0.000 C 
ATOM     11  C   UNL     1       1.286   2.887  21.326  0.00  0.00    +0.000 C 
ATOM     12  C   UNL     1       2.181   4.101  21.127  0.00  0.00    +0.000 C 
BRANCH   8  13
ATOM     13  C   UNL     1       3.990   3.065  19.858  0.00  0.00    +0.000 C 
ATOM     14  N   UNL     1       4.931   2.395  19.992  0.00  0.00    +0.000 NA
ENDBRANCH   8  13
ENDBRANCH   5   8
BRANCH   1  15
ATOM     15  C   UNL     1       6.482   6.908  16.088  0.00  0.00    +0.000 C 
BRANCH  15  16
ATOM     16  O   UNL     1       7.491   6.234  16.843  0.00  0.00    +0.000 OA
BRANCH  16  17
ATOM     17  C   UNL     1       7.795   6.962  18.038  0.00  0.00    +0.000 C 
BRANCH  17  18
ATOM     18  C   UNL     1       7.887   8.455  17.745  0.00  0.00    +0.000 C 
BRANCH  18  20
ATOM     19  C   UNL     1       9.027  10.420  18.380  0.00  0.00    +0.000 C 
ATOM     20  O   UNL     1       8.740   9.069  18.713  0.00  0.00    +0.000 OA
ENDBRANCH  18  20
ENDBRANCH  17  18
ENDBRANCH  16  17
ENDBRANCH  15  16
ENDBRANCH   1  15
TORSDOF 7
ENDMDL
MODEL 4
REMARK VINA RESULT:      -6.1      1.871      3.223
REMARK  Name = 
REMARK  8 active torsions:
REMARK  status: ('A' for Active; 'I' for Inactive)
REMARK    1  A    between atoms: C_1  and  O_2
REMARK    2  A    between atoms: O_2  and  C_3
REMARK    3  A    between atoms: C_3  and  C_4
REMARK    4  A    between atoms: C_4  and  O_5
REMARK    5  A    between atoms: O_5  and  C_6
REMARK    6  A    between atoms: C_6  and  C_7
REMARK    7  A    between atoms: C_11  and  C_13
REMARK    8  A    between atoms: C_13  and  C_14
REMARK                            x       y       z     vdW  Elec       q    Type
REMARK                         _______ _______ _______ _____ _____    ______ ____
ROOT
ATOM      1  C   UNL     1       1.841   4.948  18.322  0.00  0.00    +0.000 C 
ATOM      2  C   UNL     1       2.759   5.947  19.036  0.00  0.00    +0.000 C 
ATOM      3  C   UNL     1       3.742   6.336  17.943  0.00  0.00    +0.000 C 
ATOM      4  N   UNL     1       3.967   5.078  17.243  0.00  0.00    +0.000 N 
ATOM      5  C   UNL     1       5.126   4.554  16.696  0.00  0.00    +0.000 C 
ATOM      6  O   UNL     1       5.090   3.451  16.138  0.00  0.00    +0.000 OA
ATOM      7  C   UNL     1       2.774   4.245  17.328  0.00  0.00    +0.000 C 
ENDROOT
BRANCH   5   8
ATOM      8  C   UNL     1       6.449   5.330  16.794  0.00  0.00    +0.000 C 
ATOM      9  C   UNL     1       7.336   4.845  17.962  0.00  0.00    +0.000 C 
ATOM     10  C   UNL     1       7.778   6.095  18.735  0.00  0.00    +0.000 C 
ATOM     11  C   UNL     1       7.499   7.261  17.806  0.00  0.00    +0.000 C 
ATOM     12  C   UNL     1       6.219   6.827  17.108  0.00  0.00    +0.000 C 
BRANCH   8  13
ATOM     13  C   UNL     1       7.153   5.249  15.499  0.00  0.00    +0.000 C 
ATOM     14  N   UNL     1       7.688   5.198  14.467  0.00  0.00    +0.000 NA
ENDBRANCH   8  13
ENDBRANCH   5   8
BRANCH   1  15
ATOM     15  C   UNL     1       1.165   3.951  19.258  0.00  0.00    +0.000 C 
BRANCH  15  16
ATOM     16  O   UNL     1       1.242   4.402  20.611  0.00  0.00    +0.000 OA
BRANCH  16  17
ATOM     17  C   UNL     1       1.547   3.312  21.488  0.00  0.00    +0.000 C 
BRANCH  17  18
ATOM     18  C   UNL     1       2.387   2.264  20.765  0.00  0.00    +0.000 C 
BRANCH  18  20
ATOM     19  C   UNL     1       4.507   2.133  19.741  0.00  0.00    +0.000 C 
ATOM     20  O   UNL     1       3.764   2.636  20.843  0.00  0.00    +0.000 OA
ENDBRANCH  18  20
ENDBRANCH  17  18
ENDBRANCH  16  17
ENDBRANCH  15  16
ENDBRANCH   1  15
TORSDOF 7
ENDMDL
MODEL 5
REMARK VINA RESULT:      -6.1      2.576      6.329
REMARK  Name = 
REMARK  8 active torsions:
REMARK  status: ('A' for Active; 'I' for Inactive)
REMARK    1  A    between atoms: C_1  and  O_2
REMARK    2  A    between atoms: O_2  and  C_3
REMARK    3  A    between atoms: C_3  and  C_4
REMARK    4  A    between atoms: C_4  and  O_5
REMARK    5  A    between atoms: O_5  and  C_6
REMARK    6  A    between atoms: C_6  and  C_7
REMARK    7  A    between atoms: C_11  and  C_13
REMARK    8  A    between atoms: C_13  and  C_14
REMARK                            x       y       z     vdW  Elec       q    Type
REMARK                         _______ _______ _______ _____ _____    ______ ____
ROOT
ATOM      1  C   UNL     1       6.624   5.506  16.189  0.00  0.00    +0.000 C 
ATOM      2  C   UNL     1       5.170   5.791  15.792  0.00  0.00    +0.000 C 
ATOM      3  C   UNL     1       4.482   5.946  17.139  0.00  0.00    +0.000 C 
ATOM      4  N   UNL     1       5.125   4.926  17.955  0.00  0.00    +0.000 N 
ATOM      5  C   UNL     1       4.594   4.086  18.919  0.00  0.00    +0.000 C 
ATOM      6  O   UNL     1       5.334   3.281  19.497  0.00  0.00    +0.000 OA
ATOM      7  C   UNL     1       6.494   4.718  17.498  0.00  0.00    +0.000 C 
ENDROOT
BRANCH   5   8
ATOM      8  C   UNL     1       3.096   4.142  19.257  0.00  0.00    +0.000 C 
ATOM      9  C   UNL     1       2.670   5.509  19.835  0.00  0.00    +0.000 C 
ATOM     10  C   UNL     1       1.859   5.223  21.106  0.00  0.00    +0.000 C 
ATOM     11  C   UNL     1       1.487   3.755  21.023  0.00  0.00    +0.000 C 
ATOM     12  C   UNL     1       2.718   3.140  20.374  0.00  0.00    +0.000 C 
BRANCH   8  13
ATOM     13  C   UNL     1       2.316   3.786  18.055  0.00  0.00    +0.000 C 
ATOM     14  N   UNL     1       1.687   3.489  17.123  0.00  0.00    +0.000 NA
ENDBRANCH   8  13
ENDBRANCH   5   8
BRANCH   1  15
ATOM     15  C   UNL     1       7.410   4.726  15.140  0.00  0.00    +0.000 C 
BRANCH  15  16
ATOM     16  O   UNL     1       7.688   5.550  14.006  0.00  0.00    +0.000 OA
BRANCH  16  17
ATOM     17  C   UNL     1       7.321   4.879  12.795  0.00  0.00    +0.000 C 
BRANCH  17  18
ATOM     18  C   UNL     1       6.467   3.654  13.101  0.00  0.00    +0.000 C 
BRANCH  18  20
ATOM     19  C   UNL     1       4.678   3.113  11.663  0.00  0.00    +0.000 C 
ATOM     20  O   UNL     1       5.112   3.929  12.742  0.00  0.00    +0.000 OA
ENDBRANCH  18  20
ENDBRANCH  17  18
ENDBRANCH  16  17
ENDBRANCH  15  16
ENDBRANCH   1  15
TORSDOF 7
ENDMDL
MODEL 6
REMARK VINA RESULT:      -6.1      2.582      6.053
REMARK  Name = 
REMARK  8 active torsions:
REMARK  status: ('A' for Active; 'I' for Inactive)
REMARK    1  A    between atoms: C_1  and  O_2
REMARK    2  A    between atoms: O_2  and  C_3
REMARK    3  A    between atoms: C_3  and  C_4
REMARK    4  A    between atoms: C_4  and  O_5
REMARK    5  A    between atoms: O_5  and  C_6
REMARK    6  A    between atoms: C_6  and  C_7
REMARK    7  A    between atoms: C_11  and  C_13
REMARK    8  A    between atoms: C_13  and  C_14
REMARK                            x       y       z     vdW  Elec       q    Type
REMARK                         _______ _______ _______ _____ _____    ______ ____
ROOT
ATOM      1  C   UNL     1       6.204   5.957  16.564  0.00  0.00    +0.000 C 
ATOM      2  C   UNL     1       6.297   4.437  16.743  0.00  0.00    +0.000 C 
ATOM      3  C   UNL     1       4.849   4.042  16.985  0.00  0.00    +0.000 C 
ATOM      4  N   UNL     1       4.346   5.128  17.815  0.00  0.00    +0.000 N 
ATOM      5  C   UNL     1       3.475   5.104  18.890  0.00  0.00    +0.000 C 
ATOM      6  O   UNL     1       3.180   6.162  19.458  0.00  0.00    +0.000 OA
ATOM      7  C   UNL     1       5.054   6.363  17.494  0.00  0.00    +0.000 C 
ENDROOT
BRANCH   5   8
ATOM      8  C   UNL     1       2.888   3.771  19.382  0.00  0.00    +0.000 C 
ATOM      9  C   UNL     1       1.989   3.093  18.326  0.00  0.00    +0.000 C 
ATOM     10  C   UNL     1       0.683   2.706  19.034  0.00  0.00    +0.000 C 
ATOM     11  C   UNL     1       0.991   2.784  20.517  0.00  0.00    +0.000 C 
ATOM     12  C   UNL     1       1.944   3.968  20.592  0.00  0.00    +0.000 C 
BRANCH   8  13
ATOM     13  C   UNL     1       3.990   2.889  19.815  0.00  0.00    +0.000 C 
ATOM     14  N   UNL     1       4.841   2.175  20.160  0.00  0.00    +0.000 NA
ENDBRANCH   8  13
ENDBRANCH   5   8
BRANCH   1  15
ATOM     15  C   UNL     1       7.491   6.700  16.906  0.00  0.00    +0.000 C 
BRANCH  15  16
ATOM     16  O   UNL     1       7.206   8.047  17.291  0.00  0.00    +0.000 OA
BRANCH  16  17
ATOM     17  C   UNL     1       8.250   8.563  18.124  0.00  0.00    +0.000 C 
BRANCH  17  18
ATOM     18  C   UNL     1       8.396  10.067  17.928  0.00  0.00    +0.000 C 
BRANCH  18  20
ATOM     19  C   UNL     1       9.355  10.695  19.988  0.00  0.00    +0.000 C 
ATOM     20  O   UNL     1       9.577  10.513  18.597  0.00  0.00    +0.000 OA
ENDBRANCH  18  20
ENDBRANCH  17  18
ENDBRANCH  16  17
ENDBRANCH  15  16
ENDBRANCH   1  15
TORSDOF 7
ENDMDL
MODEL 7
REMARK VINA RESULT:      -6.1      2.204      6.084
REMARK  Name = 
REMARK  8 active torsions:
REMARK  status: ('A' for Active; 'I' for Inactive)
REMARK    1  A    between atoms: C_1  and  O_2
REMARK    2  A    between atoms: O_2  and  C_3
REMARK    3  A    between atoms: C_3  and  C_4
REMARK    4  A    between atoms: C_4  and  O_5
REMARK    5  A    between atoms: O_5  and  C_6
REMARK    6  A    between atoms: C_6  and  C_7
REMARK    7  A    between atoms: C_11  and  C_13
REMARK    8  A    between atoms: C_13  and  C_14
REMARK                            x       y       z     vdW  Elec       q    Type
REMARK                         _______ _______ _______ _____ _____    ______ ____
ROOT
ATOM      1  C   UNL     1       6.216   6.540  17.538  0.00  0.00    +0.000 C 
ATOM      2  C   UNL     1       4.787   6.577  16.984  0.00  0.00    +0.000 C 
ATOM      3  C   UNL     1       3.954   6.144  18.180  0.00  0.00    +0.000 C 
ATOM      4  N   UNL     1       4.775   5.108  18.792  0.00  0.00    +0.000 N 
ATOM      5  C   UNL     1       4.409   3.912  19.386  0.00  0.00    +0.000 C 
ATOM      6  O   UNL     1       5.284   3.171  19.848  0.00  0.00    +0.000 OA
ATOM      7  C   UNL     1       6.185   5.383  18.544  0.00  0.00    +0.000 C 
ENDROOT
BRANCH   5   8
ATOM      8  C   UNL     1       2.929   3.503  19.459  0.00  0.00    +0.000 C 
ATOM      9  C   UNL     1       1.986   4.715  19.619  0.00  0.00    +0.000 C 
ATOM     10  C   UNL     1       1.032   4.388  20.776  0.00  0.00    +0.000 C 
ATOM     11  C   UNL     1       1.155   2.891  20.988  0.00  0.00    +0.000 C 
ATOM     12  C   UNL     1       2.630   2.640  20.708  0.00  0.00    +0.000 C 
BRANCH   8  13
ATOM     13  C   UNL     1       2.592   2.698  18.268  0.00  0.00    +0.000 C 
ATOM     14  N   UNL     1       2.303   2.076  17.328  0.00  0.00    +0.000 NA
ENDBRANCH   8  13
ENDBRANCH   5   8
BRANCH   1  15
ATOM     15  C   UNL     1       7.287   6.330  16.473  0.00  0.00    +0.000 C 
BRANCH  15  16
ATOM     16  O   UNL     1       6.691   5.969  15.226  0.00  0.00    +0.000 OA
BRANCH  16  17
ATOM     17  C   UNL     1       7.133   4.670  14.814  0.00  0.00    +0.000 C 
BRANCH  17  18
ATOM     18  C   UNL     1       5.947   3.723  14.669  0.00  0.00    +0.000 C 
BRANCH  18  20
ATOM     19  C   UNL     1       6.244   3.416  12.349  0.00  0.00    +0.000 C 
ATOM     20  O   UNL     1       5.376   3.888  13.370  0.00  0.00    +0.000 OA
ENDBRANCH  18  20
ENDBRANCH  17  18
ENDBRANCH  16  17
ENDBRANCH  15  16
ENDBRANCH   1  15
TORSDOF 7
ENDMDL
MODEL 8
REMARK VINA RESULT:      -6.1      2.981      6.350
REMARK  Name = 
REMARK  8 active torsions:
REMARK  status: ('A' for Active; 'I' for Inactive)
REMARK    1  A    between atoms: C_1  and  O_2
REMARK    2  A    between atoms: O_2  and  C_3
REMARK    3  A    between atoms: C_3  and  C_4
REMARK    4  A    between atoms: C_4  and  O_5
REMARK    5  A    between atoms: O_5  and  C_6
REMARK    6  A    between atoms: C_6  and  C_7
REMARK    7  A    between atoms: C_11  and  C_13
REMARK    8  A    between atoms: C_13  and  C_14
REMARK                            x       y       z     vdW  Elec       q    Type
REMARK                         _______ _______ _______ _____ _____    ______ ____
ROOT
ATOM      1  C   UNL     1       6.452   5.391  16.069  0.00  0.00    +0.000 C 
ATOM      2  C   UNL     1       4.991   5.742  15.760  0.00  0.00    +0.000 C 
ATOM      3  C   UNL     1       4.402   5.962  17.144  0.00  0.00    +0.000 C 
ATOM      4  N   UNL     1       5.046   4.928  17.943  0.00  0.00    +0.000 N 
ATOM      5  C   UNL     1       4.539   4.138  18.960  0.00  0.00    +0.000 C 
ATOM      6  O   UNL     1       5.274   3.310  19.510  0.00  0.00    +0.000 OA
ATOM      7  C   UNL     1       6.370   4.640  17.404  0.00  0.00    +0.000 C 
ENDROOT
BRANCH   5   8
ATOM      8  C   UNL     1       3.071   4.279  19.393  0.00  0.00    +0.000 C 
ATOM      9  C   UNL     1       2.725   3.396  20.612  0.00  0.00    +0.000 C 
ATOM     10  C   UNL     1       1.439   2.637  20.261  0.00  0.00    +0.000 C 
ATOM     11  C   UNL     1       0.853   3.367  19.068  0.00  0.00    +0.000 C 
ATOM     12  C   UNL     1       2.096   3.787  18.297  0.00  0.00    +0.000 C 
BRANCH   8  13
ATOM     13  C   UNL     1       2.777   5.704  19.646  0.00  0.00    +0.000 C 
ATOM     14  N   UNL     1       2.528   6.819  19.864  0.00  0.00    +0.000 NA
ENDBRANCH   8  13
ENDBRANCH   5   8
BRANCH   1  15
ATOM     15  C   UNL     1       7.127   4.549  14.991  0.00  0.00    +0.000 C 
BRANCH  15  16
ATOM     16  O   UNL     1       6.158   3.781  14.274  0.00  0.00    +0.000 OA
BRANCH  16  17
ATOM     17  C   UNL     1       6.477   3.747  12.879  0.00  0.00    +0.000 C 
BRANCH  17  18
ATOM     18  C   UNL     1       5.300   3.206  12.075  0.00  0.00    +0.000 C 
BRANCH  18  20
ATOM     19  C   UNL     1       7.030   1.863  11.200  0.00  0.00    +0.000 C 
ATOM     20  O   UNL     1       5.651   1.931  11.535  0.00  0.00    +0.000 OA
ENDBRANCH  18  20
ENDBRANCH  17  18
ENDBRANCH  16  17
ENDBRANCH  15  16
ENDBRANCH   1  15
TORSDOF 7
ENDMDL
MODEL 9
REMARK VINA RESULT:      -6.0      3.247      6.590
REMARK  Name = 
REMARK  8 active torsions:
REMARK  status: ('A' for Active; 'I' for Inactive)
REMARK    1  A    between atoms: C_1  and  O_2
REMARK    2  A    between atoms: O_2  and  C_3
REMARK    3  A    between atoms: C_3  and  C_4
REMARK    4  A    between atoms: C_4  and  O_5
REMARK    5  A    between atoms: O_5  and  C_6
REMARK    6  A    between atoms: C_6  and  C_7
REMARK    7  A    between atoms: C_11  and  C_13
REMARK    8  A    between atoms: C_13  and  C_14
REMARK                            x       y       z     vdW  Elec       q    Type
REMARK                         _______ _______ _______ _____ _____    ______ ____
ROOT
ATOM      1  C   UNL     1       6.695   4.702  15.947  0.00  0.00    +0.000 C 
ATOM      2  C   UNL     1       6.287   5.990  16.671  0.00  0.00    +0.000 C 
ATOM      3  C   UNL     1       5.603   5.466  17.924  0.00  0.00    +0.000 C 
ATOM      4  N   UNL     1       4.870   4.306  17.435  0.00  0.00    +0.000 N 
ATOM      5  C   UNL     1       3.614   3.834  17.775  0.00  0.00    +0.000 C 
ATOM      6  O   UNL     1       3.180   2.814  17.226  0.00  0.00    +0.000 OA
ATOM      7  C   UNL     1       5.576   3.716  16.304  0.00  0.00    +0.000 C 
ENDROOT
BRANCH   5   8
ATOM      8  C   UNL     1       2.761   4.577  18.814  0.00  0.00    +0.000 C 
ATOM      9  C   UNL     1       3.377   4.532  20.229  0.00  0.00    +0.000 C 
ATOM     10  C   UNL     1       2.261   4.100  21.189  0.00  0.00    +0.000 C 
ATOM     11  C   UNL     1       0.970   4.296  20.418  0.00  0.00    +0.000 C 
ATOM     12  C   UNL     1       1.373   3.918  19.000  0.00  0.00    +0.000 C 
BRANCH   8  13
ATOM     13  C   UNL     1       2.539   5.963  18.355  0.00  0.00    +0.000 C 
ATOM     14  N   UNL     1       2.359   7.062  18.018  0.00  0.00    +0.000 NA
ENDBRANCH   8  13
ENDBRANCH   5   8
BRANCH   1  15
ATOM     15  C   UNL     1       6.842   4.861  14.437  0.00  0.00    +0.000 C 
BRANCH  15  16
ATOM     16  O   UNL     1       5.819   4.135  13.754  0.00  0.00    +0.000 OA
BRANCH  16  17
ATOM     17  C   UNL     1       6.317   3.606  12.519  0.00  0.00    +0.000 C 
BRANCH  17  18
ATOM     18  C   UNL     1       5.212   2.872  11.768  0.00  0.00    +0.000 C 
BRANCH  18  20
ATOM     19  C   UNL     1       7.113   1.635  11.122  0.00  0.00    +0.000 C 
ATOM     20  O   UNL     1       5.708   1.606  11.330  0.00  0.00    +0.000 OA
ENDBRANCH  18  20
ENDBRANCH  17  18
ENDBRANCH  16  17
ENDBRANCH  15  16
ENDBRANCH   1  15
TORSDOF 7
ENDMDL
