MODEL 1
REMARK VINA RESULT:      -8.3      0.000      0.000
REMARK  Name = 
REMARK  7 active torsions:
REMARK  status: ('A' for Active; 'I' for Inactive)
REMARK    1  A    between atoms: C_1  and  C_2
REMARK    2  A    between atoms: C_2  and  C_3
REMARK    3  A    between atoms: C_3  and  C_4
REMARK    4  A    between atoms: C_4  and  C_5
REMARK    5  A    between atoms: N_7  and  C_8
REMARK    6  A    between atoms: C_12  and  C_13
REMARK    7  A    between atoms: C_24  and  C_26
REMARK                            x       y       z     vdW  Elec       q    Type
REMARK                         _______ _______ _______ _____ _____    ______ ____
ROOT
ATOM      1  C   UNL     1       2.421   5.717  19.558  0.00  0.00    +0.000 C 
ATOM      2  C   UNL     1       2.062   7.069  20.202  0.00  0.00    +0.000 C 
ATOM      3  N   UNL     1       1.861   8.125  19.208  0.00  0.00    +0.000 N 
ATOM      4  C   UNL     1       2.604   8.126  18.024  0.00  0.00    +0.000 C 
ATOM      5  O   UNL     1       2.530   8.982  17.142  0.00  0.00    +0.000 OA
ATOM      6  C   UNL     1       3.649   7.023  17.859  0.00  0.00    +0.000 C 
ATOM      7  N   UNL     1       3.688   5.908  18.812  0.00  0.00    +0.000 N 
ATOM      8  C   UNL     1       4.791   5.030  18.876  0.00  0.00    +0.000 C 
ATOM      9  O   UNL     1       4.872   4.069  19.635  0.00  0.00    +0.000 OA
ENDROOT
BRANCH   3  10
ATOM     10  C   UNL     1       0.940   9.171  19.516  0.00  0.00    +0.000 A 
ATOM     11  C   UNL     1       1.036   9.914  20.695  0.00  0.00    +0.000 A 
ATOM     12  C   UNL     1       0.133  10.928  20.983  0.00  0.00    +0.000 A 
ATOM     13  C   UNL     1      -0.888  11.210  20.081  0.00  0.00    +0.000 A 
ATOM     14  C   UNL     1      -1.040  10.481  18.904  0.00  0.00    +0.000 A 
ATOM     15  C   UNL     1      -0.099   9.484  18.628  0.00  0.00    +0.000 A 
BRANCH  14  16
ATOM     16  C   UNL     1      -2.171  10.724  17.988  0.00  0.00    +0.000 A 
ATOM     17  C   UNL     1      -2.210  10.148  16.705  0.00  0.00    +0.000 A 
ATOM     18  C   UNL     1      -3.292  10.359  15.854  0.00  0.00    +0.000 A 
ATOM     19  C   UNL     1      -4.355  11.154  16.266  0.00  0.00    +0.000 A 
ATOM     20  C   UNL     1      -4.342  11.731  17.531  0.00  0.00    +0.000 A 
ATOM     21  C   UNL     1      -3.264  11.511  18.383  0.00  0.00    +0.000 A 
ENDBRANCH  14  16
ENDBRANCH   3  10
BRANCH   8  22
ATOM     22  C   UNL     1       6.026   5.265  17.946  0.00  0.00    +0.000 C 
ATOM     23  N   UNL     1       6.078   4.557  16.773  0.00  0.00    +0.000 N 
ATOM     24  O   UNL     1       6.932   6.049  18.207  0.00  0.00    +0.000 OA
ATOM     25  H   UNL     1       5.395   3.858  16.513  0.00  0.00    +0.000 HD
ATOM     26  H   UNL     1       6.887   4.709  16.187  0.00  0.00    +0.000 HD
ENDBRANCH   8  22
BRANCH   1  27
ATOM     27  C   UNL     1       2.371   4.582  20.601  0.00  0.00    +0.000 C 
BRANCH  27  28
ATOM     28  C   UNL     1       1.102   3.718  20.536  0.00  0.00    +0.000 C 
BRANCH  28  30
ATOM     29  C   UNL     1       1.994   2.067  18.874  0.00  0.00    +0.000 C 
ATOM     30  C   UNL     1       0.906   3.094  19.155  0.00  0.00    +0.000 C 
ENDBRANCH  28  30
ENDBRANCH  27  28
ENDBRANCH   1  27
TORSDOF 6
ENDMDL
MODEL 2
REMARK VINA RESULT:      -8.2      0.965      1.030
REMARK  Name = 
REMARK  7 active torsions:
REMARK  status: ('A' for Active; 'I' for Inactive)
REMARK    1  A    between atoms: C_1  and  C_2
REMARK    2  A    between atoms: C_2  and  C_3
REMARK    3  A    between atoms: C_3  and  C_4
REMARK    4  A    between atoms: C_4  and  C_5
REMARK    5  A    between atoms: N_7  and  C_8
REMARK    6  A    between atoms: C_12  and  C_13
REMARK    7  A    between atoms: C_24  and  C_26
REMARK                            x       y       z     vdW  Elec       q    Type
REMARK                         _______ _______ _______ _____ _____    ______ ____
ROOT
ATOM      1  C   UNL     1       2.290   6.114  19.468  0.00  0.00    +0.000 C 
ATOM      2  C   UNL     1       1.942   7.433  20.184  0.00  0.00    +0.000 C 
ATOM      3  N   UNL     1       1.689   8.528  19.244  0.00  0.00    +0.000 N 
ATOM      4  C   UNL     1       2.384   8.589  18.033  0.00  0.00    +0.000 C 
ATOM      5  O   UNL     1       2.264   9.480  17.192  0.00  0.00    +0.000 OA
ATOM      6  C   UNL     1       3.433   7.507  17.779  0.00  0.00    +0.000 C 
ATOM      7  N   UNL     1       3.524   6.353  18.680  0.00  0.00    +0.000 N 
ATOM      8  C   UNL     1       4.638   5.487  18.663  0.00  0.00    +0.000 C 
ATOM      9  O   UNL     1       4.761   4.496  19.376  0.00  0.00    +0.000 OA
ENDROOT
BRANCH   3  10
ATOM     10  C   UNL     1       0.770   9.547  19.634  0.00  0.00    +0.000 A 
ATOM     11  C   UNL     1       0.912  10.248  20.834  0.00  0.00    +0.000 A 
ATOM     12  C   UNL     1       0.010  11.237  21.202  0.00  0.00    +0.000 A 
ATOM     13  C   UNL     1      -1.056  11.537  20.359  0.00  0.00    +0.000 A 
ATOM     14  C   UNL     1      -1.253  10.850  19.163  0.00  0.00    +0.000 A 
ATOM     15  C   UNL     1      -0.313   9.878  18.807  0.00  0.00    +0.000 A 
BRANCH  14  16
ATOM     16  C   UNL     1      -2.429  11.110  18.311  0.00  0.00    +0.000 A 
ATOM     17  C   UNL     1      -2.449  10.728  16.957  0.00  0.00    +0.000 A 
ATOM     18  C   UNL     1      -3.571  10.952  16.162  0.00  0.00    +0.000 A 
ATOM     19  C   UNL     1      -4.693  11.566  16.703  0.00  0.00    +0.000 A 
ATOM     20  C   UNL     1      -4.700  11.949  18.040  0.00  0.00    +0.000 A 
ATOM     21  C   UNL     1      -3.581  11.716  18.834  0.00  0.00    +0.000 A 
ENDBRANCH  14  16
ENDBRANCH   3  10
BRANCH   8  22
ATOM     22  C   UNL     1       5.831   5.777  17.694  0.00  0.00    +0.000 C 
ATOM     23  N   UNL     1       6.923   6.426  18.211  0.00  0.00    +0.000 N 
ATOM     24  O   UNL     1       5.841   5.447  16.513  0.00  0.00    +0.000 OA
ATOM     25  H   UNL     1       6.967   6.773  19.160  0.00  0.00    +0.000 HD
ATOM     26  H   UNL     1       7.682   6.618  17.571  0.00  0.00    +0.000 HD
ENDBRANCH   8  22
BRANCH   1  27
ATOM     27  C   UNL     1       2.295   4.936  20.463  0.00  0.00    +0.000 C 
BRANCH  27  28
ATOM     28  C   UNL     1       1.007   4.098  20.458  0.00  0.00    +0.000 C 
BRANCH  28  30
ATOM     29  C   UNL     1       2.632   2.600  21.640  0.00  0.00    +0.000 C 
ATOM     30  C   UNL     1       1.210   2.734  21.116  0.00  0.00    +0.000 C 
ENDBRANCH  28  30
ENDBRANCH  27  28
ENDBRANCH   1  27
TORSDOF 6
ENDMDL
MODEL 3
REMARK VINA RESULT:      -8.0      3.008      5.724
REMARK  Name = 
REMARK  7 active torsions:
REMARK  status: ('A' for Active; 'I' for Inactive)
REMARK    1  A    between atoms: C_1  and  C_2
REMARK    2  A    between atoms: C_2  and  C_3
REMARK    3  A    between atoms: C_3  and  C_4
REMARK    4  A    between atoms: C_4  and  C_5
REMARK    5  A    between atoms: N_7  and  C_8
REMARK    6  A    between atoms: C_12  and  C_13
REMARK    7  A    between atoms: C_24  and  C_26
REMARK                            x       y       z     vdW  Elec       q    Type
REMARK                         _______ _______ _______ _____ _____    ______ ____
ROOT
ATOM      1  C   UNL     1       6.326   5.300  16.935  0.00  0.00    +0.000 C 
ATOM      2  C   UNL     1       5.095   6.015  17.524  0.00  0.00    +0.000 C 
ATOM      3  N   UNL     1       4.013   5.083  17.850  0.00  0.00    +0.000 N 
ATOM      4  C   UNL     1       3.812   3.939  17.074  0.00  0.00    +0.000 C 
ATOM      5  O   UNL     1       2.917   3.112  17.249  0.00  0.00    +0.000 OA
ATOM      6  C   UNL     1       4.727   3.751  15.864  0.00  0.00    +0.000 C 
ATOM      7  N   UNL     1       5.890   4.629  15.686  0.00  0.00    +0.000 N 
ATOM      8  C   UNL     1       6.590   4.688  14.463  0.00  0.00    +0.000 C 
ATOM      9  O   UNL     1       7.580   5.385  14.260  0.00  0.00    +0.000 OA
ENDROOT
BRANCH   3  10
ATOM     10  C   UNL     1       3.146   5.416  18.934  0.00  0.00    +0.000 A 
ATOM     11  C   UNL     1       2.707   4.455  19.848  0.00  0.00    +0.000 A 
ATOM     12  C   UNL     1       1.863   4.791  20.898  0.00  0.00    +0.000 A 
ATOM     13  C   UNL     1       1.447   6.111  21.043  0.00  0.00    +0.000 A 
ATOM     14  C   UNL     1       1.838   7.100  20.144  0.00  0.00    +0.000 A 
ATOM     15  C   UNL     1       2.710   6.736  19.113  0.00  0.00    +0.000 A 
BRANCH  14  16
ATOM     16  C   UNL     1       1.330   8.481  20.248  0.00  0.00    +0.000 A 
ATOM     17  C   UNL     1       1.315   9.342  19.136  0.00  0.00    +0.000 A 
ATOM     18  C   UNL     1       0.811  10.637  19.232  0.00  0.00    +0.000 A 
ATOM     19  C   UNL     1       0.315  11.099  20.445  0.00  0.00    +0.000 A 
ATOM     20  C   UNL     1       0.314  10.267  21.559  0.00  0.00    +0.000 A 
ATOM     21  C   UNL     1       0.811   8.971  21.457  0.00  0.00    +0.000 A 
ENDBRANCH  14  16
ENDBRANCH   3  10
BRANCH   8  22
ATOM     22  C   UNL     1       6.102   3.834  13.246  0.00  0.00    +0.000 C 
ATOM     23  N   UNL     1       7.015   3.004  12.649  0.00  0.00    +0.000 N 
ATOM     24  O   UNL     1       4.955   3.864  12.814  0.00  0.00    +0.000 OA
ATOM     25  H   UNL     1       7.989   2.963  12.916  0.00  0.00    +0.000 HD
ATOM     26  H   UNL     1       6.690   2.467  11.856  0.00  0.00    +0.000 HD
ENDBRANCH   8  22
BRANCH   1  27
ATOM     27  C   UNL     1       7.528   6.263  16.844  0.00  0.00    +0.000 C 
BRANCH  27  28
ATOM     28  C   UNL     1       7.258   7.665  17.412  0.00  0.00    +0.000 C 
BRANCH  28  30
ATOM     29  C   UNL     1       8.587   9.595  18.304  0.00  0.00    +0.000 C 
ATOM     30  C   UNL     1       8.337   8.097  18.405  0.00  0.00    +0.000 C 
ENDBRANCH  28  30
ENDBRANCH  27  28
ENDBRANCH   1  27
TORSDOF 6
ENDMDL
MODEL 4
REMARK VINA RESULT:      -8.0      0.619      1.167
REMARK  Name = 
REMARK  7 active torsions:
REMARK  status: ('A' for Active; 'I' for Inactive)
REMARK    1  A    between atoms: C_1  and  C_2
REMARK    2  A    between atoms: C_2  and  C_3
REMARK    3  A    between atoms: C_3  and  C_4
REMARK    4  A    between atoms: C_4  and  C_5
REMARK    5  A    between atoms: N_7  and  C_8
REMARK    6  A    between atoms: C_12  and  C_13
REMARK    7  A    between atoms: C_24  and  C_26
REMARK                            x       y       z     vdW  Elec       q    Type
REMARK                         _______ _______ _______ _____ _____    ______ ____
ROOT
ATOM      1  C   UNL     1       2.940   5.624  19.094  0.00  0.00    +0.000 C 
ATOM      2  C   UNL     1       2.452   6.849  19.890  0.00  0.00    +0.000 C 
ATOM      3  N   UNL     1       2.124   7.983  19.022  0.00  0.00    +0.000 N 
ATOM      4  C   UNL     1       2.842   8.195  17.842  0.00  0.00    +0.000 C 
ATOM      5  O   UNL     1       2.662   9.132  17.063  0.00  0.00    +0.000 OA
ATOM      6  C   UNL     1       3.994   7.235  17.547  0.00  0.00    +0.000 C 
ATOM      7  N   UNL     1       4.167   6.031  18.367  0.00  0.00    +0.000 N 
ATOM      8  C   UNL     1       5.357   5.274  18.325  0.00  0.00    +0.000 C 
ATOM      9  O   UNL     1       5.552   4.247  18.970  0.00  0.00    +0.000 OA
ENDROOT
BRANCH   3  10
ATOM     10  C   UNL     1       1.104   8.883  19.452  0.00  0.00    +0.000 A 
ATOM     11  C   UNL     1       1.073   9.395  20.752  0.00  0.00    +0.000 A 
ATOM     12  C   UNL     1       0.074  10.270  21.158  0.00  0.00    +0.000 A 
ATOM     13  C   UNL     1      -0.915  10.645  20.254  0.00  0.00    +0.000 A 
ATOM     14  C   UNL     1      -0.941  10.142  18.954  0.00  0.00    +0.000 A 
ATOM     15  C   UNL     1       0.094   9.284  18.567  0.00  0.00    +0.000 A 
BRANCH  14  16
ATOM     16  C   UNL     1      -2.035  10.473  18.022  0.00  0.00    +0.000 A 
ATOM     17  C   UNL     1      -3.065  11.358  18.388  0.00  0.00    +0.000 A 
ATOM     18  C   UNL     1      -4.082  11.688  17.495  0.00  0.00    +0.000 A 
ATOM     19  C   UNL     1      -4.094  11.135  16.221  0.00  0.00    +0.000 A 
ATOM     20  C   UNL     1      -3.084  10.260  15.833  0.00  0.00    +0.000 A 
ATOM     21  C   UNL     1      -2.065   9.940  16.724  0.00  0.00    +0.000 A 
ENDBRANCH  14  16
ENDBRANCH   3  10
BRANCH   8  22
ATOM     22  C   UNL     1       6.544   5.741  17.420  0.00  0.00    +0.000 C 
ATOM     23  N   UNL     1       6.617   5.221  16.154  0.00  0.00    +0.000 N 
ATOM     24  O   UNL     1       7.394   6.548  17.781  0.00  0.00    +0.000 OA
ATOM     25  H   UNL     1       5.983   4.515  15.804  0.00  0.00    +0.000 HD
ATOM     26  H   UNL     1       7.395   5.521  15.584  0.00  0.00    +0.000 HD
ENDBRANCH   8  22
BRANCH   1  27
ATOM     27  C   UNL     1       3.028   4.381  20.003  0.00  0.00    +0.000 C 
BRANCH  27  28
ATOM     28  C   UNL     1       1.954   4.321  21.100  0.00  0.00    +0.000 C 
BRANCH  28  30
ATOM     29  C   UNL     1       1.051   2.572  19.549  0.00  0.00    +0.000 C 
ATOM     30  C   UNL     1       1.092   3.065  20.988  0.00  0.00    +0.000 C 
ENDBRANCH  28  30
ENDBRANCH  27  28
ENDBRANCH   1  27
TORSDOF 6
ENDMDL
MODEL 5
REMARK VINA RESULT:      -7.6      0.868      1.078
REMARK  Name = 
REMARK  7 active torsions:
REMARK  status: ('A' for Active; 'I' for Inactive)
REMARK    1  A    between atoms: C_1  and  C_2
REMARK    2  A    between atoms: C_2  and  C_3
REMARK    3  A    between atoms: C_3  and  C_4
REMARK    4  A    between atoms: C_4  and  C_5
REMARK    5  A    between atoms: N_7  and  C_8
REMARK    6  A    between atoms: C_12  and  C_13
REMARK    7  A    between atoms: C_24  and  C_26
REMARK                            x       y       z     vdW  Elec       q    Type
REMARK                         _______ _______ _______ _____ _____    ______ ____
ROOT
ATOM      1  C   UNL     1       3.214   5.533  18.804  0.00  0.00    +0.000 C 
ATOM      2  C   UNL     1       2.679   6.668  19.698  0.00  0.00    +0.000 C 
ATOM      3  N   UNL     1       2.316   7.860  18.929  0.00  0.00    +0.000 N 
ATOM      4  C   UNL     1       3.033   8.199  17.778  0.00  0.00    +0.000 C 
ATOM      5  O   UNL     1       2.826   9.192  17.081  0.00  0.00    +0.000 OA
ATOM      6  C   UNL     1       4.220   7.307  17.412  0.00  0.00    +0.000 C 
ATOM      7  N   UNL     1       4.430   6.043  18.126  0.00  0.00    +0.000 N 
ATOM      8  C   UNL     1       5.646   5.334  18.030  0.00  0.00    +0.000 C 
ATOM      9  O   UNL     1       5.873   4.263  18.586  0.00  0.00    +0.000 OA
ENDROOT
BRANCH   3  10
ATOM     10  C   UNL     1       1.263   8.685  19.425  0.00  0.00    +0.000 A 
ATOM     11  C   UNL     1       1.183   9.046  20.773  0.00  0.00    +0.000 A 
ATOM     12  C   UNL     1       0.152   9.847  21.243  0.00  0.00    +0.000 A 
ATOM     13  C   UNL     1      -0.820  10.301  20.357  0.00  0.00    +0.000 A 
ATOM     14  C   UNL     1      -0.797   9.948  19.010  0.00  0.00    +0.000 A 
ATOM     15  C   UNL     1       0.269   9.162  18.560  0.00  0.00    +0.000 A 
BRANCH  14  16
ATOM     16  C   UNL     1      -1.872  10.359  18.087  0.00  0.00    +0.000 A 
ATOM     17  C   UNL     1      -1.942   9.856  16.775  0.00  0.00    +0.000 A 
ATOM     18  C   UNL     1      -2.974  10.227  15.916  0.00  0.00    +0.000 A 
ATOM     19  C   UNL     1      -3.954  11.111  16.349  0.00  0.00    +0.000 A 
ATOM     20  C   UNL     1      -3.910  11.619  17.643  0.00  0.00    +0.000 A 
ATOM     21  C   UNL     1      -2.883  11.240  18.502  0.00  0.00    +0.000 A 
ENDBRANCH  14  16
ENDBRANCH   3  10
BRANCH   8  22
ATOM     22  C   UNL     1       6.821   5.918  17.180  0.00  0.00    +0.000 C 
ATOM     23  N   UNL     1       7.025   5.387  15.933  0.00  0.00    +0.000 N 
ATOM     24  O   UNL     1       7.552   6.824  17.566  0.00  0.00    +0.000 OA
ATOM     25  H   UNL     1       6.497   4.606  15.566  0.00  0.00    +0.000 HD
ATOM     26  H   UNL     1       7.796   5.765  15.398  0.00  0.00    +0.000 HD
ENDBRANCH   8  22
BRANCH   1  27
ATOM     27  C   UNL     1       3.340   4.220  19.603  0.00  0.00    +0.000 C 
BRANCH  27  28
ATOM     28  C   UNL     1       2.655   3.012  18.945  0.00  0.00    +0.000 C 
BRANCH  28  30
ATOM     29  C   UNL     1       1.168   3.195  20.956  0.00  0.00    +0.000 C 
ATOM     30  C   UNL     1       1.245   2.787  19.492  0.00  0.00    +0.000 C 
ENDBRANCH  28  30
ENDBRANCH  27  28
ENDBRANCH   1  27
TORSDOF 6
ENDMDL
MODEL 6
REMARK VINA RESULT:      -7.6      2.006      3.590
REMARK  Name = 
REMARK  7 active torsions:
REMARK  status: ('A' for Active; 'I' for Inactive)
REMARK    1  A    between atoms: C_1  and  C_2
REMARK    2  A    between atoms: C_2  and  C_3
REMARK    3  A    between atoms: C_3  and  C_4
REMARK    4  A    between atoms: C_4  and  C_5
REMARK    5  A    between atoms: N_7  and  C_8
REMARK    6  A    between atoms: C_12  and  C_13
REMARK    7  A    between atoms: C_24  and  C_26
REMARK                            x       y       z     vdW  Elec       q    Type
REMARK                         _______ _______ _______ _____ _____    ______ ____
ROOT
ATOM      1  C   UNL     1       3.029   6.883  18.887  0.00  0.00    +0.000 C 
ATOM      2  C   UNL     1       1.940   7.835  18.358  0.00  0.00    +0.000 C 
ATOM      3  N   UNL     1       1.319   8.621  19.428  0.00  0.00    +0.000 N 
ATOM      4  C   UNL     1       1.164   8.072  20.703  0.00  0.00    +0.000 C 
ATOM      5  O   UNL     1       0.631   8.638  21.658  0.00  0.00    +0.000 OA
ATOM      6  C   UNL     1       1.616   6.625  20.896  0.00  0.00    +0.000 C 
ATOM      7  N   UNL     1       2.375   5.950  19.837  0.00  0.00    +0.000 N 
ATOM      8  C   UNL     1       2.565   4.552  19.841  0.00  0.00    +0.000 C 
ATOM      9  O   UNL     1       3.207   3.935  18.996  0.00  0.00    +0.000 OA
ENDROOT
BRANCH   3  10
ATOM     10  C   UNL     1       0.829   9.922  19.106  0.00  0.00    +0.000 A 
ATOM     11  C   UNL     1       1.640  11.056  19.190  0.00  0.00    +0.000 A 
ATOM     12  C   UNL     1       1.151  12.316  18.875  0.00  0.00    +0.000 A 
ATOM     13  C   UNL     1      -0.172  12.453  18.467  0.00  0.00    +0.000 A 
ATOM     14  C   UNL     1      -1.027  11.356  18.391  0.00  0.00    +0.000 A 
ATOM     15  C   UNL     1      -0.498  10.096  18.689  0.00  0.00    +0.000 A 
BRANCH  14  16
ATOM     16  C   UNL     1      -2.451  11.511  18.040  0.00  0.00    +0.000 A 
ATOM     17  C   UNL     1      -2.928  11.191  16.756  0.00  0.00    +0.000 A 
ATOM     18  C   UNL     1      -4.278  11.314  16.437  0.00  0.00    +0.000 A 
ATOM     19  C   UNL     1      -5.178  11.766  17.393  0.00  0.00    +0.000 A 
ATOM     20  C   UNL     1      -4.733  12.086  18.672  0.00  0.00    +0.000 A 
ATOM     21  C   UNL     1      -3.385  11.952  18.990  0.00  0.00    +0.000 A 
ENDBRANCH  14  16
ENDBRANCH   3  10
BRANCH   8  22
ATOM     22  C   UNL     1       1.923   3.684  20.972  0.00  0.00    +0.000 C 
ATOM     23  N   UNL     1       0.710   3.101  20.711  0.00  0.00    +0.000 N 
ATOM     24  O   UNL     1       2.451   3.493  22.062  0.00  0.00    +0.000 OA
ATOM     25  H   UNL     1       0.192   3.253  19.856  0.00  0.00    +0.000 HD
ATOM     26  H   UNL     1       0.300   2.552  21.454  0.00  0.00    +0.000 HD
ENDBRANCH   8  22
BRANCH   1  27
ATOM     27  C   UNL     1       3.832   6.268  17.723  0.00  0.00    +0.000 C 
BRANCH  27  28
ATOM     28  C   UNL     1       5.343   6.166  17.980  0.00  0.00    +0.000 C 
BRANCH  28  30
ATOM     29  C   UNL     1       7.498   7.371  17.546  0.00  0.00    +0.000 C 
ATOM     30  C   UNL     1       6.151   6.970  16.962  0.00  0.00    +0.000 C 
ENDBRANCH  28  30
ENDBRANCH  27  28
ENDBRANCH   1  27
TORSDOF 6
ENDMDL
MODEL 7
REMARK VINA RESULT:      -7.6      2.948      8.493
REMARK  Name = 
REMARK  7 active torsions:
REMARK  status: ('A' for Active; 'I' for Inactive)
REMARK    1  A    between atoms: C_1  and  C_2
REMARK    2  A    between atoms: C_2  and  C_3
REMARK    3  A    between atoms: C_3  and  C_4
REMARK    4  A    between atoms: C_4  and  C_5
REMARK    5  A    between atoms: N_7  and  C_8
REMARK    6  A    between atoms: C_12  and  C_13
REMARK    7  A    between atoms: C_24  and  C_26
REMARK                            x       y       z     vdW  Elec       q    Type
REMARK                         _______ _______ _______ _____ _____    ______ ____
ROOT
ATOM      1  C   UNL     1      -0.913  10.599  19.263  0.00  0.00    +0.000 C 
ATOM      2  C   UNL     1       0.448  10.108  18.733  0.00  0.00    +0.000 C 
ATOM      3  N   UNL     1       1.118   9.204  19.671  0.00  0.00    +0.000 N 
ATOM      4  C   UNL     1       0.961   9.378  21.049  0.00  0.00    +0.000 C 
ATOM      5  O   UNL     1       1.503   8.691  21.915  0.00  0.00    +0.000 OA
ATOM      6  C   UNL     1       0.119  10.568  21.507  0.00  0.00    +0.000 C 
ATOM      7  N   UNL     1      -0.655  11.336  20.524  0.00  0.00    +0.000 N 
ATOM      8  C   UNL     1      -1.210  12.593  20.840  0.00  0.00    +0.000 C 
ATOM      9  O   UNL     1      -1.883  13.271  20.069  0.00  0.00    +0.000 OA
ENDROOT
BRANCH   3  10
ATOM     10  C   UNL     1       1.973   8.195  19.135  0.00  0.00    +0.000 A 
ATOM     11  C   UNL     1       2.676   8.383  17.942  0.00  0.00    +0.000 A 
ATOM     12  C   UNL     1       3.505   7.394  17.431  0.00  0.00    +0.000 A 
ATOM     13  C   UNL     1       3.639   6.192  18.119  0.00  0.00    +0.000 A 
ATOM     14  C   UNL     1       2.939   5.948  19.299  0.00  0.00    +0.000 A 
ATOM     15  C   UNL     1       2.134   6.974  19.803  0.00  0.00    +0.000 A 
BRANCH  14  16
ATOM     16  C   UNL     1       3.015   4.643  19.984  0.00  0.00    +0.000 A 
ATOM     17  C   UNL     1       2.159   4.328  21.055  0.00  0.00    +0.000 A 
ATOM     18  C   UNL     1       2.216   3.086  21.681  0.00  0.00    +0.000 A 
ATOM     19  C   UNL     1       3.134   2.135  21.254  0.00  0.00    +0.000 A 
ATOM     20  C   UNL     1       3.989   2.420  20.194  0.00  0.00    +0.000 A 
ATOM     21  C   UNL     1       3.923   3.659  19.564  0.00  0.00    +0.000 A 
ENDBRANCH  14  16
ENDBRANCH   3  10
BRANCH   8  22
ATOM     22  C   UNL     1      -0.969  13.215  22.255  0.00  0.00    +0.000 C 
ATOM     23  N   UNL     1      -1.993  13.139  23.163  0.00  0.00    +0.000 N 
ATOM     24  O   UNL     1       0.082  13.752  22.589  0.00  0.00    +0.000 OA
ATOM     25  H   UNL     1      -2.904  12.757  22.945  0.00  0.00    +0.000 HD
ATOM     26  H   UNL     1      -1.828  13.555  24.069  0.00  0.00    +0.000 HD
ENDBRANCH   8  22
BRANCH   1  27
ATOM     27  C   UNL     1      -1.699  11.332  18.157  0.00  0.00    +0.000 C 
BRANCH  27  28
ATOM     28  C   UNL     1      -2.725  10.455  17.422  0.00  0.00    +0.000 C 
BRANCH  28  30
ATOM     29  C   UNL     1      -2.914  10.103  14.948  0.00  0.00    +0.000 C 
ATOM     30  C   UNL     1      -3.159  11.073  16.094  0.00  0.00    +0.000 C 
ENDBRANCH  28  30
ENDBRANCH  27  28
ENDBRANCH   1  27
TORSDOF 6
ENDMDL
MODEL 8
REMARK VINA RESULT:      -7.6      3.085      8.412
REMARK  Name = 
REMARK  7 active torsions:
REMARK  status: ('A' for Active; 'I' for Inactive)
REMARK    1  A    between atoms: C_1  and  C_2
REMARK    2  A    between atoms: C_2  and  C_3
REMARK    3  A    between atoms: C_3  and  C_4
REMARK    4  A    between atoms: C_4  and  C_5
REMARK    5  A    between atoms: N_7  and  C_8
REMARK    6  A    between atoms: C_12  and  C_13
REMARK    7  A    between atoms: C_24  and  C_26
REMARK                            x       y       z     vdW  Elec       q    Type
REMARK                         _______ _______ _______ _____ _____    ______ ____
ROOT
ATOM      1  C   UNL     1      -1.059  10.900  19.371  0.00  0.00    +0.000 C 
ATOM      2  C   UNL     1       0.284  10.402  18.807  0.00  0.00    +0.000 C 
ATOM      3  N   UNL     1       0.970   9.488  19.725  0.00  0.00    +0.000 N 
ATOM      4  C   UNL     1       0.846   9.657  21.107  0.00  0.00    +0.000 C 
ATOM      5  O   UNL     1       1.403   8.963  21.957  0.00  0.00    +0.000 OA
ATOM      6  C   UNL     1       0.024  10.852  21.590  0.00  0.00    +0.000 C 
ATOM      7  N   UNL     1      -0.767  11.629  20.629  0.00  0.00    +0.000 N 
ATOM      8  C   UNL     1      -1.306  12.889  20.964  0.00  0.00    +0.000 C 
ATOM      9  O   UNL     1      -1.991  13.576  20.211  0.00  0.00    +0.000 OA
ENDROOT
BRANCH   3  10
ATOM     10  C   UNL     1       1.805   8.476  19.164  0.00  0.00    +0.000 A 
ATOM     11  C   UNL     1       2.506   8.676  17.972  0.00  0.00    +0.000 A 
ATOM     12  C   UNL     1       3.314   7.683  17.437  0.00  0.00    +0.000 A 
ATOM     13  C   UNL     1       3.430   6.465  18.100  0.00  0.00    +0.000 A 
ATOM     14  C   UNL     1       2.732   6.209  19.279  0.00  0.00    +0.000 A 
ATOM     15  C   UNL     1       1.947   7.239  19.808  0.00  0.00    +0.000 A 
BRANCH  14  16
ATOM     16  C   UNL     1       2.788   4.890  19.937  0.00  0.00    +0.000 A 
ATOM     17  C   UNL     1       3.743   3.927  19.564  0.00  0.00    +0.000 A 
ATOM     18  C   UNL     1       3.810   2.692  20.206  0.00  0.00    +0.000 A 
ATOM     19  C   UNL     1       2.919   2.394  21.229  0.00  0.00    +0.000 A 
ATOM     20  C   UNL     1       1.968   3.331  21.620  0.00  0.00    +0.000 A 
ATOM     21  C   UNL     1       1.911   4.566  20.983  0.00  0.00    +0.000 A 
ENDBRANCH  14  16
ENDBRANCH   3  10
BRANCH   8  22
ATOM     22  C   UNL     1      -1.027  13.503  22.375  0.00  0.00    +0.000 C 
ATOM     23  N   UNL     1      -0.017  14.424  22.476  0.00  0.00    +0.000 N 
ATOM     24  O   UNL     1      -1.667  13.211  23.379  0.00  0.00    +0.000 OA
ATOM     25  H   UNL     1       0.586  14.677  21.705  0.00  0.00    +0.000 HD
ATOM     26  H   UNL     1       0.161  14.803  23.396  0.00  0.00    +0.000 HD
ENDBRANCH   8  22
BRANCH   1  27
ATOM     27  C   UNL     1      -1.866  11.644  18.286  0.00  0.00    +0.000 C 
BRANCH  27  28
ATOM     28  C   UNL     1      -3.012  10.822  17.675  0.00  0.00    +0.000 C 
BRANCH  28  30
ATOM     29  C   UNL     1      -2.985  10.302  15.223  0.00  0.00    +0.000 C 
ATOM     30  C   UNL     1      -2.512   9.858  16.600  0.00  0.00    +0.000 C 
ENDBRANCH  28  30
ENDBRANCH  27  28
ENDBRANCH   1  27
TORSDOF 6
ENDMDL
MODEL 9
REMARK VINA RESULT:      -7.5      2.474      2.847
REMARK  Name = 
REMARK  7 active torsions:
REMARK  status: ('A' for Active; 'I' for Inactive)
REMARK    1  A    between atoms: C_1  and  C_2
REMARK    2  A    between atoms: C_2  and  C_3
REMARK    3  A    between atoms: C_3  and  C_4
REMARK    4  A    between atoms: C_4  and  C_5
REMARK    5  A    between atoms: N_7  and  C_8
REMARK    6  A    between atoms: C_12  and  C_13
REMARK    7  A    between atoms: C_24  and  C_26
REMARK                            x       y       z     vdW  Elec       q    Type
REMARK                         _______ _______ _______ _____ _____    ______ ____
ROOT
ATOM      1  C   UNL     1       2.938   5.462  18.671  0.00  0.00    +0.000 C 
ATOM      2  C   UNL     1       2.697   6.515  19.769  0.00  0.00    +0.000 C 
ATOM      3  N   UNL     1       2.197   7.781  19.227  0.00  0.00    +0.000 N 
ATOM      4  C   UNL     1       2.607   8.215  17.963  0.00  0.00    +0.000 C 
ATOM      5  O   UNL     1       2.267   9.273  17.434  0.00  0.00    +0.000 OA
ATOM      6  C   UNL     1       3.623   7.344  17.226  0.00  0.00    +0.000 C 
ATOM      7  N   UNL     1       3.959   6.014  17.747  0.00  0.00    +0.000 N 
ATOM      8  C   UNL     1       5.080   5.298  17.278  0.00  0.00    +0.000 C 
ATOM      9  O   UNL     1       5.399   4.176  17.659  0.00  0.00    +0.000 OA
ENDROOT
BRANCH   3  10
ATOM     10  C   UNL     1       1.340   8.572  20.050  0.00  0.00    +0.000 A 
ATOM     11  C   UNL     1       0.711   8.043  21.180  0.00  0.00    +0.000 A 
ATOM     12  C   UNL     1      -0.120   8.822  21.972  0.00  0.00    +0.000 A 
ATOM     13  C   UNL     1      -0.331  10.156  21.636  0.00  0.00    +0.000 A 
ATOM     14  C   UNL     1       0.254  10.722  20.506  0.00  0.00    +0.000 A 
ATOM     15  C   UNL     1       1.108   9.919  19.743  0.00  0.00    +0.000 A 
BRANCH  14  16
ATOM     16  C   UNL     1      -0.035  12.111  20.102  0.00  0.00    +0.000 A 
ATOM     17  C   UNL     1      -0.983  12.890  20.790  0.00  0.00    +0.000 A 
ATOM     18  C   UNL     1      -1.235  14.210  20.422  0.00  0.00    +0.000 A 
ATOM     19  C   UNL     1      -0.548  14.775  19.355  0.00  0.00    +0.000 A 
ATOM     20  C   UNL     1       0.398  14.028  18.661  0.00  0.00    +0.000 A 
ATOM     21  C   UNL     1       0.653  12.713  19.037  0.00  0.00    +0.000 A 
ENDBRANCH  14  16
ENDBRANCH   3  10
BRANCH   8  22
ATOM     22  C   UNL     1       6.019   5.941  16.205  0.00  0.00    +0.000 C 
ATOM     23  N   UNL     1       7.270   6.327  16.609  0.00  0.00    +0.000 N 
ATOM     24  O   UNL     1       5.697   6.105  15.033  0.00  0.00    +0.000 OA
ATOM     25  H   UNL     1       7.589   6.269  17.568  0.00  0.00    +0.000 HD
ATOM     26  H   UNL     1       7.863   6.752  15.910  0.00  0.00    +0.000 HD
ENDBRANCH   8  22
BRANCH   1  27
ATOM     27  C   UNL     1       3.213   4.077  19.292  0.00  0.00    +0.000 C 
BRANCH  27  28
ATOM     28  C   UNL     1       2.052   3.080  19.153  0.00  0.00    +0.000 C 
BRANCH  28  30
ATOM     29  C   UNL     1       1.387   2.786  21.552  0.00  0.00    +0.000 C 
ATOM     30  C   UNL     1       0.961   3.325  20.194  0.00  0.00    +0.000 C 
ENDBRANCH  28  30
ENDBRANCH  27  28
ENDBRANCH   1  27
TORSDOF 6
ENDMDL
