MODEL 1
REMARK VINA RESULT:      -7.9      0.000      0.000
REMARK  Name = 
REMARK  9 active torsions:
REMARK  status: ('A' for Active; 'I' for Inactive)
REMARK    1  A    between atoms: C_2  and  C_3
REMARK    2  A    between atoms: C_3  and  O_4
REMARK    3  A    between atoms: O_4  and  C_5
REMARK    4  A    between atoms: C_5  and  C_7
REMARK    5  A    between atoms: C_7  and  C_8
REMARK    6  A    between atoms: C_8  and  C_9
REMARK    7  A    between atoms: C_11  and  O_12
REMARK    8  A    between atoms: N_20  and  C_21
REMARK    9  A    between atoms: C_21  and  C_22
REMARK                            x       y       z     vdW  Elec       q    Type
REMARK                         _______ _______ _______ _____ _____    ______ ____
ROOT
ATOM      1  C   UNL     1       1.661   3.988  20.507  0.00  0.00    +0.000 C 
ATOM      2  O   UNL     1       1.475   3.048  21.273  0.00  0.00    +0.000 OA
ENDROOT
BRANCH   1   3
ATOM      3  O   UNL     1       1.237   4.028  19.220  0.00  0.00    +0.000 OA
BRANCH   3   4
ATOM      4  C   UNL     1       1.354   2.791  18.515  0.00  0.00    +0.000 C 
BRANCH   4   6
ATOM      5  O   UNL     1       3.425   1.552  18.378  0.00  0.00    +0.000 OA
ATOM      6  C   UNL     1       2.787   2.543  18.036  0.00  0.00    +0.000 C 
ATOM      7  N   UNL     1       3.274   3.497  17.175  0.00  0.00    +0.000 N 
ATOM      8  H   UNL     1       2.620   4.172  16.785  0.00  0.00    +0.000 HD
BRANCH   7   9
ATOM      9  C   UNL     1       4.597   3.427  16.596  0.00  0.00    +0.000 C 
BRANCH   9  10
ATOM     10  C   UNL     1       5.391   4.660  16.954  0.00  0.00    +0.000 A 
ATOM     11  C   UNL     1       4.880   5.937  16.672  0.00  0.00    +0.000 A 
ATOM     12  C   UNL     1       5.624   7.079  16.971  0.00  0.00    +0.000 A 
ATOM     13  C   UNL     1       6.883   6.945  17.544  0.00  0.00    +0.000 A 
ATOM     14  F   UNL     1       7.601   8.040  17.826  0.00  0.00    +0.000 F 
ATOM     15  C   UNL     1       7.411   5.690  17.825  0.00  0.00    +0.000 A 
ATOM     16  C   UNL     1       6.668   4.546  17.528  0.00  0.00    +0.000 A 
ENDBRANCH   9  10
ENDBRANCH   7   9
ENDBRANCH   4   6
ENDBRANCH   3   4
ENDBRANCH   1   3
BRANCH   1  17
ATOM     17  C   UNL     1       2.367   5.271  20.873  0.00  0.00    +0.000 C 
BRANCH  17  18
ATOM     18  C   UNL     1       2.559   6.158  19.645  0.00  0.00    +0.000 C 
BRANCH  18  19
ATOM     19  C   UNL     1       1.984   7.544  19.799  0.00  0.00    +0.000 A 
ATOM     20  N   UNL     1       1.991   8.359  18.728  0.00  0.00    +0.000 NA
ATOM     21  C   UNL     1       1.385   9.536  18.900  0.00  0.00    +0.000 A 
ATOM     22  C   UNL     1       0.755   9.952  20.060  0.00  0.00    +0.000 A 
ATOM     23  C   UNL     1       0.058  11.172  20.204  0.00  0.00    +0.000 A 
ATOM     24  C   UNL     1      -0.574  11.475  21.405  0.00  0.00    +0.000 A 
ATOM     25  C   UNL     1      -0.484  10.583  22.467  0.00  0.00    +0.000 A 
ATOM     26  C   UNL     1       0.226   9.386  22.316  0.00  0.00    +0.000 A 
ATOM     27  C   UNL     1       0.835   9.041  21.116  0.00  0.00    +0.000 A 
ATOM     28  N   UNL     1       1.451   7.855  20.994  0.00  0.00    +0.000 NA
BRANCH  21  29
ATOM     29  O   UNL     1       1.421  10.327  17.793  0.00  0.00    +0.000 OA
ATOM     30  H   UNL     1       0.637  10.895  17.920  0.00  0.00    +0.000 HD
ENDBRANCH  21  29
ENDBRANCH  18  19
ENDBRANCH  17  18
ENDBRANCH   1  17
TORSDOF 9
ENDMDL
MODEL 2
REMARK VINA RESULT:      -7.7      5.662      8.274
REMARK  Name = 
REMARK  9 active torsions:
REMARK  status: ('A' for Active; 'I' for Inactive)
REMARK    1  A    between atoms: C_2  and  C_3
REMARK    2  A    between atoms: C_3  and  O_4
REMARK    3  A    between atoms: O_4  and  C_5
REMARK    4  A    between atoms: C_5  and  C_7
REMARK    5  A    between atoms: C_7  and  C_8
REMARK    6  A    between atoms: C_8  and  C_9
REMARK    7  A    between atoms: C_11  and  O_12
REMARK    8  A    between atoms: N_20  and  C_21
REMARK    9  A    between atoms: C_21  and  C_22
REMARK                            x       y       z     vdW  Elec       q    Type
REMARK                         _______ _______ _______ _____ _____    ______ ____
ROOT
ATOM      1  C   UNL     1       7.238   7.592  17.221  0.00  0.00    +0.000 C 
ATOM      2  O   UNL     1       6.100   7.455  16.784  0.00  0.00    +0.000 OA
ENDROOT
BRANCH   1   3
ATOM      3  O   UNL     1       8.067   6.569  17.545  0.00  0.00    +0.000 OA
BRANCH   3   4
ATOM      4  C   UNL     1       7.415   5.312  17.735  0.00  0.00    +0.000 C 
BRANCH   4   6
ATOM      5  O   UNL     1       6.903   5.288  20.097  0.00  0.00    +0.000 OA
ATOM      6  C   UNL     1       6.479   5.332  18.946  0.00  0.00    +0.000 C 
ATOM      7  N   UNL     1       5.144   5.435  18.634  0.00  0.00    +0.000 N 
ATOM      8  H   UNL     1       4.891   5.668  17.677  0.00  0.00    +0.000 HD
BRANCH   7   9
ATOM      9  C   UNL     1       4.107   5.492  19.639  0.00  0.00    +0.000 C 
BRANCH   9  10
ATOM     10  C   UNL     1       3.017   4.498  19.325  0.00  0.00    +0.000 A 
ATOM     11  C   UNL     1       1.949   4.312  20.218  0.00  0.00    +0.000 A 
ATOM     12  C   UNL     1       0.956   3.370  19.947  0.00  0.00    +0.000 A 
ATOM     13  C   UNL     1       1.033   2.608  18.788  0.00  0.00    +0.000 A 
ATOM     14  F   UNL     1       0.082   1.699  18.530  0.00  0.00    +0.000 F 
ATOM     15  C   UNL     1       2.084   2.771  17.893  0.00  0.00    +0.000 A 
ATOM     16  C   UNL     1       3.079   3.713  18.161  0.00  0.00    +0.000 A 
ENDBRANCH   9  10
ENDBRANCH   7   9
ENDBRANCH   4   6
ENDBRANCH   3   4
ENDBRANCH   1   3
BRANCH   1  17
ATOM     17  C   UNL     1       7.921   8.919  17.446  0.00  0.00    +0.000 C 
BRANCH  17  18
ATOM     18  C   UNL     1       8.663   8.932  18.781  0.00  0.00    +0.000 C 
BRANCH  18  19
ATOM     19  C   UNL     1       9.279  10.266  19.123  0.00  0.00    +0.000 A 
ATOM     20  N   UNL     1       9.285  10.652  20.412  0.00  0.00    +0.000 NA
ATOM     21  C   UNL     1       9.924  11.796  20.664  0.00  0.00    +0.000 A 
ATOM     22  C   UNL     1      10.577  12.574  19.724  0.00  0.00    +0.000 A 
ATOM     23  C   UNL     1      11.309  13.745  20.017  0.00  0.00    +0.000 A 
ATOM     24  C   UNL     1      11.961  14.432  18.999  0.00  0.00    +0.000 A 
ATOM     25  C   UNL     1      11.856  13.973  17.691  0.00  0.00    +0.000 A 
ATOM     26  C   UNL     1      11.111  12.822  17.412  0.00  0.00    +0.000 A 
ATOM     27  C   UNL     1      10.481  12.095  18.415  0.00  0.00    +0.000 A 
ATOM     28  N   UNL     1       9.831  10.961  18.113  0.00  0.00    +0.000 NA
BRANCH  21  29
ATOM     29  O   UNL     1       9.901  12.148  21.979  0.00  0.00    +0.000 OA
ATOM     30  H   UNL     1      10.802  11.912  22.272  0.00  0.00    +0.000 HD
ENDBRANCH  21  29
ENDBRANCH  18  19
ENDBRANCH  17  18
ENDBRANCH   1  17
TORSDOF 9
ENDMDL
MODEL 3
REMARK VINA RESULT:      -7.7      1.204      1.722
REMARK  Name = 
REMARK  9 active torsions:
REMARK  status: ('A' for Active; 'I' for Inactive)
REMARK    1  A    between atoms: C_2  and  C_3
REMARK    2  A    between atoms: C_3  and  O_4
REMARK    3  A    between atoms: O_4  and  C_5
REMARK    4  A    between atoms: C_5  and  C_7
REMARK    5  A    between atoms: C_7  and  C_8
REMARK    6  A    between atoms: C_8  and  C_9
REMARK    7  A    between atoms: C_11  and  O_12
REMARK    8  A    between atoms: N_20  and  C_21
REMARK    9  A    between atoms: C_21  and  C_22
REMARK                            x       y       z     vdW  Elec       q    Type
REMARK                         _______ _______ _______ _____ _____    ______ ____
ROOT
ATOM      1  C   UNL     1       2.144   3.007  20.284  0.00  0.00    +0.000 C 
ATOM      2  O   UNL     1       2.723   2.485  21.231  0.00  0.00    +0.000 OA
ENDROOT
BRANCH   1   3
ATOM      3  O   UNL     1       2.006   2.441  19.059  0.00  0.00    +0.000 OA
BRANCH   3   4
ATOM      4  C   UNL     1       3.237   2.094  18.422  0.00  0.00    +0.000 C 
BRANCH   4   6
ATOM      5  O   UNL     1       3.012   4.163  17.193  0.00  0.00    +0.000 OA
ATOM      6  C   UNL     1       3.703   3.183  17.453  0.00  0.00    +0.000 C 
ATOM      7  N   UNL     1       4.960   2.983  16.933  0.00  0.00    +0.000 N 
ATOM      8  H   UNL     1       5.543   2.261  17.348  0.00  0.00    +0.000 HD
BRANCH   7   9
ATOM      9  C   UNL     1       5.585   3.911  16.018  0.00  0.00    +0.000 C 
BRANCH   9  10
ATOM     10  C   UNL     1       6.380   4.943  16.780  0.00  0.00    +0.000 A 
ATOM     11  C   UNL     1       7.329   4.542  17.734  0.00  0.00    +0.000 A 
ATOM     12  C   UNL     1       8.043   5.493  18.466  0.00  0.00    +0.000 A 
ATOM     13  C   UNL     1       7.803   6.844  18.249  0.00  0.00    +0.000 A 
ATOM     14  F   UNL     1       8.484   7.757  18.954  0.00  0.00    +0.000 F 
ATOM     15  C   UNL     1       6.864   7.263  17.314  0.00  0.00    +0.000 A 
ATOM     16  C   UNL     1       6.149   6.315  16.581  0.00  0.00    +0.000 A 
ENDBRANCH   9  10
ENDBRANCH   7   9
ENDBRANCH   4   6
ENDBRANCH   3   4
ENDBRANCH   1   3
BRANCH   1  17
ATOM     17  C   UNL     1       1.461   4.352  20.326  0.00  0.00    +0.000 C 
BRANCH  17  18
ATOM     18  C   UNL     1       2.435   5.446  20.759  0.00  0.00    +0.000 C 
BRANCH  18  19
ATOM     19  C   UNL     1       2.094   6.814  20.222  0.00  0.00    +0.000 A 
ATOM     20  N   UNL     1       2.482   7.121  18.971  0.00  0.00    +0.000 NA
ATOM     21  C   UNL     1       2.071   8.308  18.519  0.00  0.00    +0.000 A 
ATOM     22  C   UNL     1       1.281   9.204  19.221  0.00  0.00    +0.000 A 
ATOM     23  C   UNL     1       0.796  10.425  18.703  0.00  0.00    +0.000 A 
ATOM     24  C   UNL     1      -0.023  11.234  19.482  0.00  0.00    +0.000 A 
ATOM     25  C   UNL     1      -0.330  10.845  20.781  0.00  0.00    +0.000 A 
ATOM     26  C   UNL     1       0.174   9.641  21.288  0.00  0.00    +0.000 A 
ATOM     27  C   UNL     1       0.964   8.795  20.518  0.00  0.00    +0.000 A 
ATOM     28  N   UNL     1       1.372   7.620  21.020  0.00  0.00    +0.000 NA
BRANCH  21  29
ATOM     29  O   UNL     1       2.490   8.578  17.253  0.00  0.00    +0.000 OA
ATOM     30  H   UNL     1       3.372   8.969  17.406  0.00  0.00    +0.000 HD
ENDBRANCH  21  29
ENDBRANCH  18  19
ENDBRANCH  17  18
ENDBRANCH   1  17
TORSDOF 9
ENDMDL
MODEL 4
REMARK VINA RESULT:      -7.7      2.923      4.989
REMARK  Name = 
REMARK  9 active torsions:
REMARK  status: ('A' for Active; 'I' for Inactive)
REMARK    1  A    between atoms: C_2  and  C_3
REMARK    2  A    between atoms: C_3  and  O_4
REMARK    3  A    between atoms: O_4  and  C_5
REMARK    4  A    between atoms: C_5  and  C_7
REMARK    5  A    between atoms: C_7  and  C_8
REMARK    6  A    between atoms: C_8  and  C_9
REMARK    7  A    between atoms: C_11  and  O_12
REMARK    8  A    between atoms: N_20  and  C_21
REMARK    9  A    between atoms: C_21  and  C_22
REMARK                            x       y       z     vdW  Elec       q    Type
REMARK                         _______ _______ _______ _____ _____    ______ ____
ROOT
ATOM      1  C   UNL     1       7.040   6.858  16.956  0.00  0.00    +0.000 C 
ATOM      2  O   UNL     1       7.796   7.810  17.117  0.00  0.00    +0.000 OA
ENDROOT
BRANCH   1   3
ATOM      3  O   UNL     1       7.181   5.917  15.988  0.00  0.00    +0.000 OA
BRANCH   3   4
ATOM      4  C   UNL     1       7.196   4.571  16.464  0.00  0.00    +0.000 C 
BRANCH   4   6
ATOM      5  O   UNL     1       5.601   3.606  14.924  0.00  0.00    +0.000 OA
ATOM      6  C   UNL     1       5.915   3.820  16.091  0.00  0.00    +0.000 C 
ATOM      7  N   UNL     1       5.175   3.386  17.166  0.00  0.00    +0.000 N 
ATOM      8  H   UNL     1       5.600   3.425  18.089  0.00  0.00    +0.000 HD
BRANCH   7   9
ATOM      9  C   UNL     1       3.946   2.640  17.020  0.00  0.00    +0.000 C 
BRANCH   9  10
ATOM     10  C   UNL     1       3.134   2.714  18.290  0.00  0.00    +0.000 A 
ATOM     11  C   UNL     1       3.767   2.619  19.540  0.00  0.00    +0.000 A 
ATOM     12  C   UNL     1       3.017   2.654  20.717  0.00  0.00    +0.000 A 
ATOM     13  C   UNL     1       1.634   2.776  20.645  0.00  0.00    +0.000 A 
ATOM     14  F   UNL     1       0.914   2.804  21.774  0.00  0.00    +0.000 F 
ATOM     15  C   UNL     1       0.988   2.864  19.417  0.00  0.00    +0.000 A 
ATOM     16  C   UNL     1       1.735   2.830  18.239  0.00  0.00    +0.000 A 
ENDBRANCH   9  10
ENDBRANCH   7   9
ENDBRANCH   4   6
ENDBRANCH   3   4
ENDBRANCH   1   3
BRANCH   1  17
ATOM     17  C   UNL     1       5.841   6.552  17.820  0.00  0.00    +0.000 C 
BRANCH  17  18
ATOM     18  C   UNL     1       4.544   6.934  17.112  0.00  0.00    +0.000 C 
BRANCH  18  19
ATOM     19  C   UNL     1       3.421   7.299  18.051  0.00  0.00    +0.000 A 
ATOM     20  N   UNL     1       3.203   6.510  19.118  0.00  0.00    +0.000 NA
ATOM     21  C   UNL     1       2.259   6.935  19.961  0.00  0.00    +0.000 A 
ATOM     22  C   UNL     1       1.528   8.104  19.825  0.00  0.00    +0.000 A 
ATOM     23  C   UNL     1       0.583   8.575  20.761  0.00  0.00    +0.000 A 
ATOM     24  C   UNL     1      -0.068   9.784  20.545  0.00  0.00    +0.000 A 
ATOM     25  C   UNL     1       0.198  10.504  19.385  0.00  0.00    +0.000 A 
ATOM     26  C   UNL     1       1.124  10.015  18.456  0.00  0.00    +0.000 A 
ATOM     27  C   UNL     1       1.816   8.828  18.665  0.00  0.00    +0.000 A 
ATOM     28  N   UNL     1       2.742   8.429  17.781  0.00  0.00    +0.000 NA
BRANCH  21  29
ATOM     29  O   UNL     1       2.070   6.104  21.023  0.00  0.00    +0.000 OA
ATOM     30  H   UNL     1       2.038   6.730  21.771  0.00  0.00    +0.000 HD
ENDBRANCH  21  29
ENDBRANCH  18  19
ENDBRANCH  17  18
ENDBRANCH   1  17
TORSDOF 9
ENDMDL
MODEL 5
REMARK VINA RESULT:      -7.7      2.929      6.658
REMARK  Name = 
REMARK  9 active torsions:
REMARK  status: ('A' for Active; 'I' for Inactive)
REMARK    1  A    between atoms: C_2  and  C_3
REMARK    2  A    between atoms: C_3  and  O_4
REMARK    3  A    between atoms: O_4  and  C_5
REMARK    4  A    between atoms: C_5  and  C_7
REMARK    5  A    between atoms: C_7  and  C_8
REMARK    6  A    between atoms: C_8  and  C_9
REMARK    7  A    between atoms: C_11  and  O_12
REMARK    8  A    between atoms: N_20  and  C_21
REMARK    9  A    between atoms: C_21  and  C_22
REMARK                            x       y       z     vdW  Elec       q    Type
REMARK                         _______ _______ _______ _____ _____    ______ ____
ROOT
ATOM      1  C   UNL     1       6.796   5.078  15.359  0.00  0.00    +0.000 C 
ATOM      2  O   UNL     1       7.804   5.266  14.687  0.00  0.00    +0.000 OA
ENDROOT
BRANCH   1   3
ATOM      3  O   UNL     1       6.187   6.026  16.115  0.00  0.00    +0.000 OA
BRANCH   3   4
ATOM      4  C   UNL     1       6.817   6.281  17.372  0.00  0.00    +0.000 C 
BRANCH   4   6
ATOM      5  O   UNL     1       6.235   5.613  19.621  0.00  0.00    +0.000 OA
ATOM      6  C   UNL     1       5.857   6.065  18.544  0.00  0.00    +0.000 C 
ATOM      7  N   UNL     1       4.560   6.449  18.298  0.00  0.00    +0.000 N 
ATOM      8  H   UNL     1       4.372   6.997  17.462  0.00  0.00    +0.000 HD
BRANCH   7   9
ATOM      9  C   UNL     1       3.512   6.346  19.288  0.00  0.00    +0.000 C 
BRANCH   9  10
ATOM     10  C   UNL     1       2.560   7.511  19.165  0.00  0.00    +0.000 A 
ATOM     11  C   UNL     1       2.489   8.244  17.969  0.00  0.00    +0.000 A 
ATOM     12  C   UNL     1       1.634   9.342  17.861  0.00  0.00    +0.000 A 
ATOM     13  C   UNL     1       0.855   9.712  18.951  0.00  0.00    +0.000 A 
ATOM     14  F   UNL     1       0.038  10.769  18.850  0.00  0.00    +0.000 F 
ATOM     15  C   UNL     1       0.914   9.004  20.146  0.00  0.00    +0.000 A 
ATOM     16  C   UNL     1       1.768   7.906  20.256  0.00  0.00    +0.000 A 
ENDBRANCH   9  10
ENDBRANCH   7   9
ENDBRANCH   4   6
ENDBRANCH   3   4
ENDBRANCH   1   3
BRANCH   1  17
ATOM     17  C   UNL     1       6.044   3.772  15.440  0.00  0.00    +0.000 C 
BRANCH  17  18
ATOM     18  C   UNL     1       4.550   4.013  15.640  0.00  0.00    +0.000 C 
BRANCH  18  19
ATOM     19  C   UNL     1       4.027   3.529  16.970  0.00  0.00    +0.000 A 
ATOM     20  N   UNL     1       4.898   2.971  17.831  0.00  0.00    +0.000 NA
ATOM     21  C   UNL     1       4.396   2.648  19.024  0.00  0.00    +0.000 A 
ATOM     22  C   UNL     1       3.089   2.860  19.429  0.00  0.00    +0.000 A 
ATOM     23  C   UNL     1       2.591   2.578  20.720  0.00  0.00    +0.000 A 
ATOM     24  C   UNL     1       1.267   2.866  21.034  0.00  0.00    +0.000 A 
ATOM     25  C   UNL     1       0.437   3.403  20.057  0.00  0.00    +0.000 A 
ATOM     26  C   UNL     1       0.939   3.661  18.776  0.00  0.00    +0.000 A 
ATOM     27  C   UNL     1       2.267   3.417  18.446  0.00  0.00    +0.000 A 
ATOM     28  N   UNL     1       2.724   3.739  17.227  0.00  0.00    +0.000 NA
BRANCH  21  29
ATOM     29  O   UNL     1       5.311   2.084  19.859  0.00  0.00    +0.000 OA
ATOM     30  H   UNL     1       4.745   1.580  20.475  0.00  0.00    +0.000 HD
ENDBRANCH  21  29
ENDBRANCH  18  19
ENDBRANCH  17  18
ENDBRANCH   1  17
TORSDOF 9
ENDMDL
MODEL 6
REMARK VINA RESULT:      -7.6      2.811      4.469
REMARK  Name = 
REMARK  9 active torsions:
REMARK  status: ('A' for Active; 'I' for Inactive)
REMARK    1  A    between atoms: C_2  and  C_3
REMARK    2  A    between atoms: C_3  and  O_4
REMARK    3  A    between atoms: O_4  and  C_5
REMARK    4  A    between atoms: C_5  and  C_7
REMARK    5  A    between atoms: C_7  and  C_8
REMARK    6  A    between atoms: C_8  and  C_9
REMARK    7  A    between atoms: C_11  and  O_12
REMARK    8  A    between atoms: N_20  and  C_21
REMARK    9  A    between atoms: C_21  and  C_22
REMARK                            x       y       z     vdW  Elec       q    Type
REMARK                         _______ _______ _______ _____ _____    ______ ____
ROOT
ATOM      1  C   UNL     1       5.271   5.926  16.428  0.00  0.00    +0.000 C 
ATOM      2  O   UNL     1       4.748   4.913  15.975  0.00  0.00    +0.000 OA
ENDROOT
BRANCH   1   3
ATOM      3  O   UNL     1       6.602   6.185  16.397  0.00  0.00    +0.000 OA
BRANCH   3   4
ATOM      4  C   UNL     1       7.403   5.280  17.158  0.00  0.00    +0.000 C 
BRANCH   4   6
ATOM      5  O   UNL     1       7.060   5.715  19.511  0.00  0.00    +0.000 OA
ATOM      6  C   UNL     1       6.801   5.010  18.539  0.00  0.00    +0.000 C 
ATOM      7  N   UNL     1       5.935   3.944  18.586  0.00  0.00    +0.000 N 
ATOM      8  H   UNL     1       5.621   3.541  17.707  0.00  0.00    +0.000 HD
BRANCH   7   9
ATOM      9  C   UNL     1       5.249   3.545  19.794  0.00  0.00    +0.000 C 
BRANCH   9  10
ATOM     10  C   UNL     1       3.821   3.168  19.486  0.00  0.00    +0.000 A 
ATOM     11  C   UNL     1       3.505   2.520  18.281  0.00  0.00    +0.000 A 
ATOM     12  C   UNL     1       2.181   2.199  17.975  0.00  0.00    +0.000 A 
ATOM     13  C   UNL     1       1.172   2.532  18.871  0.00  0.00    +0.000 A 
ATOM     14  F   UNL     1      -0.099   2.229  18.576  0.00  0.00    +0.000 F 
ATOM     15  C   UNL     1       1.462   3.180  20.066  0.00  0.00    +0.000 A 
ATOM     16  C   UNL     1       2.784   3.502  20.374  0.00  0.00    +0.000 A 
ENDBRANCH   9  10
ENDBRANCH   7   9
ENDBRANCH   4   6
ENDBRANCH   3   4
ENDBRANCH   1   3
BRANCH   1  17
ATOM     17  C   UNL     1       4.524   7.069  17.071  0.00  0.00    +0.000 C 
BRANCH  17  18
ATOM     18  C   UNL     1       3.337   6.558  17.885  0.00  0.00    +0.000 C 
BRANCH  18  19
ATOM     19  C   UNL     1       2.554   7.649  18.572  0.00  0.00    +0.000 A 
ATOM     20  N   UNL     1       2.237   8.748  17.863  0.00  0.00    +0.000 NA
ATOM     21  C   UNL     1       1.465   9.634  18.495  0.00  0.00    +0.000 A 
ATOM     22  C   UNL     1       0.970   9.494  19.780  0.00  0.00    +0.000 A 
ATOM     23  C   UNL     1       0.097  10.408  20.410  0.00  0.00    +0.000 A 
ATOM     24  C   UNL     1      -0.374  10.151  21.693  0.00  0.00    +0.000 A 
ATOM     25  C   UNL     1       0.050   9.005  22.357  0.00  0.00    +0.000 A 
ATOM     26  C   UNL     1       0.931   8.117  21.728  0.00  0.00    +0.000 A 
ATOM     27  C   UNL     1       1.386   8.331  20.433  0.00  0.00    +0.000 A 
ATOM     28  N   UNL     1       2.178   7.423  19.843  0.00  0.00    +0.000 NA
BRANCH  21  29
ATOM     29  O   UNL     1       1.175  10.730  17.742  0.00  0.00    +0.000 OA
ATOM     30  H   UNL     1       0.216  10.625  17.585  0.00  0.00    +0.000 HD
ENDBRANCH  21  29
ENDBRANCH  18  19
ENDBRANCH  17  18
ENDBRANCH   1  17
TORSDOF 9
ENDMDL
MODEL 7
REMARK VINA RESULT:      -7.5      5.300      7.870
REMARK  Name = 
REMARK  9 active torsions:
REMARK  status: ('A' for Active; 'I' for Inactive)
REMARK    1  A    between atoms: C_2  and  C_3
REMARK    2  A    between atoms: C_3  and  O_4
REMARK    3  A    between atoms: O_4  and  C_5
REMARK    4  A    between atoms: C_5  and  C_7
REMARK    5  A    between atoms: C_7  and  C_8
REMARK    6  A    between atoms: C_8  and  C_9
REMARK    7  A    between atoms: C_11  and  O_12
REMARK    8  A    between atoms: N_20  and  C_21
REMARK    9  A    between atoms: C_21  and  C_22
REMARK                            x       y       z     vdW  Elec       q    Type
REMARK                         _______ _______ _______ _____ _____    ______ ____
ROOT
ATOM      1  C   UNL     1       6.993   6.829  17.648  0.00  0.00    +0.000 C 
ATOM      2  O   UNL     1       5.819   6.817  18.006  0.00  0.00    +0.000 OA
ENDROOT
BRANCH   1   3
ATOM      3  O   UNL     1       7.486   6.123  16.601  0.00  0.00    +0.000 OA
BRANCH   3   4
ATOM      4  C   UNL     1       7.386   4.704  16.739  0.00  0.00    +0.000 C 
BRANCH   4   6
ATOM      5  O   UNL     1       5.707   4.115  15.103  0.00  0.00    +0.000 OA
ATOM      6  C   UNL     1       6.020   4.182  16.288  0.00  0.00    +0.000 C 
ATOM      7  N   UNL     1       5.200   3.772  17.312  0.00  0.00    +0.000 N 
ATOM      8  H   UNL     1       5.603   3.671  18.240  0.00  0.00    +0.000 HD
BRANCH   7   9
ATOM      9  C   UNL     1       3.880   3.227  17.088  0.00  0.00    +0.000 C 
BRANCH   9  10
ATOM     10  C   UNL     1       3.117   3.150  18.388  0.00  0.00    +0.000 A 
ATOM     11  C   UNL     1       3.756   2.707  19.558  0.00  0.00    +0.000 A 
ATOM     12  C   UNL     1       3.047   2.602  20.756  0.00  0.00    +0.000 A 
ATOM     13  C   UNL     1       1.698   2.933  20.784  0.00  0.00    +0.000 A 
ATOM     14  F   UNL     1       1.015   2.827  21.931  0.00  0.00    +0.000 F 
ATOM     15  C   UNL     1       1.044   3.368  19.636  0.00  0.00    +0.000 A 
ATOM     16  C   UNL     1       1.751   3.474  18.437  0.00  0.00    +0.000 A 
ENDBRANCH   9  10
ENDBRANCH   7   9
ENDBRANCH   4   6
ENDBRANCH   3   4
ENDBRANCH   1   3
BRANCH   1  17
ATOM     17  C   UNL     1       8.082   7.652  18.293  0.00  0.00    +0.000 C 
BRANCH  17  18
ATOM     18  C   UNL     1       8.327   8.941  17.513  0.00  0.00    +0.000 C 
BRANCH  18  19
ATOM     19  C   UNL     1       8.914  10.054  18.344  0.00  0.00    +0.000 A 
ATOM     20  N   UNL     1       8.842   9.954  19.684  0.00  0.00    +0.000 NA
ATOM     21  C   UNL     1       9.460  10.921  20.365  0.00  0.00    +0.000 A 
ATOM     22  C   UNL     1      10.163  11.974  19.804  0.00  0.00    +0.000 A 
ATOM     23  C   UNL     1      10.871  12.950  20.539  0.00  0.00    +0.000 A 
ATOM     24  C   UNL     1      11.578  13.945  19.873  0.00  0.00    +0.000 A 
ATOM     25  C   UNL     1      11.553  13.986  18.484  0.00  0.00    +0.000 A 
ATOM     26  C   UNL     1      10.831  13.023  17.769  0.00  0.00    +0.000 A 
ATOM     27  C   UNL     1      10.147  11.996  18.408  0.00  0.00    +0.000 A 
ATOM     28  N   UNL     1       9.522  11.055  17.683  0.00  0.00    +0.000 NA
BRANCH  21  29
ATOM     29  O   UNL     1       9.356  10.780  21.715  0.00  0.00    +0.000 OA
ATOM     30  H   UNL     1       9.678  11.644  22.038  0.00  0.00    +0.000 HD
ENDBRANCH  21  29
ENDBRANCH  18  19
ENDBRANCH  17  18
ENDBRANCH   1  17
TORSDOF 9
ENDMDL
MODEL 8
REMARK VINA RESULT:      -7.5      2.772      7.453
REMARK  Name = 
REMARK  9 active torsions:
REMARK  status: ('A' for Active; 'I' for Inactive)
REMARK    1  A    between atoms: C_2  and  C_3
REMARK    2  A    between atoms: C_3  and  O_4
REMARK    3  A    between atoms: O_4  and  C_5
REMARK    4  A    between atoms: C_5  and  C_7
REMARK    5  A    between atoms: C_7  and  C_8
REMARK    6  A    between atoms: C_8  and  C_9
REMARK    7  A    between atoms: C_11  and  O_12
REMARK    8  A    between atoms: N_20  and  C_21
REMARK    9  A    between atoms: C_21  and  C_22
REMARK                            x       y       z     vdW  Elec       q    Type
REMARK                         _______ _______ _______ _____ _____    ______ ____
ROOT
ATOM      1  C   UNL     1       2.044   3.396  20.719  0.00  0.00    +0.000 C 
ATOM      2  O   UNL     1       2.070   3.103  21.910  0.00  0.00    +0.000 OA
ENDROOT
BRANCH   1   3
ATOM      3  O   UNL     1       1.680   4.609  20.233  0.00  0.00    +0.000 OA
BRANCH   3   4
ATOM      4  C   UNL     1       2.573   5.675  20.561  0.00  0.00    +0.000 C 
BRANCH   4   6
ATOM      5  O   UNL     1       2.443   7.089  18.605  0.00  0.00    +0.000 OA
ATOM      6  C   UNL     1       2.228   6.961  19.807  0.00  0.00    +0.000 C 
ATOM      7  N   UNL     1       1.635   7.932  20.577  0.00  0.00    +0.000 N 
ATOM      8  H   UNL     1       1.310   7.677  21.506  0.00  0.00    +0.000 HD
BRANCH   7   9
ATOM      9  C   UNL     1       1.214   9.208  20.043  0.00  0.00    +0.000 C 
BRANCH   9  10
ATOM     10  C   UNL     1       0.321   9.920  21.028  0.00  0.00    +0.000 A 
ATOM     11  C   UNL     1       0.175   9.427  22.335  0.00  0.00    +0.000 A 
ATOM     12  C   UNL     1      -0.676  10.063  23.241  0.00  0.00    +0.000 A 
ATOM     13  C   UNL     1      -1.387  11.187  22.838  0.00  0.00    +0.000 A 
ATOM     14  F   UNL     1      -2.208  11.795  23.705  0.00  0.00    +0.000 F 
ATOM     15  C   UNL     1      -1.262  11.688  21.548  0.00  0.00    +0.000 A 
ATOM     16  C   UNL     1      -0.412  11.054  20.640  0.00  0.00    +0.000 A 
ENDBRANCH   9  10
ENDBRANCH   7   9
ENDBRANCH   4   6
ENDBRANCH   3   4
ENDBRANCH   1   3
BRANCH   1  17
ATOM     17  C   UNL     1       2.438   2.470  19.595  0.00  0.00    +0.000 C 
BRANCH  17  18
ATOM     18  C   UNL     1       3.945   2.227  19.589  0.00  0.00    +0.000 C 
BRANCH  18  19
ATOM     19  C   UNL     1       4.721   3.223  18.764  0.00  0.00    +0.000 A 
ATOM     20  N   UNL     1       4.367   3.395  17.477  0.00  0.00    +0.000 NA
ATOM     21  C   UNL     1       5.027   4.355  16.825  0.00  0.00    +0.000 A 
ATOM     22  C   UNL     1       6.004   5.171  17.372  0.00  0.00    +0.000 A 
ATOM     23  C   UNL     1       6.643   6.228  16.689  0.00  0.00    +0.000 A 
ATOM     24  C   UNL     1       7.584   7.013  17.346  0.00  0.00    +0.000 A 
ATOM     25  C   UNL     1       7.911   6.723  18.666  0.00  0.00    +0.000 A 
ATOM     26  C   UNL     1       7.283   5.660  19.325  0.00  0.00    +0.000 A 
ATOM     27  C   UNL     1       6.312   4.884  18.704  0.00  0.00    +0.000 A 
ATOM     28  N   UNL     1       5.688   3.916  19.391  0.00  0.00    +0.000 NA
BRANCH  21  29
ATOM     29  O   UNL     1       4.640   4.490  15.527  0.00  0.00    +0.000 OA
ATOM     30  H   UNL     1       3.975   5.203  15.583  0.00  0.00    +0.000 HD
ENDBRANCH  21  29
ENDBRANCH  18  19
ENDBRANCH  17  18
ENDBRANCH   1  17
TORSDOF 9
ENDMDL
MODEL 9
REMARK VINA RESULT:      -7.5      2.744      6.573
REMARK  Name = 
REMARK  9 active torsions:
REMARK  status: ('A' for Active; 'I' for Inactive)
REMARK    1  A    between atoms: C_2  and  C_3
REMARK    2  A    between atoms: C_3  and  O_4
REMARK    3  A    between atoms: O_4  and  C_5
REMARK    4  A    between atoms: C_5  and  C_7
REMARK    5  A    between atoms: C_7  and  C_8
REMARK    6  A    between atoms: C_8  and  C_9
REMARK    7  A    between atoms: C_11  and  O_12
REMARK    8  A    between atoms: N_20  and  C_21
REMARK    9  A    between atoms: C_21  and  C_22
REMARK                            x       y       z     vdW  Elec       q    Type
REMARK                         _______ _______ _______ _____ _____    ______ ____
ROOT
ATOM      1  C   UNL     1       7.113   4.904  16.525  0.00  0.00    +0.000 C 
ATOM      2  O   UNL     1       8.026   4.249  17.018  0.00  0.00    +0.000 OA
ENDROOT
BRANCH   1   3
ATOM      3  O   UNL     1       7.015   6.255  16.587  0.00  0.00    +0.000 OA
BRANCH   3   4
ATOM      4  C   UNL     1       6.197   6.745  17.651  0.00  0.00    +0.000 C 
BRANCH   4   6
ATOM      5  O   UNL     1       4.530   7.337  16.003  0.00  0.00    +0.000 OA
ATOM      6  C   UNL     1       4.779   7.073  17.176  0.00  0.00    +0.000 C 
ATOM      7  N   UNL     1       3.820   7.014  18.159  0.00  0.00    +0.000 N 
ATOM      8  H   UNL     1       4.071   6.595  19.051  0.00  0.00    +0.000 HD
BRANCH   7   9
ATOM      9  C   UNL     1       2.420   7.268  17.904  0.00  0.00    +0.000 C 
BRANCH   9  10
ATOM     10  C   UNL     1       1.836   8.128  18.998  0.00  0.00    +0.000 A 
ATOM     11  C   UNL     1       1.363   9.418  18.707  0.00  0.00    +0.000 A 
ATOM     12  C   UNL     1       0.852  10.229  19.721  0.00  0.00    +0.000 A 
ATOM     13  C   UNL     1       0.820   9.755  21.027  0.00  0.00    +0.000 A 
ATOM     14  F   UNL     1       0.335  10.535  22.002  0.00  0.00    +0.000 F 
ATOM     15  C   UNL     1       1.289   8.483  21.338  0.00  0.00    +0.000 A 
ATOM     16  C   UNL     1       1.800   7.670  20.325  0.00  0.00    +0.000 A 
ENDBRANCH   9  10
ENDBRANCH   7   9
ENDBRANCH   4   6
ENDBRANCH   3   4
ENDBRANCH   1   3
BRANCH   1  17
ATOM     17  C   UNL     1       5.959   4.324  15.744  0.00  0.00    +0.000 C 
BRANCH  17  18
ATOM     18  C   UNL     1       5.436   3.050  16.405  0.00  0.00    +0.000 C 
BRANCH  18  19
ATOM     19  C   UNL     1       4.269   3.280  17.332  0.00  0.00    +0.000 A 
ATOM     20  N   UNL     1       3.112   3.716  16.803  0.00  0.00    +0.000 NA
ATOM     21  C   UNL     1       2.091   3.811  17.658  0.00  0.00    +0.000 A 
ATOM     22  C   UNL     1       2.137   3.483  19.002  0.00  0.00    +0.000 A 
ATOM     23  C   UNL     1       1.030   3.523  19.878  0.00  0.00    +0.000 A 
ATOM     24  C   UNL     1       1.178   3.135  21.205  0.00  0.00    +0.000 A 
ATOM     25  C   UNL     1       2.430   2.741  21.664  0.00  0.00    +0.000 A 
ATOM     26  C   UNL     1       3.523   2.726  20.790  0.00  0.00    +0.000 A 
ATOM     27  C   UNL     1       3.395   3.072  19.450  0.00  0.00    +0.000 A 
ATOM     28  N   UNL     1       4.453   2.981  18.631  0.00  0.00    +0.000 NA
BRANCH  21  29
ATOM     29  O   UNL     1       0.943   4.259  17.079  0.00  0.00    +0.000 OA
ATOM     30  H   UNL     1       0.423   3.437  16.988  0.00  0.00    +0.000 HD
ENDBRANCH  21  29
ENDBRANCH  18  19
ENDBRANCH  17  18
ENDBRANCH   1  17
TORSDOF 9
ENDMDL
