MODEL 1
REMARK VINA RESULT:      -7.4      0.000      0.000
REMARK  Name = 
REMARK  9 active torsions:
REMARK  status: ('A' for Active; 'I' for Inactive)
REMARK    1  A    between atoms: C_1  and  O_2
REMARK    2  A    between atoms: O_2  and  C_3
REMARK    3  A    between atoms: C_6  and  C_7
REMARK    4  A    between atoms: C_12  and  N_13
REMARK    5  A    between atoms: N_13  and  C_14
REMARK    6  A    between atoms: N_13  and  C_15
REMARK    7  A    between atoms: C_18  and  N_19
REMARK    8  A    between atoms: C_22  and  O_23
REMARK    9  A    between atoms: O_23  and  C_24
REMARK                            x       y       z     vdW  Elec       q    Type
REMARK                         _______ _______ _______ _____ _____    ______ ____
ROOT
ATOM      1  C   UNL     1       1.880   8.083  19.222  0.00  0.00    +0.000 A 
ATOM      2  C   UNL     1       1.408   8.001  20.519  0.00  0.00    +0.000 A 
ATOM      3  C   UNL     1       0.710   9.058  21.066  0.00  0.00    +0.000 A 
ATOM      4  C   UNL     1       0.523   9.057  22.439  0.00  0.00    +0.000 A 
ATOM      5  C   UNL     1      -0.136  10.111  23.050  0.00  0.00    +0.000 A 
ATOM      6  C   UNL     1      -0.733  11.145  22.318  0.00  0.00    +0.000 A 
ATOM      7  C   UNL     1      -0.527  11.120  20.918  0.00  0.00    +0.000 A 
ATOM      8  C   UNL     1       0.254  10.100  20.257  0.00  0.00    +0.000 A 
ATOM      9  C   UNL     1       0.603   9.999  18.893  0.00  0.00    +0.000 A 
ATOM     10  N   UNL     1       1.459   9.067  18.397  0.00  0.00    +0.000 NA
ENDROOT
BRANCH   1  14
ATOM     11  C   UNL     1       4.816   5.229  17.803  0.00  0.00    +0.000 A 
ATOM     12  C   UNL     1       4.609   6.443  17.129  0.00  0.00    +0.000 A 
ATOM     13  C   UNL     1       3.674   7.385  17.589  0.00  0.00    +0.000 A 
ATOM     14  C   UNL     1       2.892   7.126  18.717  0.00  0.00    +0.000 A 
ATOM     15  C   UNL     1       3.133   5.907  19.379  0.00  0.00    +0.000 A 
ATOM     16  C   UNL     1       4.051   4.951  18.935  0.00  0.00    +0.000 A 
BRANCH  11  18
ATOM     17  C   UNL     1       7.089   4.637  17.488  0.00  0.00    +0.000 C 
ATOM     18  O   UNL     1       5.715   4.293  17.376  0.00  0.00    +0.000 OA
ENDBRANCH  11  18
BRANCH  16  19
ATOM     19  O   UNL     1       4.033   3.845  19.741  0.00  0.00    +0.000 OA
ATOM     20  C   UNL     1       2.798   3.357  20.225  0.00  0.00    +0.000 C 
ENDBRANCH  16  19
ENDBRANCH   1  14
BRANCH   6  21
ATOM     21  N   UNL     1      -1.490  12.107  22.970  0.00  0.00    +0.000 N 
ATOM     22  C   UNL     1      -2.841  11.861  23.450  0.00  0.00    +0.000 C 
ATOM     23  C   UNL     1      -1.034  13.491  23.096  0.00  0.00    +0.000 C 
ENDBRANCH   6  21
BRANCH   9  24
ATOM     24  N   UNL     1       0.054  10.822  17.905  0.00  0.00    +0.000 N 
ATOM     25  H   UNL     1       0.604  11.646  17.716  0.00  0.00    +0.000 HD
ATOM     26  H   UNL     1      -0.070  10.234  17.081  0.00  0.00    +0.000 HD
ENDBRANCH   9  24
TORSDOF 5
ENDMDL
MODEL 2
REMARK VINA RESULT:      -7.3      1.306      1.831
REMARK  Name = 
REMARK  9 active torsions:
REMARK  status: ('A' for Active; 'I' for Inactive)
REMARK    1  A    between atoms: C_1  and  O_2
REMARK    2  A    between atoms: O_2  and  C_3
REMARK    3  A    between atoms: C_6  and  C_7
REMARK    4  A    between atoms: C_12  and  N_13
REMARK    5  A    between atoms: N_13  and  C_14
REMARK    6  A    between atoms: N_13  and  C_15
REMARK    7  A    between atoms: C_18  and  N_19
REMARK    8  A    between atoms: C_22  and  O_23
REMARK    9  A    between atoms: O_23  and  C_24
REMARK                            x       y       z     vdW  Elec       q    Type
REMARK                         _______ _______ _______ _____ _____    ______ ____
ROOT
ATOM      1  C   UNL     1       1.513   7.743  19.947  0.00  0.00    +0.000 A 
ATOM      2  C   UNL     1       0.702   7.905  21.056  0.00  0.00    +0.000 A 
ATOM      3  C   UNL     1       0.265   9.165  21.410  0.00  0.00    +0.000 A 
ATOM      4  C   UNL     1      -0.282   9.318  22.674  0.00  0.00    +0.000 A 
ATOM      5  C   UNL     1      -0.703  10.566  23.102  0.00  0.00    +0.000 A 
ATOM      6  C   UNL     1      -0.703  11.684  22.259  0.00  0.00    +0.000 A 
ATOM      7  C   UNL     1      -0.140  11.499  20.974  0.00  0.00    +0.000 A 
ATOM      8  C   UNL     1       0.415  10.241  20.533  0.00  0.00    +0.000 A 
ATOM      9  C   UNL     1       1.073   9.940  19.321  0.00  0.00    +0.000 A 
ATOM     10  N   UNL     1       1.680   8.751  19.063  0.00  0.00    +0.000 NA
ENDROOT
BRANCH   1  14
ATOM     11  C   UNL     1       3.645   4.017  19.360  0.00  0.00    +0.000 A 
ATOM     12  C   UNL     1       3.745   5.059  18.423  0.00  0.00    +0.000 A 
ATOM     13  C   UNL     1       3.074   6.277  18.611  0.00  0.00    +0.000 A 
ATOM     14  C   UNL     1       2.254   6.480  19.723  0.00  0.00    +0.000 A 
ATOM     15  C   UNL     1       2.187   5.424  20.651  0.00  0.00    +0.000 A 
ATOM     16  C   UNL     1       2.838   4.199  20.481  0.00  0.00    +0.000 A 
BRANCH  11  18
ATOM     17  C   UNL     1       3.583   1.821  18.472  0.00  0.00    +0.000 C 
ATOM     18  O   UNL     1       4.283   2.820  19.201  0.00  0.00    +0.000 OA
ENDBRANCH  11  18
BRANCH  16  19
ATOM     19  O   UNL     1       2.549   3.345  21.510  0.00  0.00    +0.000 OA
ATOM     20  C   UNL     1       1.373   2.560  21.452  0.00  0.00    +0.000 C 
ENDBRANCH  16  19
ENDBRANCH   1  14
BRANCH   6  21
ATOM     21  N   UNL     1      -1.253  12.880  22.696  0.00  0.00    +0.000 N 
ATOM     22  C   UNL     1      -0.534  14.144  22.657  0.00  0.00    +0.000 C 
ATOM     23  C   UNL     1      -2.554  12.932  23.363  0.00  0.00    +0.000 C 
ENDBRANCH   6  21
BRANCH   9  24
ATOM     24  N   UNL     1       1.117  10.826  18.241  0.00  0.00    +0.000 N 
ATOM     25  H   UNL     1       1.303  11.780  18.510  0.00  0.00    +0.000 HD
ATOM     26  H   UNL     1       1.816  10.456  17.597  0.00  0.00    +0.000 HD
ENDBRANCH   9  24
TORSDOF 5
ENDMDL
MODEL 3
REMARK VINA RESULT:      -7.2      1.887      2.611
REMARK  Name = 
REMARK  9 active torsions:
REMARK  status: ('A' for Active; 'I' for Inactive)
REMARK    1  A    between atoms: C_1  and  O_2
REMARK    2  A    between atoms: O_2  and  C_3
REMARK    3  A    between atoms: C_6  and  C_7
REMARK    4  A    between atoms: C_12  and  N_13
REMARK    5  A    between atoms: N_13  and  C_14
REMARK    6  A    between atoms: N_13  and  C_15
REMARK    7  A    between atoms: C_18  and  N_19
REMARK    8  A    between atoms: C_22  and  O_23
REMARK    9  A    between atoms: O_23  and  C_24
REMARK                            x       y       z     vdW  Elec       q    Type
REMARK                         _______ _______ _______ _____ _____    ______ ____
ROOT
ATOM      1  C   UNL     1       2.356   7.763  18.702  0.00  0.00    +0.000 A 
ATOM      2  C   UNL     1       1.718   8.761  17.989  0.00  0.00    +0.000 A 
ATOM      3  C   UNL     1       0.753   9.535  18.599  0.00  0.00    +0.000 A 
ATOM      4  C   UNL     1      -0.060  10.304  17.782  0.00  0.00    +0.000 A 
ATOM      5  C   UNL     1      -1.071  11.072  18.334  0.00  0.00    +0.000 A 
ATOM      6  C   UNL     1      -1.247  11.195  19.717  0.00  0.00    +0.000 A 
ATOM      7  C   UNL     1      -0.403  10.399  20.528  0.00  0.00    +0.000 A 
ATOM      8  C   UNL     1       0.587   9.499  19.985  0.00  0.00    +0.000 A 
ATOM      9  C   UNL     1       1.431   8.597  20.667  0.00  0.00    +0.000 A 
ATOM     10  N   UNL     1       2.235   7.693  20.046  0.00  0.00    +0.000 NA
ENDROOT
BRANCH   1  14
ATOM     11  C   UNL     1       4.616   4.652  16.705  0.00  0.00    +0.000 A 
ATOM     12  C   UNL     1       5.009   5.997  16.616  0.00  0.00    +0.000 A 
ATOM     13  C   UNL     1       4.296   7.012  17.274  0.00  0.00    +0.000 A 
ATOM     14  C   UNL     1       3.148   6.719  18.012  0.00  0.00    +0.000 A 
ATOM     15  C   UNL     1       2.788   5.360  18.094  0.00  0.00    +0.000 A 
ATOM     16  C   UNL     1       3.476   4.334  17.442  0.00  0.00    +0.000 A 
BRANCH  11  18
ATOM     17  C   UNL     1       6.005   4.001  14.899  0.00  0.00    +0.000 C 
ATOM     18  O   UNL     1       5.287   3.644  16.072  0.00  0.00    +0.000 OA
ENDBRANCH  11  18
BRANCH  16  19
ATOM     19  O   UNL     1       2.870   3.126  17.655  0.00  0.00    +0.000 OA
ATOM     20  C   UNL     1       1.619   3.082  18.314  0.00  0.00    +0.000 C 
ENDBRANCH  16  19
ENDBRANCH   1  14
BRANCH   6  21
ATOM     21  N   UNL     1      -2.193  12.075  20.220  0.00  0.00    +0.000 N 
ATOM     22  C   UNL     1      -3.476  12.313  19.575  0.00  0.00    +0.000 C 
ATOM     23  C   UNL     1      -1.910  12.941  21.365  0.00  0.00    +0.000 C 
ENDBRANCH   6  21
BRANCH   9  24
ATOM     24  N   UNL     1       1.562   8.584  22.059  0.00  0.00    +0.000 N 
ATOM     25  H   UNL     1       1.973   9.425  22.432  0.00  0.00    +0.000 HD
ATOM     26  H   UNL     1       0.630   8.402  22.432  0.00  0.00    +0.000 HD
ENDBRANCH   9  24
TORSDOF 5
ENDMDL
MODEL 4
REMARK VINA RESULT:      -7.2      1.379      2.211
REMARK  Name = 
REMARK  9 active torsions:
REMARK  status: ('A' for Active; 'I' for Inactive)
REMARK    1  A    between atoms: C_1  and  O_2
REMARK    2  A    between atoms: O_2  and  C_3
REMARK    3  A    between atoms: C_6  and  C_7
REMARK    4  A    between atoms: C_12  and  N_13
REMARK    5  A    between atoms: N_13  and  C_14
REMARK    6  A    between atoms: N_13  and  C_15
REMARK    7  A    between atoms: C_18  and  N_19
REMARK    8  A    between atoms: C_22  and  O_23
REMARK    9  A    between atoms: O_23  and  C_24
REMARK                            x       y       z     vdW  Elec       q    Type
REMARK                         _______ _______ _______ _____ _____    ______ ____
ROOT
ATOM      1  C   UNL     1       2.272   7.594  18.655  0.00  0.00    +0.000 A 
ATOM      2  C   UNL     1       1.961   7.571  20.003  0.00  0.00    +0.000 A 
ATOM      3  C   UNL     1       1.291   8.634  20.573  0.00  0.00    +0.000 A 
ATOM      4  C   UNL     1       1.269   8.706  21.956  0.00  0.00    +0.000 A 
ATOM      5  C   UNL     1       0.645   9.771  22.585  0.00  0.00    +0.000 A 
ATOM      6  C   UNL     1      -0.075  10.741  21.877  0.00  0.00    +0.000 A 
ATOM      7  C   UNL     1      -0.036  10.642  20.466  0.00  0.00    +0.000 A 
ATOM      8  C   UNL     1       0.700   9.612  19.770  0.00  0.00    +0.000 A 
ATOM      9  C   UNL     1       0.889   9.444  18.382  0.00  0.00    +0.000 A 
ATOM     10  N   UNL     1       1.717   8.514  17.836  0.00  0.00    +0.000 NA
ENDROOT
BRANCH   1  14
ATOM     11  C   UNL     1       5.196   4.877  16.969  0.00  0.00    +0.000 A 
ATOM     12  C   UNL     1       3.997   4.394  17.517  0.00  0.00    +0.000 A 
ATOM     13  C   UNL     1       3.033   5.265  18.050  0.00  0.00    +0.000 A 
ATOM     14  C   UNL     1       3.253   6.643  18.083  0.00  0.00    +0.000 A 
ATOM     15  C   UNL     1       4.457   7.098  17.512  0.00  0.00    +0.000 A 
ATOM     16  C   UNL     1       5.435   6.251  16.985  0.00  0.00    +0.000 A 
BRANCH  11  18
ATOM     17  C   UNL     1       6.126   3.861  15.040  0.00  0.00    +0.000 C 
ATOM     18  O   UNL     1       6.153   4.053  16.448  0.00  0.00    +0.000 OA
ENDBRANCH  11  18
BRANCH  16  19
ATOM     19  O   UNL     1       6.519   6.964  16.552  0.00  0.00    +0.000 OA
ATOM     20  C   UNL     1       7.370   7.579  17.499  0.00  0.00    +0.000 C 
ENDBRANCH  16  19
ENDBRANCH   1  14
BRANCH   6  21
ATOM     21  N   UNL     1      -0.787  11.713  22.563  0.00  0.00    +0.000 N 
ATOM     22  C   UNL     1      -1.998  11.425  23.317  0.00  0.00    +0.000 C 
ATOM     23  C   UNL     1      -0.448  13.133  22.461  0.00  0.00    +0.000 C 
ENDBRANCH   6  21
BRANCH   9  24
ATOM     24  N   UNL     1       0.194  10.190  17.425  0.00  0.00    +0.000 N 
ATOM     25  H   UNL     1       0.785  10.564  16.699  0.00  0.00    +0.000 HD
ATOM     26  H   UNL     1      -0.536   9.578  17.061  0.00  0.00    +0.000 HD
ENDBRANCH   9  24
TORSDOF 5
ENDMDL
MODEL 5
REMARK VINA RESULT:      -7.2      1.097      2.283
REMARK  Name = 
REMARK  9 active torsions:
REMARK  status: ('A' for Active; 'I' for Inactive)
REMARK    1  A    between atoms: C_1  and  O_2
REMARK    2  A    between atoms: O_2  and  C_3
REMARK    3  A    between atoms: C_6  and  C_7
REMARK    4  A    between atoms: C_12  and  N_13
REMARK    5  A    between atoms: N_13  and  C_14
REMARK    6  A    between atoms: N_13  and  C_15
REMARK    7  A    between atoms: C_18  and  N_19
REMARK    8  A    between atoms: C_22  and  O_23
REMARK    9  A    between atoms: O_23  and  C_24
REMARK                            x       y       z     vdW  Elec       q    Type
REMARK                         _______ _______ _______ _____ _____    ______ ____
ROOT
ATOM      1  C   UNL     1       1.514   7.632  20.119  0.00  0.00    +0.000 A 
ATOM      2  C   UNL     1       0.687   7.846  21.206  0.00  0.00    +0.000 A 
ATOM      3  C   UNL     1       0.260   9.123  21.506  0.00  0.00    +0.000 A 
ATOM      4  C   UNL     1      -0.306   9.330  22.754  0.00  0.00    +0.000 A 
ATOM      5  C   UNL     1      -0.718  10.598  23.127  0.00  0.00    +0.000 A 
ATOM      6  C   UNL     1      -0.690  11.684  22.244  0.00  0.00    +0.000 A 
ATOM      7  C   UNL     1      -0.108  11.444  20.976  0.00  0.00    +0.000 A 
ATOM      8  C   UNL     1       0.439  10.163  20.593  0.00  0.00    +0.000 A 
ATOM      9  C   UNL     1       1.113   9.810  19.404  0.00  0.00    +0.000 A 
ATOM     10  N   UNL     1       1.709   8.605  19.201  0.00  0.00    +0.000 NA
ENDROOT
BRANCH   1  14
ATOM     11  C   UNL     1       3.700   3.929  19.586  0.00  0.00    +0.000 A 
ATOM     12  C   UNL     1       2.633   4.011  20.496  0.00  0.00    +0.000 A 
ATOM     13  C   UNL     1       1.905   5.199  20.664  0.00  0.00    +0.000 A 
ATOM     14  C   UNL     1       2.243   6.354  19.955  0.00  0.00    +0.000 A 
ATOM     15  C   UNL     1       3.307   6.236  19.040  0.00  0.00    +0.000 A 
ATOM     16  C   UNL     1       4.053   5.067  18.862  0.00  0.00    +0.000 A 
BRANCH  11  18
ATOM     17  C   UNL     1       3.774   1.718  18.739  0.00  0.00    +0.000 C 
ATOM     18  O   UNL     1       4.429   2.788  19.406  0.00  0.00    +0.000 OA
ENDBRANCH  11  18
BRANCH  16  19
ATOM     19  O   UNL     1       5.056   5.260  17.953  0.00  0.00    +0.000 OA
ATOM     20  C   UNL     1       4.859   4.872  16.607  0.00  0.00    +0.000 C 
ENDBRANCH  16  19
ENDBRANCH   1  14
BRANCH   6  21
ATOM     21  N   UNL     1      -1.232  12.901  22.626  0.00  0.00    +0.000 N 
ATOM     22  C   UNL     1      -0.471  14.142  22.630  0.00  0.00    +0.000 C 
ATOM     23  C   UNL     1      -2.578  13.003  23.192  0.00  0.00    +0.000 C 
ENDBRANCH   6  21
BRANCH   9  24
ATOM     24  N   UNL     1       1.186  10.654  18.292  0.00  0.00    +0.000 N 
ATOM     25  H   UNL     1       1.580  10.211  17.477  0.00  0.00    +0.000 HD
ATOM     26  H   UNL     1       0.240  10.999  18.134  0.00  0.00    +0.000 HD
ENDBRANCH   9  24
TORSDOF 5
ENDMDL
MODEL 6
REMARK VINA RESULT:      -7.2      1.924      2.875
REMARK  Name = 
REMARK  9 active torsions:
REMARK  status: ('A' for Active; 'I' for Inactive)
REMARK    1  A    between atoms: C_1  and  O_2
REMARK    2  A    between atoms: O_2  and  C_3
REMARK    3  A    between atoms: C_6  and  C_7
REMARK    4  A    between atoms: C_12  and  N_13
REMARK    5  A    between atoms: N_13  and  C_14
REMARK    6  A    between atoms: N_13  and  C_15
REMARK    7  A    between atoms: C_18  and  N_19
REMARK    8  A    between atoms: C_22  and  O_23
REMARK    9  A    between atoms: O_23  and  C_24
REMARK                            x       y       z     vdW  Elec       q    Type
REMARK                         _______ _______ _______ _____ _____    ______ ____
ROOT
ATOM      1  C   UNL     1       2.894   7.305  18.406  0.00  0.00    +0.000 A 
ATOM      2  C   UNL     1       2.485   8.522  17.892  0.00  0.00    +0.000 A 
ATOM      3  C   UNL     1       1.495   9.241  18.531  0.00  0.00    +0.000 A 
ATOM      4  C   UNL     1       0.914  10.286  17.832  0.00  0.00    +0.000 A 
ATOM      5  C   UNL     1      -0.111  11.019  18.406  0.00  0.00    +0.000 A 
ATOM      6  C   UNL     1      -0.522  10.821  19.730  0.00  0.00    +0.000 A 
ATOM      7  C   UNL     1       0.089   9.748  20.420  0.00  0.00    +0.000 A 
ATOM      8  C   UNL     1       1.079   8.887  19.816  0.00  0.00    +0.000 A 
ATOM      9  C   UNL     1       1.706   7.744  20.357  0.00  0.00    +0.000 A 
ATOM     10  N   UNL     1       2.527   6.924  19.649  0.00  0.00    +0.000 NA
ENDROOT
BRANCH   1  14
ATOM     11  C   UNL     1       5.225   4.501  16.064  0.00  0.00    +0.000 A 
ATOM     12  C   UNL     1       5.363   5.886  15.875  0.00  0.00    +0.000 A 
ATOM     13  C   UNL     1       4.628   6.805  16.641  0.00  0.00    +0.000 A 
ATOM     14  C   UNL     1       3.705   6.369  17.593  0.00  0.00    +0.000 A 
ATOM     15  C   UNL     1       3.600   4.976  17.769  0.00  0.00    +0.000 A 
ATOM     16  C   UNL     1       4.314   4.042  17.013  0.00  0.00    +0.000 A 
BRANCH  11  18
ATOM     17  C   UNL     1       6.325   3.988  14.028  0.00  0.00    +0.000 C 
ATOM     18  O   UNL     1       5.924   3.585  15.330  0.00  0.00    +0.000 OA
ENDBRANCH  11  18
BRANCH  16  19
ATOM     19  O   UNL     1       3.970   2.764  17.363  0.00  0.00    +0.000 OA
ATOM     20  C   UNL     1       2.646   2.488  17.774  0.00  0.00    +0.000 C 
ENDBRANCH  16  19
ENDBRANCH   1  14
BRANCH   6  21
ATOM     21  N   UNL     1      -1.464  11.667  20.296  0.00  0.00    +0.000 N 
ATOM     22  C   UNL     1      -1.514  11.956  21.721  0.00  0.00    +0.000 C 
ATOM     23  C   UNL     1      -2.571  12.220  19.516  0.00  0.00    +0.000 C 
ENDBRANCH   6  21
BRANCH   9  24
ATOM     24  N   UNL     1       1.581   7.373  21.699  0.00  0.00    +0.000 N 
ATOM     25  H   UNL     1       0.930   7.943  22.215  0.00  0.00    +0.000 HD
ATOM     26  H   UNL     1       1.325   6.385  21.699  0.00  0.00    +0.000 HD
ENDBRANCH   9  24
TORSDOF 5
ENDMDL
MODEL 7
REMARK VINA RESULT:      -7.2      1.986      3.194
REMARK  Name = 
REMARK  9 active torsions:
REMARK  status: ('A' for Active; 'I' for Inactive)
REMARK    1  A    between atoms: C_1  and  O_2
REMARK    2  A    between atoms: O_2  and  C_3
REMARK    3  A    between atoms: C_6  and  C_7
REMARK    4  A    between atoms: C_12  and  N_13
REMARK    5  A    between atoms: N_13  and  C_14
REMARK    6  A    between atoms: N_13  and  C_15
REMARK    7  A    between atoms: C_18  and  N_19
REMARK    8  A    between atoms: C_22  and  O_23
REMARK    9  A    between atoms: O_23  and  C_24
REMARK                            x       y       z     vdW  Elec       q    Type
REMARK                         _______ _______ _______ _____ _____    ______ ____
ROOT
ATOM      1  C   UNL     1       2.354   7.746  18.716  0.00  0.00    +0.000 A 
ATOM      2  C   UNL     1       1.721   8.745  17.997  0.00  0.00    +0.000 A 
ATOM      3  C   UNL     1       0.745   9.513  18.598  0.00  0.00    +0.000 A 
ATOM      4  C   UNL     1      -0.059  10.282  17.772  0.00  0.00    +0.000 A 
ATOM      5  C   UNL     1      -1.081  11.043  18.313  0.00  0.00    +0.000 A 
ATOM      6  C   UNL     1      -1.274  11.162  19.695  0.00  0.00    +0.000 A 
ATOM      7  C   UNL     1      -0.438  10.367  20.514  0.00  0.00    +0.000 A 
ATOM      8  C   UNL     1       0.562   9.472  19.981  0.00  0.00    +0.000 A 
ATOM      9  C   UNL     1       1.401   8.571  20.671  0.00  0.00    +0.000 A 
ATOM     10  N   UNL     1       2.216   7.673  20.058  0.00  0.00    +0.000 NA
ENDROOT
BRANCH   1  14
ATOM     11  C   UNL     1       4.769   4.763  16.706  0.00  0.00    +0.000 A 
ATOM     12  C   UNL     1       3.524   4.426  17.262  0.00  0.00    +0.000 A 
ATOM     13  C   UNL     1       2.724   5.387  17.900  0.00  0.00    +0.000 A 
ATOM     14  C   UNL     1       3.158   6.708  18.033  0.00  0.00    +0.000 A 
ATOM     15  C   UNL     1       4.403   7.017  17.451  0.00  0.00    +0.000 A 
ATOM     16  C   UNL     1       5.221   6.077  16.821  0.00  0.00    +0.000 A 
BRANCH  11  18
ATOM     17  C   UNL     1       5.739   4.002  14.682  0.00  0.00    +0.000 C 
ATOM     18  O   UNL     1       5.570   3.847  16.085  0.00  0.00    +0.000 OA
ENDBRANCH  11  18
BRANCH  16  19
ATOM     19  O   UNL     1       6.391   6.648  16.402  0.00  0.00    +0.000 OA
ATOM     20  C   UNL     1       7.369   7.011  17.357  0.00  0.00    +0.000 C 
ENDBRANCH  16  19
ENDBRANCH   1  14
BRANCH   6  21
ATOM     21  N   UNL     1      -2.230  12.038  20.187  0.00  0.00    +0.000 N 
ATOM     22  C   UNL     1      -2.122  12.680  21.489  0.00  0.00    +0.000 C 
ATOM     23  C   UNL     1      -3.495  12.271  19.489  0.00  0.00    +0.000 C 
ENDBRANCH   6  21
BRANCH   9  24
ATOM     24  N   UNL     1       1.515   8.555  22.065  0.00  0.00    +0.000 N 
ATOM     25  H   UNL     1       1.165   9.391  22.506  0.00  0.00    +0.000 HD
ATOM     26  H   UNL     1       1.033   7.713  22.380  0.00  0.00    +0.000 HD
ENDBRANCH   9  24
TORSDOF 5
ENDMDL
MODEL 8
REMARK VINA RESULT:      -7.1      3.645      8.287
REMARK  Name = 
REMARK  9 active torsions:
REMARK  status: ('A' for Active; 'I' for Inactive)
REMARK    1  A    between atoms: C_1  and  O_2
REMARK    2  A    between atoms: O_2  and  C_3
REMARK    3  A    between atoms: C_6  and  C_7
REMARK    4  A    between atoms: C_12  and  N_13
REMARK    5  A    between atoms: N_13  and  C_14
REMARK    6  A    between atoms: N_13  and  C_15
REMARK    7  A    between atoms: C_18  and  N_19
REMARK    8  A    between atoms: C_22  and  O_23
REMARK    9  A    between atoms: O_23  and  C_24
REMARK                            x       y       z     vdW  Elec       q    Type
REMARK                         _______ _______ _______ _____ _____    ______ ____
ROOT
ATOM      1  C   UNL     1       1.151   8.682  20.530  0.00  0.00    +0.000 A 
ATOM      2  C   UNL     1       1.450   7.440  21.060  0.00  0.00    +0.000 A 
ATOM      3  C   UNL     1       1.940   6.443  20.242  0.00  0.00    +0.000 A 
ATOM      4  C   UNL     1       1.938   5.150  20.742  0.00  0.00    +0.000 A 
ATOM      5  C   UNL     1       2.382   4.102  19.954  0.00  0.00    +0.000 A 
ATOM      6  C   UNL     1       2.946   4.303  18.689  0.00  0.00    +0.000 A 
ATOM      7  C   UNL     1       2.935   5.633  18.203  0.00  0.00    +0.000 A 
ATOM      8  C   UNL     1       2.376   6.736  18.949  0.00  0.00    +0.000 A 
ATOM      9  C   UNL     1       2.228   8.084  18.557  0.00  0.00    +0.000 A 
ATOM     10  N   UNL     1       1.562   9.017  19.287  0.00  0.00    +0.000 NA
ENDROOT
BRANCH   1  14
ATOM     11  C   UNL     1      -1.232  11.590  22.684  0.00  0.00    +0.000 A 
ATOM     12  C   UNL     1      -0.935  10.341  23.252  0.00  0.00    +0.000 A 
ATOM     13  C   UNL     1      -0.149   9.397  22.572  0.00  0.00    +0.000 A 
ATOM     14  C   UNL     1       0.336   9.659  21.289  0.00  0.00    +0.000 A 
ATOM     15  C   UNL     1       0.034  10.925  20.753  0.00  0.00    +0.000 A 
ATOM     16  C   UNL     1      -0.754  11.877  21.406  0.00  0.00    +0.000 A 
BRANCH  11  18
ATOM     17  C   UNL     1      -3.407  12.382  23.195  0.00  0.00    +0.000 C 
ATOM     18  O   UNL     1      -1.999  12.525  23.320  0.00  0.00    +0.000 OA
ENDBRANCH  11  18
BRANCH  16  19
ATOM     19  O   UNL     1      -0.926  12.988  20.627  0.00  0.00    +0.000 OA
ATOM     20  C   UNL     1      -1.149  12.836  19.239  0.00  0.00    +0.000 C 
ENDBRANCH  16  19
ENDBRANCH   1  14
BRANCH   6  21
ATOM     21  N   UNL     1       3.491   3.233  17.995  0.00  0.00    +0.000 N 
ATOM     22  C   UNL     1       3.240   1.845  18.353  0.00  0.00    +0.000 C 
ATOM     23  C   UNL     1       4.478   3.425  16.932  0.00  0.00    +0.000 C 
ENDBRANCH   6  21
BRANCH   9  24
ATOM     24  N   UNL     1       2.805   8.604  17.395  0.00  0.00    +0.000 N 
ATOM     25  H   UNL     1       3.444   7.968  16.943  0.00  0.00    +0.000 HD
ATOM     26  H   UNL     1       2.031   8.880  16.791  0.00  0.00    +0.000 HD
ENDBRANCH   9  24
TORSDOF 5
ENDMDL
MODEL 9
REMARK VINA RESULT:      -7.0      3.533      8.492
REMARK  Name = 
REMARK  9 active torsions:
REMARK  status: ('A' for Active; 'I' for Inactive)
REMARK    1  A    between atoms: C_1  and  O_2
REMARK    2  A    between atoms: O_2  and  C_3
REMARK    3  A    between atoms: C_6  and  C_7
REMARK    4  A    between atoms: C_12  and  N_13
REMARK    5  A    between atoms: N_13  and  C_14
REMARK    6  A    between atoms: N_13  and  C_15
REMARK    7  A    between atoms: C_18  and  N_19
REMARK    8  A    between atoms: C_22  and  O_23
REMARK    9  A    between atoms: O_23  and  C_24
REMARK                            x       y       z     vdW  Elec       q    Type
REMARK                         _______ _______ _______ _____ _____    ______ ____
ROOT
ATOM      1  C   UNL     1       1.431   7.996  20.259  0.00  0.00    +0.000 A 
ATOM      2  C   UNL     1       1.997   8.193  19.013  0.00  0.00    +0.000 A 
ATOM      3  C   UNL     1       2.920   7.290  18.526  0.00  0.00    +0.000 A 
ATOM      4  C   UNL     1       3.673   7.677  17.429  0.00  0.00    +0.000 A 
ATOM      5  C   UNL     1       4.642   6.828  16.920  0.00  0.00    +0.000 A 
ATOM      6  C   UNL     1       4.825   5.527  17.401  0.00  0.00    +0.000 A 
ATOM      7  C   UNL     1       4.042   5.158  18.521  0.00  0.00    +0.000 A 
ATOM      8  C   UNL     1       3.103   6.056  19.153  0.00  0.00    +0.000 A 
ATOM      9  C   UNL     1       2.324   5.849  20.311  0.00  0.00    +0.000 A 
ATOM     10  N   UNL     1       1.571   6.815  20.900  0.00  0.00    +0.000 NA
ENDROOT
BRANCH   1  14
ATOM     11  C   UNL     1      -0.721  11.225  22.188  0.00  0.00    +0.000 A 
ATOM     12  C   UNL     1      -0.359  10.073  22.905  0.00  0.00    +0.000 A 
ATOM     13  C   UNL     1       0.355   9.028  22.296  0.00  0.00    +0.000 A 
ATOM     14  C   UNL     1       0.697   9.086  20.943  0.00  0.00    +0.000 A 
ATOM     15  C   UNL     1       0.334  10.260  20.257  0.00  0.00    +0.000 A 
ATOM     16  C   UNL     1      -0.384  11.309  20.838  0.00  0.00    +0.000 A 
BRANCH  11  18
ATOM     17  C   UNL     1      -2.677  11.928  23.326  0.00  0.00    +0.000 C 
ATOM     18  O   UNL     1      -1.419  12.255  22.753  0.00  0.00    +0.000 OA
ENDBRANCH  11  18
BRANCH  16  19
ATOM     19  O   UNL     1      -0.644  12.291  19.922  0.00  0.00    +0.000 OA
ATOM     20  C   UNL     1      -1.810  12.208  19.125  0.00  0.00    +0.000 C 
ENDBRANCH  16  19
ENDBRANCH   1  14
BRANCH   6  21
ATOM     21  N   UNL     1       5.720   4.675  16.772  0.00  0.00    +0.000 N 
ATOM     22  C   UNL     1       7.098   4.509  17.211  0.00  0.00    +0.000 C 
ATOM     23  C   UNL     1       5.383   3.984  15.527  0.00  0.00    +0.000 C 
ENDBRANCH   6  21
BRANCH   9  24
ATOM     24  N   UNL     1       2.210   4.605  20.937  0.00  0.00    +0.000 N 
ATOM     25  H   UNL     1       1.277   4.401  21.261  0.00  0.00    +0.000 HD
ATOM     26  H   UNL     1       2.552   3.916  20.268  0.00  0.00    +0.000 HD
ENDBRANCH   9  24
TORSDOF 5
ENDMDL
