MODEL 1
REMARK VINA RESULT:      -7.3      0.000      0.000
REMARK  Name = 
REMARK  11 active torsions:
REMARK  status: ('A' for Active; 'I' for Inactive)
REMARK    1  A    between atoms: C_1  and  C_2
REMARK    2  A    between atoms: C_4  and  S_5
REMARK    3  A    between atoms: S_5  and  N_8
REMARK    4  A    between atoms: N_8  and  C_9
REMARK    5  A    between atoms: C_9  and  C_10
REMARK    6  A    between atoms: C_10  and  C_11
REMARK    7  A    between atoms: C_10  and  C_12
REMARK    8  A    between atoms: C_15  and  O_16
REMARK    9  A    between atoms: O_16  and  C_17
REMARK   10  A    between atoms: C_17  and  C_18
REMARK   11  A    between atoms: N_20  and  C_21
REMARK                            x       y       z     vdW  Elec       q    Type
REMARK                         _______ _______ _______ _____ _____    ______ ____
ROOT
ATOM      1  C   UNL     1       2.374   3.561  17.857  0.00  0.00    +0.000 C 
ATOM      2  C   UNL     1       3.374   4.626  17.492  0.00  0.00    +0.000 A 
ATOM      3  C   UNL     1       4.519   4.255  16.767  0.00  0.00    +0.000 A 
ATOM      4  C   UNL     1       5.489   5.204  16.437  0.00  0.00    +0.000 A 
ATOM      5  C   UNL     1       5.348   6.526  16.851  0.00  0.00    +0.000 A 
ATOM      6  C   UNL     1       4.211   6.903  17.572  0.00  0.00    +0.000 A 
ATOM      7  C   UNL     1       3.204   5.972  17.869  0.00  0.00    +0.000 A 
ENDROOT
BRANCH   4   8
ATOM      8  S   UNL     1       6.968   4.699  15.597  0.00  0.00    +0.000 S 
ATOM      9  O   UNL     1       7.388   5.807  14.768  0.00  0.00    +0.000 OA
ATOM     10  O   UNL     1       7.864   4.085  16.552  0.00  0.00    +0.000 OA
BRANCH   8  11
ATOM     11  N   UNL     1       6.435   3.502  14.538  0.00  0.00    +0.000 NA
ATOM     12  H   UNL     1       6.349   2.610  15.026  0.00  0.00    +0.000 HD
BRANCH  11  13
ATOM     13  C   UNL     1       5.378   3.852  13.579  0.00  0.00    +0.000 C 
BRANCH  13  14
ATOM     14  C   UNL     1       5.850   3.590  12.139  0.00  0.00    +0.000 C 
ATOM     15  C   UNL     1       7.289   4.082  11.965  0.00  0.00    +0.000 C 
ATOM     16  C   UNL     1       5.760   2.111  11.758  0.00  0.00    +0.000 C 
ENDBRANCH  13  14
ENDBRANCH  11  13
ENDBRANCH   8  11
ENDBRANCH   4   8
BRANCH   7  17
ATOM     17  O   UNL     1       2.041   6.295  18.529  0.00  0.00    +0.000 OA
BRANCH  17  18
ATOM     18  C   UNL     1       2.197   6.627  19.912  0.00  0.00    +0.000 C 
BRANCH  18  19
ATOM     19  C   UNL     1       1.722   8.034  20.258  0.00  0.00    +0.000 C 
ATOM     20  O   UNL     1       1.463   8.865  19.387  0.00  0.00    +0.000 OA
ATOM     21  N   UNL     1       1.612   8.278  21.611  0.00  0.00    +0.000 N 
ATOM     22  H   UNL     1       1.809   7.499  22.231  0.00  0.00    +0.000 HD
BRANCH  21  23
ATOM     23  C   UNL     1       1.041   9.473  22.138  0.00  0.00    +0.000 C 
ATOM     24  C   UNL     1      -0.446   9.685  22.054  0.00  0.00    +0.000 C 
ATOM     25  C   UNL     1       0.204   9.440  23.385  0.00  0.00    +0.000 C 
ENDBRANCH  21  23
ENDBRANCH  18  19
ENDBRANCH  17  18
ENDBRANCH   7  17
TORSDOF 8
ENDMDL
MODEL 2
REMARK VINA RESULT:      -7.3      4.034      6.123
REMARK  Name = 
REMARK  11 active torsions:
REMARK  status: ('A' for Active; 'I' for Inactive)
REMARK    1  A    between atoms: C_1  and  C_2
REMARK    2  A    between atoms: C_4  and  S_5
REMARK    3  A    between atoms: S_5  and  N_8
REMARK    4  A    between atoms: N_8  and  C_9
REMARK    5  A    between atoms: C_9  and  C_10
REMARK    6  A    between atoms: C_10  and  C_11
REMARK    7  A    between atoms: C_10  and  C_12
REMARK    8  A    between atoms: C_15  and  O_16
REMARK    9  A    between atoms: O_16  and  C_17
REMARK   10  A    between atoms: C_17  and  C_18
REMARK   11  A    between atoms: N_20  and  C_21
REMARK                            x       y       z     vdW  Elec       q    Type
REMARK                         _______ _______ _______ _____ _____    ______ ____
ROOT
ATOM      1  C   UNL     1       0.733   8.483  21.500  0.00  0.00    +0.000 C 
ATOM      2  C   UNL     1       1.353   8.479  20.128  0.00  0.00    +0.000 A 
ATOM      3  C   UNL     1       2.174   7.397  19.763  0.00  0.00    +0.000 A 
ATOM      4  C   UNL     1       2.798   7.369  18.513  0.00  0.00    +0.000 A 
ATOM      5  C   UNL     1       2.637   8.429  17.624  0.00  0.00    +0.000 A 
ATOM      6  C   UNL     1       1.823   9.508  17.980  0.00  0.00    +0.000 A 
ATOM      7  C   UNL     1       1.150   9.528  19.212  0.00  0.00    +0.000 A 
ENDROOT
BRANCH   4   8
ATOM      8  S   UNL     1       3.898   6.039  18.107  0.00  0.00    +0.000 S 
ATOM      9  O   UNL     1       4.583   6.408  16.888  0.00  0.00    +0.000 OA
ATOM     10  O   UNL     1       4.624   5.650  19.296  0.00  0.00    +0.000 OA
BRANCH   8  11
ATOM     11  N   UNL     1       2.861   4.777  17.693  0.00  0.00    +0.000 NA
ATOM     12  H   UNL     1       2.980   4.528  16.710  0.00  0.00    +0.000 HD
BRANCH  11  13
ATOM     13  C   UNL     1       2.698   3.678  18.654  0.00  0.00    +0.000 C 
BRANCH  13  14
ATOM     14  C   UNL     1       1.271   3.671  19.228  0.00  0.00    +0.000 C 
ATOM     15  C   UNL     1       0.580   2.349  18.887  0.00  0.00    +0.000 C 
ATOM     16  C   UNL     1       1.254   3.889  20.742  0.00  0.00    +0.000 C 
ENDBRANCH  13  14
ENDBRANCH  11  13
ENDBRANCH   8  11
ENDBRANCH   4   8
BRANCH   7  17
ATOM     17  O   UNL     1       0.294  10.536  19.594  0.00  0.00    +0.000 OA
BRANCH  17  18
ATOM     18  C   UNL     1      -0.381  11.200  18.522  0.00  0.00    +0.000 C 
BRANCH  18  19
ATOM     19  C   UNL     1      -1.612  10.452  18.021  0.00  0.00    +0.000 C 
ATOM     20  O   UNL     1      -2.382   9.879  18.792  0.00  0.00    +0.000 OA
ATOM     21  N   UNL     1      -1.775  10.482  16.652  0.00  0.00    +0.000 N 
ATOM     22  H   UNL     1      -1.100  11.028  16.126  0.00  0.00    +0.000 HD
BRANCH  21  23
ATOM     23  C   UNL     1      -2.939   9.979  16.000  0.00  0.00    +0.000 C 
ATOM     24  C   UNL     1      -3.847  10.927  15.265  0.00  0.00    +0.000 C 
ATOM     25  C   UNL     1      -3.021   9.934  14.500  0.00  0.00    +0.000 C 
ENDBRANCH  21  23
ENDBRANCH  18  19
ENDBRANCH  17  18
ENDBRANCH   7  17
TORSDOF 8
ENDMDL
MODEL 3
REMARK VINA RESULT:      -7.3      3.087      4.285
REMARK  Name = 
REMARK  11 active torsions:
REMARK  status: ('A' for Active; 'I' for Inactive)
REMARK    1  A    between atoms: C_1  and  C_2
REMARK    2  A    between atoms: C_4  and  S_5
REMARK    3  A    between atoms: S_5  and  N_8
REMARK    4  A    between atoms: N_8  and  C_9
REMARK    5  A    between atoms: C_9  and  C_10
REMARK    6  A    between atoms: C_10  and  C_11
REMARK    7  A    between atoms: C_10  and  C_12
REMARK    8  A    between atoms: C_15  and  O_16
REMARK    9  A    between atoms: O_16  and  C_17
REMARK   10  A    between atoms: C_17  and  C_18
REMARK   11  A    between atoms: N_20  and  C_21
REMARK                            x       y       z     vdW  Elec       q    Type
REMARK                         _______ _______ _______ _____ _____    ______ ____
ROOT
ATOM      1  C   UNL     1       2.294   8.805  17.691  0.00  0.00    +0.000 C 
ATOM      2  C   UNL     1       2.511   7.603  18.571  0.00  0.00    +0.000 A 
ATOM      3  C   UNL     1       3.287   6.539  18.080  0.00  0.00    +0.000 A 
ATOM      4  C   UNL     1       3.485   5.390  18.850  0.00  0.00    +0.000 A 
ATOM      5  C   UNL     1       2.889   5.273  20.103  0.00  0.00    +0.000 A 
ATOM      6  C   UNL     1       2.116   6.327  20.598  0.00  0.00    +0.000 A 
ATOM      7  C   UNL     1       1.948   7.507  19.859  0.00  0.00    +0.000 A 
ENDROOT
BRANCH   4   8
ATOM      8  S   UNL     1       4.395   4.024  18.177  0.00  0.00    +0.000 S 
ATOM      9  O   UNL     1       5.254   3.524  19.227  0.00  0.00    +0.000 OA
ATOM     10  O   UNL     1       3.481   3.156  17.468  0.00  0.00    +0.000 OA
BRANCH   8  11
ATOM     11  N   UNL     1       5.414   4.744  17.044  0.00  0.00    +0.000 NA
ATOM     12  H   UNL     1       5.086   5.684  16.820  0.00  0.00    +0.000 HD
BRANCH  11  13
ATOM     13  C   UNL     1       6.862   4.553  17.203  0.00  0.00    +0.000 C 
BRANCH  13  14
ATOM     14  C   UNL     1       7.520   5.837  17.736  0.00  0.00    +0.000 C 
ATOM     15  C   UNL     1       6.683   7.054  17.336  0.00  0.00    +0.000 C 
ATOM     16  C   UNL     1       7.699   5.809  19.255  0.00  0.00    +0.000 C 
ENDBRANCH  13  14
ENDBRANCH  11  13
ENDBRANCH   8  11
ENDBRANCH   4   8
BRANCH   7  17
ATOM     17  O   UNL     1       1.244   8.597  20.317  0.00  0.00    +0.000 OA
BRANCH  17  18
ATOM     18  C   UNL     1       0.334   8.328  21.387  0.00  0.00    +0.000 C 
BRANCH  18  19
ATOM     19  C   UNL     1       0.244   9.457  22.409  0.00  0.00    +0.000 C 
ATOM     20  O   UNL     1       1.140   9.663  23.228  0.00  0.00    +0.000 OA
ATOM     21  N   UNL     1      -0.910  10.207  22.325  0.00  0.00    +0.000 N 
ATOM     22  H   UNL     1      -1.553   9.970  21.576  0.00  0.00    +0.000 HD
BRANCH  21  23
ATOM     23  C   UNL     1      -1.116  11.397  23.083  0.00  0.00    +0.000 C 
ATOM     24  C   UNL     1      -1.260  12.715  22.371  0.00  0.00    +0.000 C 
ATOM     25  C   UNL     1      -2.443  12.101  23.062  0.00  0.00    +0.000 C 
ENDBRANCH  21  23
ENDBRANCH  18  19
ENDBRANCH  17  18
ENDBRANCH   7  17
TORSDOF 8
ENDMDL
MODEL 4
REMARK VINA RESULT:      -7.3      4.803      7.363
REMARK  Name = 
REMARK  11 active torsions:
REMARK  status: ('A' for Active; 'I' for Inactive)
REMARK    1  A    between atoms: C_1  and  C_2
REMARK    2  A    between atoms: C_4  and  S_5
REMARK    3  A    between atoms: S_5  and  N_8
REMARK    4  A    between atoms: N_8  and  C_9
REMARK    5  A    between atoms: C_9  and  C_10
REMARK    6  A    between atoms: C_10  and  C_11
REMARK    7  A    between atoms: C_10  and  C_12
REMARK    8  A    between atoms: C_15  and  O_16
REMARK    9  A    between atoms: O_16  and  C_17
REMARK   10  A    between atoms: C_17  and  C_18
REMARK   11  A    between atoms: N_20  and  C_21
REMARK                            x       y       z     vdW  Elec       q    Type
REMARK                         _______ _______ _______ _____ _____    ______ ____
ROOT
ATOM      1  C   UNL     1       8.326   5.540  20.038  0.00  0.00    +0.000 C 
ATOM      2  C   UNL     1       7.256   5.782  19.007  0.00  0.00    +0.000 A 
ATOM      3  C   UNL     1       6.187   4.874  18.920  0.00  0.00    +0.000 A 
ATOM      4  C   UNL     1       5.190   5.041  17.955  0.00  0.00    +0.000 A 
ATOM      5  C   UNL     1       5.262   6.094  17.046  0.00  0.00    +0.000 A 
ATOM      6  C   UNL     1       6.323   7.001  17.127  0.00  0.00    +0.000 A 
ATOM      7  C   UNL     1       7.305   6.875  18.121  0.00  0.00    +0.000 A 
ENDROOT
BRANCH   4   8
ATOM      8  S   UNL     1       3.897   3.837  17.805  0.00  0.00    +0.000 S 
ATOM      9  O   UNL     1       3.709   3.585  16.394  0.00  0.00    +0.000 OA
ATOM     10  O   UNL     1       4.146   2.762  18.740  0.00  0.00    +0.000 OA
BRANCH   8  11
ATOM     11  N   UNL     1       2.521   4.665  18.318  0.00  0.00    +0.000 NA
ATOM     12  H   UNL     1       2.343   5.466  17.711  0.00  0.00    +0.000 HD
BRANCH  11  13
ATOM     13  C   UNL     1       1.362   3.872  18.748  0.00  0.00    +0.000 C 
BRANCH  13  14
ATOM     14  C   UNL     1       1.056   4.128  20.234  0.00  0.00    +0.000 C 
ATOM     15  C   UNL     1       1.309   2.854  21.043  0.00  0.00    +0.000 C 
ATOM     16  C   UNL     1       1.887   5.278  20.808  0.00  0.00    +0.000 C 
ENDBRANCH  13  14
ENDBRANCH  11  13
ENDBRANCH   8  11
ENDBRANCH   4   8
BRANCH   7  17
ATOM     17  O   UNL     1       8.341   7.766  18.283  0.00  0.00    +0.000 OA
BRANCH  17  18
ATOM     18  C   UNL     1       8.053   9.113  17.896  0.00  0.00    +0.000 C 
BRANCH  18  19
ATOM     19  C   UNL     1       8.938  10.147  18.582  0.00  0.00    +0.000 C 
ATOM     20  O   UNL     1       9.318  10.007  19.745  0.00  0.00    +0.000 OA
ATOM     21  N   UNL     1       9.267  11.227  17.791  0.00  0.00    +0.000 N 
ATOM     22  H   UNL     1       8.932  11.207  16.833  0.00  0.00    +0.000 HD
BRANCH  21  23
ATOM     23  C   UNL     1      10.206  12.222  18.190  0.00  0.00    +0.000 C 
ATOM     24  C   UNL     1      10.977  12.978  17.142  0.00  0.00    +0.000 C 
ATOM     25  C   UNL     1       9.929  13.680  17.955  0.00  0.00    +0.000 C 
ENDBRANCH  21  23
ENDBRANCH  18  19
ENDBRANCH  17  18
ENDBRANCH   7  17
TORSDOF 8
ENDMDL
MODEL 5
REMARK VINA RESULT:      -7.2      3.113      4.446
REMARK  Name = 
REMARK  11 active torsions:
REMARK  status: ('A' for Active; 'I' for Inactive)
REMARK    1  A    between atoms: C_1  and  C_2
REMARK    2  A    between atoms: C_4  and  S_5
REMARK    3  A    between atoms: S_5  and  N_8
REMARK    4  A    between atoms: N_8  and  C_9
REMARK    5  A    between atoms: C_9  and  C_10
REMARK    6  A    between atoms: C_10  and  C_11
REMARK    7  A    between atoms: C_10  and  C_12
REMARK    8  A    between atoms: C_15  and  O_16
REMARK    9  A    between atoms: O_16  and  C_17
REMARK   10  A    between atoms: C_17  and  C_18
REMARK   11  A    between atoms: N_20  and  C_21
REMARK                            x       y       z     vdW  Elec       q    Type
REMARK                         _______ _______ _______ _____ _____    ______ ____
ROOT
ATOM      1  C   UNL     1       2.383   8.723  17.843  0.00  0.00    +0.000 C 
ATOM      2  C   UNL     1       2.459   7.482  18.691  0.00  0.00    +0.000 A 
ATOM      3  C   UNL     1       3.150   6.365  18.190  0.00  0.00    +0.000 A 
ATOM      4  C   UNL     1       3.216   5.181  18.929  0.00  0.00    +0.000 A 
ATOM      5  C   UNL     1       2.570   5.083  20.159  0.00  0.00    +0.000 A 
ATOM      6  C   UNL     1       1.881   6.190  20.663  0.00  0.00    +0.000 A 
ATOM      7  C   UNL     1       1.847   7.402  19.957  0.00  0.00    +0.000 A 
ENDROOT
BRANCH   4   8
ATOM      8  S   UNL     1       4.018   3.756  18.241  0.00  0.00    +0.000 S 
ATOM      9  O   UNL     1       3.507   2.599  18.940  0.00  0.00    +0.000 OA
ATOM     10  O   UNL     1       3.980   3.847  16.798  0.00  0.00    +0.000 OA
BRANCH   8  11
ATOM     11  N   UNL     1       5.621   3.926  18.732  0.00  0.00    +0.000 NA
ATOM     12  H   UNL     1       6.223   3.296  18.200  0.00  0.00    +0.000 HD
BRANCH  11  13
ATOM     13  C   UNL     1       6.122   5.283  18.988  0.00  0.00    +0.000 C 
BRANCH  13  14
ATOM     14  C   UNL     1       7.411   5.541  18.190  0.00  0.00    +0.000 C 
ATOM     15  C   UNL     1       7.427   4.670  16.932  0.00  0.00    +0.000 C 
ATOM     16  C   UNL     1       7.570   7.013  17.803  0.00  0.00    +0.000 C 
ENDBRANCH  13  14
ENDBRANCH  11  13
ENDBRANCH   8  11
ENDBRANCH   4   8
BRANCH   7  17
ATOM     17  O   UNL     1       1.231   8.539  20.427  0.00  0.00    +0.000 OA
BRANCH  17  18
ATOM     18  C   UNL     1       1.383   8.778  21.829  0.00  0.00    +0.000 C 
BRANCH  18  19
ATOM     19  C   UNL     1       0.321   9.708  22.407  0.00  0.00    +0.000 C 
ATOM     20  O   UNL     1       0.122   9.792  23.619  0.00  0.00    +0.000 OA
ATOM     21  N   UNL     1      -0.375  10.431  21.462  0.00  0.00    +0.000 N 
ATOM     22  H   UNL     1      -0.088  10.311  20.496  0.00  0.00    +0.000 HD
BRANCH  21  23
ATOM     23  C   UNL     1      -1.296  11.464  21.801  0.00  0.00    +0.000 C 
ATOM     24  C   UNL     1      -0.846  12.899  21.773  0.00  0.00    +0.000 C 
ATOM     25  C   UNL     1      -1.824  12.399  20.750  0.00  0.00    +0.000 C 
ENDBRANCH  21  23
ENDBRANCH  18  19
ENDBRANCH  17  18
ENDBRANCH   7  17
TORSDOF 8
ENDMDL
MODEL 6
REMARK VINA RESULT:      -7.2      3.703      5.239
REMARK  Name = 
REMARK  11 active torsions:
REMARK  status: ('A' for Active; 'I' for Inactive)
REMARK    1  A    between atoms: C_1  and  C_2
REMARK    2  A    between atoms: C_4  and  S_5
REMARK    3  A    between atoms: S_5  and  N_8
REMARK    4  A    between atoms: N_8  and  C_9
REMARK    5  A    between atoms: C_9  and  C_10
REMARK    6  A    between atoms: C_10  and  C_11
REMARK    7  A    between atoms: C_10  and  C_12
REMARK    8  A    between atoms: C_15  and  O_16
REMARK    9  A    between atoms: O_16  and  C_17
REMARK   10  A    between atoms: C_17  and  C_18
REMARK   11  A    between atoms: N_20  and  C_21
REMARK                            x       y       z     vdW  Elec       q    Type
REMARK                         _______ _______ _______ _____ _____    ______ ____
ROOT
ATOM      1  C   UNL     1       0.927   8.736  21.804  0.00  0.00    +0.000 C 
ATOM      2  C   UNL     1       1.436   8.360  20.439  0.00  0.00    +0.000 A 
ATOM      3  C   UNL     1       2.120   7.141  20.286  0.00  0.00    +0.000 A 
ATOM      4  C   UNL     1       2.640   6.770  19.044  0.00  0.00    +0.000 A 
ATOM      5  C   UNL     1       2.514   7.618  17.947  0.00  0.00    +0.000 A 
ATOM      6  C   UNL     1       1.835   8.832  18.091  0.00  0.00    +0.000 A 
ATOM      7  C   UNL     1       1.265   9.197  19.320  0.00  0.00    +0.000 A 
ENDROOT
BRANCH   4   8
ATOM      8  S   UNL     1       3.574   5.269  18.892  0.00  0.00    +0.000 S 
ATOM      9  O   UNL     1       4.886   5.525  19.444  0.00  0.00    +0.000 OA
ATOM     10  O   UNL     1       2.763   4.163  19.349  0.00  0.00    +0.000 OA
BRANCH   8  11
ATOM     11  N   UNL     1       3.793   5.103  17.230  0.00  0.00    +0.000 NA
ATOM     12  H   UNL     1       3.867   6.021  16.789  0.00  0.00    +0.000 HD
BRANCH  11  13
ATOM     13  C   UNL     1       4.702   4.051  16.757  0.00  0.00    +0.000 C 
BRANCH  13  14
ATOM     14  C   UNL     1       5.873   4.664  15.971  0.00  0.00    +0.000 C 
ATOM     15  C   UNL     1       7.160   4.566  16.794  0.00  0.00    +0.000 C 
ATOM     16  C   UNL     1       6.076   3.990  14.612  0.00  0.00    +0.000 C 
ENDBRANCH  13  14
ENDBRANCH  11  13
ENDBRANCH   8  11
ENDBRANCH   4   8
BRANCH   7  17
ATOM     17  O   UNL     1       0.541  10.352  19.508  0.00  0.00    +0.000 OA
BRANCH  17  18
ATOM     18  C   UNL     1      -0.868  10.230  19.291  0.00  0.00    +0.000 C 
BRANCH  18  19
ATOM     19  C   UNL     1      -1.385  11.087  18.140  0.00  0.00    +0.000 C 
ATOM     20  O   UNL     1      -1.097  12.280  18.040  0.00  0.00    +0.000 OA
ATOM     21  N   UNL     1      -2.183  10.410  17.243  0.00  0.00    +0.000 N 
ATOM     22  H   UNL     1      -2.309   9.416  17.407  0.00  0.00    +0.000 HD
BRANCH  21  23
ATOM     23  C   UNL     1      -2.637  10.987  16.021  0.00  0.00    +0.000 C 
ATOM     24  C   UNL     1      -2.865  10.106  14.823  0.00  0.00    +0.000 C 
ATOM     25  C   UNL     1      -4.032  10.738  15.524  0.00  0.00    +0.000 C 
ENDBRANCH  21  23
ENDBRANCH  18  19
ENDBRANCH  17  18
ENDBRANCH   7  17
TORSDOF 8
ENDMDL
MODEL 7
REMARK VINA RESULT:      -7.1      1.477      1.742
REMARK  Name = 
REMARK  11 active torsions:
REMARK  status: ('A' for Active; 'I' for Inactive)
REMARK    1  A    between atoms: C_1  and  C_2
REMARK    2  A    between atoms: C_4  and  S_5
REMARK    3  A    between atoms: S_5  and  N_8
REMARK    4  A    between atoms: N_8  and  C_9
REMARK    5  A    between atoms: C_9  and  C_10
REMARK    6  A    between atoms: C_10  and  C_11
REMARK    7  A    between atoms: C_10  and  C_12
REMARK    8  A    between atoms: C_15  and  O_16
REMARK    9  A    between atoms: O_16  and  C_17
REMARK   10  A    between atoms: C_17  and  C_18
REMARK   11  A    between atoms: N_20  and  C_21
REMARK                            x       y       z     vdW  Elec       q    Type
REMARK                         _______ _______ _______ _____ _____    ______ ____
ROOT
ATOM      1  C   UNL     1       2.284   4.592  18.047  0.00  0.00    +0.000 C 
ATOM      2  C   UNL     1       3.458   5.441  17.641  0.00  0.00    +0.000 A 
ATOM      3  C   UNL     1       4.541   4.828  16.988  0.00  0.00    +0.000 A 
ATOM      4  C   UNL     1       5.666   5.572  16.625  0.00  0.00    +0.000 A 
ATOM      5  C   UNL     1       5.741   6.928  16.935  0.00  0.00    +0.000 A 
ATOM      6  C   UNL     1       4.668   7.546  17.584  0.00  0.00    +0.000 A 
ATOM      7  C   UNL     1       3.511   6.823  17.911  0.00  0.00    +0.000 A 
ENDROOT
BRANCH   4   8
ATOM      8  S   UNL     1       7.057   4.762  15.880  0.00  0.00    +0.000 S 
ATOM      9  O   UNL     1       7.645   5.695  14.945  0.00  0.00    +0.000 OA
ATOM     10  O   UNL     1       7.844   4.132  16.917  0.00  0.00    +0.000 OA
BRANCH   8  11
ATOM     11  N   UNL     1       6.357   3.547  14.946  0.00  0.00    +0.000 NA
ATOM     12  H   UNL     1       6.018   2.792  15.543  0.00  0.00    +0.000 HD
BRANCH  11  13
ATOM     13  C   UNL     1       5.506   3.951  13.818  0.00  0.00    +0.000 C 
BRANCH  13  14
ATOM     14  C   UNL     1       5.999   3.303  12.513  0.00  0.00    +0.000 C 
ATOM     15  C   UNL     1       4.822   3.102  11.556  0.00  0.00    +0.000 C 
ATOM     16  C   UNL     1       7.087   4.133  11.828  0.00  0.00    +0.000 C 
ENDBRANCH  13  14
ENDBRANCH  11  13
ENDBRANCH   8  11
ENDBRANCH   4   8
BRANCH   7  17
ATOM     17  O   UNL     1       2.404   7.387  18.502  0.00  0.00    +0.000 OA
BRANCH  17  18
ATOM     18  C   UNL     1       1.677   8.306  17.681  0.00  0.00    +0.000 C 
BRANCH  18  19
ATOM     19  C   UNL     1       1.530   9.692  18.300  0.00  0.00    +0.000 C 
ATOM     20  O   UNL     1       2.201  10.650  17.914  0.00  0.00    +0.000 OA
ATOM     21  N   UNL     1       0.592   9.766  19.308  0.00  0.00    +0.000 N 
ATOM     22  H   UNL     1       0.069   8.919  19.504  0.00  0.00    +0.000 HD
BRANCH  21  23
ATOM     23  C   UNL     1       0.195  10.998  19.906  0.00  0.00    +0.000 C 
ATOM     24  C   UNL     1      -0.341  11.001  21.312  0.00  0.00    +0.000 C 
ATOM     25  C   UNL     1       1.000  11.607  21.019  0.00  0.00    +0.000 C 
ENDBRANCH  21  23
ENDBRANCH  18  19
ENDBRANCH  17  18
ENDBRANCH   7  17
TORSDOF 8
ENDMDL
MODEL 8
REMARK VINA RESULT:      -7.1      2.502      3.827
REMARK  Name = 
REMARK  11 active torsions:
REMARK  status: ('A' for Active; 'I' for Inactive)
REMARK    1  A    between atoms: C_1  and  C_2
REMARK    2  A    between atoms: C_4  and  S_5
REMARK    3  A    between atoms: S_5  and  N_8
REMARK    4  A    between atoms: N_8  and  C_9
REMARK    5  A    between atoms: C_9  and  C_10
REMARK    6  A    between atoms: C_10  and  C_11
REMARK    7  A    between atoms: C_10  and  C_12
REMARK    8  A    between atoms: C_15  and  O_16
REMARK    9  A    between atoms: O_16  and  C_17
REMARK   10  A    between atoms: C_17  and  C_18
REMARK   11  A    between atoms: N_20  and  C_21
REMARK                            x       y       z     vdW  Elec       q    Type
REMARK                         _______ _______ _______ _____ _____    ______ ____
ROOT
ATOM      1  C   UNL     1       2.595   8.424  17.808  0.00  0.00    +0.000 C 
ATOM      2  C   UNL     1       2.619   7.231  18.726  0.00  0.00    +0.000 A 
ATOM      3  C   UNL     1       3.344   6.093  18.334  0.00  0.00    +0.000 A 
ATOM      4  C   UNL     1       3.364   4.952  19.139  0.00  0.00    +0.000 A 
ATOM      5  C   UNL     1       2.638   4.917  20.327  0.00  0.00    +0.000 A 
ATOM      6  C   UNL     1       1.914   6.046  20.724  0.00  0.00    +0.000 A 
ATOM      7  C   UNL     1       1.924   7.217  19.951  0.00  0.00    +0.000 A 
ENDROOT
BRANCH   4   8
ATOM      8  S   UNL     1       4.214   3.496  18.586  0.00  0.00    +0.000 S 
ATOM      9  O   UNL     1       4.894   2.936  19.732  0.00  0.00    +0.000 OA
ATOM     10  O   UNL     1       3.312   2.705  17.779  0.00  0.00    +0.000 OA
BRANCH   8  11
ATOM     11  N   UNL     1       5.421   4.100  17.577  0.00  0.00    +0.000 NA
ATOM     12  H   UNL     1       6.284   4.243  18.103  0.00  0.00    +0.000 HD
BRANCH  11  13
ATOM     13  C   UNL     1       5.538   3.532  16.228  0.00  0.00    +0.000 C 
BRANCH  13  14
ATOM     14  C   UNL     1       6.098   4.578  15.249  0.00  0.00    +0.000 C 
ATOM     15  C   UNL     1       6.003   4.052  13.815  0.00  0.00    +0.000 C 
ATOM     16  C   UNL     1       5.372   5.921  15.356  0.00  0.00    +0.000 C 
ENDBRANCH  13  14
ENDBRANCH  11  13
ENDBRANCH   8  11
ENDBRANCH   4   8
BRANCH   7  17
ATOM     17  O   UNL     1       1.275   8.374  20.316  0.00  0.00    +0.000 OA
BRANCH  17  18
ATOM     18  C   UNL     1       1.206   8.615  21.724  0.00  0.00    +0.000 C 
BRANCH  18  19
ATOM     19  C   UNL     1       0.303   9.786  22.099  0.00  0.00    +0.000 C 
ATOM     20  O   UNL     1       0.160  10.146  23.267  0.00  0.00    +0.000 OA
ATOM     21  N   UNL     1      -0.320  10.387  21.026  0.00  0.00    +0.000 N 
ATOM     22  H   UNL     1      -0.086  10.029  20.105  0.00  0.00    +0.000 HD
BRANCH  21  23
ATOM     23  C   UNL     1      -1.078  11.588  21.145  0.00  0.00    +0.000 C 
ATOM     24  C   UNL     1      -0.618  12.830  20.432  0.00  0.00    +0.000 C 
ATOM     25  C   UNL     1      -1.861  12.122  19.979  0.00  0.00    +0.000 C 
ENDBRANCH  21  23
ENDBRANCH  18  19
ENDBRANCH  17  18
ENDBRANCH   7  17
TORSDOF 8
ENDMDL
MODEL 9
REMARK VINA RESULT:      -7.1      2.150      8.603
REMARK  Name = 
REMARK  11 active torsions:
REMARK  status: ('A' for Active; 'I' for Inactive)
REMARK    1  A    between atoms: C_1  and  C_2
REMARK    2  A    between atoms: C_4  and  S_5
REMARK    3  A    between atoms: S_5  and  N_8
REMARK    4  A    between atoms: N_8  and  C_9
REMARK    5  A    between atoms: C_9  and  C_10
REMARK    6  A    between atoms: C_10  and  C_11
REMARK    7  A    between atoms: C_10  and  C_12
REMARK    8  A    between atoms: C_15  and  O_16
REMARK    9  A    between atoms: O_16  and  C_17
REMARK   10  A    between atoms: C_17  and  C_18
REMARK   11  A    between atoms: N_20  and  C_21
REMARK                            x       y       z     vdW  Elec       q    Type
REMARK                         _______ _______ _______ _____ _____    ______ ____
ROOT
ATOM      1  C   UNL     1       4.726   6.998  16.119  0.00  0.00    +0.000 C 
ATOM      2  C   UNL     1       4.755   6.086  17.315  0.00  0.00    +0.000 A 
ATOM      3  C   UNL     1       3.603   5.985  18.114  0.00  0.00    +0.000 A 
ATOM      4  C   UNL     1       3.598   5.176  19.254  0.00  0.00    +0.000 A 
ATOM      5  C   UNL     1       4.746   4.484  19.630  0.00  0.00    +0.000 A 
ATOM      6  C   UNL     1       5.896   4.579  18.840  0.00  0.00    +0.000 A 
ATOM      7  C   UNL     1       5.903   5.348  17.666  0.00  0.00    +0.000 A 
ENDROOT
BRANCH   4   8
ATOM      8  S   UNL     1       2.163   5.131  20.296  0.00  0.00    +0.000 S 
ATOM      9  O   UNL     1       1.012   4.987  19.433  0.00  0.00    +0.000 OA
ATOM     10  O   UNL     1       2.407   4.218  21.391  0.00  0.00    +0.000 OA
BRANCH   8  11
ATOM     11  N   UNL     1       2.080   6.691  20.926  0.00  0.00    +0.000 NA
ATOM     12  H   UNL     1       2.923   6.902  21.462  0.00  0.00    +0.000 HD
BRANCH  11  13
ATOM     13  C   UNL     1       1.542   7.753  20.065  0.00  0.00    +0.000 C 
BRANCH  13  14
ATOM     14  C   UNL     1       0.982   8.905  20.917  0.00  0.00    +0.000 C 
ATOM     15  C   UNL     1       0.664  10.105  20.022  0.00  0.00    +0.000 C 
ATOM     16  C   UNL     1      -0.268   8.496  21.697  0.00  0.00    +0.000 C 
ENDBRANCH  13  14
ENDBRANCH  11  13
ENDBRANCH   8  11
ENDBRANCH   4   8
BRANCH   7  17
ATOM     17  O   UNL     1       6.986   5.436  16.822  0.00  0.00    +0.000 OA
BRANCH  17  18
ATOM     18  C   UNL     1       7.222   4.282  16.011  0.00  0.00    +0.000 C 
BRANCH  18  19
ATOM     19  C   UNL     1       7.063   4.543  14.517  0.00  0.00    +0.000 C 
ATOM     20  O   UNL     1       7.607   5.499  13.964  0.00  0.00    +0.000 OA
ATOM     21  N   UNL     1       6.270   3.625  13.863  0.00  0.00    +0.000 N 
ATOM     22  H   UNL     1       5.914   2.853  14.418  0.00  0.00    +0.000 HD
BRANCH  21  23
ATOM     23  C   UNL     1       6.121   3.601  12.445  0.00  0.00    +0.000 C 
ATOM     24  C   UNL     1       5.878   2.292  11.746  0.00  0.00    +0.000 C 
ATOM     25  C   UNL     1       4.786   3.318  11.816  0.00  0.00    +0.000 C 
ENDBRANCH  21  23
ENDBRANCH  18  19
ENDBRANCH  17  18
ENDBRANCH   7  17
TORSDOF 8
ENDMDL
