MODEL 1
REMARK VINA RESULT:      -7.4      0.000      0.000
REMARK  Name = 
REMARK  6 active torsions:
REMARK  status: ('A' for Active; 'I' for Inactive)
REMARK    1  A    between atoms: C_1  and  C_2
REMARK    2  A    between atoms: C_2  and  S_3
REMARK    3  A    between atoms: C_2  and  C_12
REMARK    4  A    between atoms: S_3  and  C_4
REMARK    5  A    between atoms: C_4  and  C_5
REMARK    6  A    between atoms: C_5  and  C_6
REMARK                            x       y       z     vdW  Elec       q    Type
REMARK                         _______ _______ _______ _____ _____    ______ ____
ROOT
ATOM      1  S   UNL     1       4.071   6.076  17.887  0.00  0.00    +0.000 S 
ENDROOT
BRANCH   1   3
ATOM      2  C   UNL     1       3.812   3.623  16.597  0.00  0.00    +0.000 C 
ATOM      3  C   UNL     1       3.988   4.242  17.984  0.00  0.00    +0.000 C 
BRANCH   3   4
ATOM      4  C   UNL     1       3.033   3.763  19.053  0.00  0.00    +0.000 A 
ATOM      5  C   UNL     1       3.527   3.061  20.163  0.00  0.00    +0.000 A 
ATOM      6  F   UNL     1       4.840   2.803  20.259  0.00  0.00    +0.000 F 
ATOM      7  C   UNL     1       2.691   2.608  21.181  0.00  0.00    +0.000 A 
ATOM      8  C   UNL     1       1.320   2.844  21.112  0.00  0.00    +0.000 A 
ATOM      9  C   UNL     1       0.801   3.533  20.019  0.00  0.00    +0.000 A 
ATOM     10  C   UNL     1       1.653   3.982  19.011  0.00  0.00    +0.000 A 
ATOM     11  F   UNL     1       1.096   4.649  17.990  0.00  0.00    +0.000 F 
ENDBRANCH   3   4
ENDBRANCH   1   3
BRANCH   1  12
ATOM     12  C   UNL     1       4.972   6.330  16.317  0.00  0.00    +0.000 C 
BRANCH  12  13
ATOM     13  C   UNL     1       6.443   6.018  16.561  0.00  0.00    +0.000 C 
BRANCH  13  14
ATOM     14  C   UNL     1       7.120   7.070  17.406  0.00  0.00    +0.000 C 
ATOM     15  O   UNL     1       7.163   8.265  17.099  0.00  0.00    +0.000 OA
ATOM     16  N   UNL     1       7.718   6.661  18.581  0.00  0.00    +0.000 N 
ATOM     17  C   UNL     1       7.766   5.401  19.122  0.00  0.00    +0.000 C 
ATOM     18  N   UNL     1       8.480   5.332  20.277  0.00  0.00    +0.000 N 
ATOM     19  O   UNL     1       7.265   4.385  18.662  0.00  0.00    +0.000 OA
ATOM     20  H   UNL     1       8.169   7.406  19.085  0.00  0.00    +0.000 HD
ATOM     21  H   UNL     1       8.730   6.138  20.830  0.00  0.00    +0.000 HD
ATOM     22  H   UNL     1       8.467   4.431  20.739  0.00  0.00    +0.000 HD
ENDBRANCH  13  14
ENDBRANCH  12  13
ENDBRANCH   1  12
TORSDOF 5
ENDMDL
MODEL 2
REMARK VINA RESULT:      -7.3      1.908      2.672
REMARK  Name = 
REMARK  6 active torsions:
REMARK  status: ('A' for Active; 'I' for Inactive)
REMARK    1  A    between atoms: C_1  and  C_2
REMARK    2  A    between atoms: C_2  and  S_3
REMARK    3  A    between atoms: C_2  and  C_12
REMARK    4  A    between atoms: S_3  and  C_4
REMARK    5  A    between atoms: C_4  and  C_5
REMARK    6  A    between atoms: C_5  and  C_6
REMARK                            x       y       z     vdW  Elec       q    Type
REMARK                         _______ _______ _______ _____ _____    ______ ____
ROOT
ATOM      1  S   UNL     1       4.599   5.816  18.564  0.00  0.00    +0.000 S 
ENDROOT
BRANCH   1   3
ATOM      2  C   UNL     1       3.957   3.575  17.043  0.00  0.00    +0.000 C 
ATOM      3  C   UNL     1       4.200   4.023  18.485  0.00  0.00    +0.000 C 
BRANCH   3   4
ATOM      4  C   UNL     1       3.148   3.621  19.493  0.00  0.00    +0.000 A 
ATOM      5  C   UNL     1       3.484   2.746  20.536  0.00  0.00    +0.000 A 
ATOM      6  F   UNL     1       4.731   2.257  20.622  0.00  0.00    +0.000 F 
ATOM      7  C   UNL     1       2.556   2.352  21.497  0.00  0.00    +0.000 A 
ATOM      8  C   UNL     1       1.249   2.827  21.436  0.00  0.00    +0.000 A 
ATOM      9  C   UNL     1       0.884   3.692  20.409  0.00  0.00    +0.000 A 
ATOM     10  C   UNL     1       1.827   4.078  19.456  0.00  0.00    +0.000 A 
ATOM     11  F   UNL     1       1.421   4.922  18.498  0.00  0.00    +0.000 F 
ENDBRANCH   3   4
ENDBRANCH   1   3
BRANCH   1  12
ATOM     12  C   UNL     1       6.376   5.788  18.991  0.00  0.00    +0.000 C 
BRANCH  12  13
ATOM     13  C   UNL     1       7.172   5.994  17.709  0.00  0.00    +0.000 C 
BRANCH  13  14
ATOM     14  C   UNL     1       7.763   4.705  17.187  0.00  0.00    +0.000 C 
ATOM     15  O   UNL     1       8.514   3.984  17.851  0.00  0.00    +0.000 OA
ATOM     16  N   UNL     1       7.438   4.326  15.900  0.00  0.00    +0.000 N 
ATOM     17  C   UNL     1       6.609   4.957  15.007  0.00  0.00    +0.000 C 
ATOM     18  N   UNL     1       6.541   4.338  13.799  0.00  0.00    +0.000 N 
ATOM     19  O   UNL     1       5.979   5.988  15.192  0.00  0.00    +0.000 OA
ATOM     20  H   UNL     1       7.881   3.471  15.608  0.00  0.00    +0.000 HD
ATOM     21  H   UNL     1       6.842   3.388  13.637  0.00  0.00    +0.000 HD
ATOM     22  H   UNL     1       5.877   4.737  13.146  0.00  0.00    +0.000 HD
ENDBRANCH  13  14
ENDBRANCH  12  13
ENDBRANCH   1  12
TORSDOF 5
ENDMDL
MODEL 3
REMARK VINA RESULT:      -7.3      1.571      2.845
REMARK  Name = 
REMARK  6 active torsions:
REMARK  status: ('A' for Active; 'I' for Inactive)
REMARK    1  A    between atoms: C_1  and  C_2
REMARK    2  A    between atoms: C_2  and  S_3
REMARK    3  A    between atoms: C_2  and  C_12
REMARK    4  A    between atoms: S_3  and  C_4
REMARK    5  A    between atoms: C_4  and  C_5
REMARK    6  A    between atoms: C_5  and  C_6
REMARK                            x       y       z     vdW  Elec       q    Type
REMARK                         _______ _______ _______ _____ _____    ______ ____
ROOT
ATOM      1  S   UNL     1       4.804   5.661  18.363  0.00  0.00    +0.000 S 
ENDROOT
BRANCH   1   3
ATOM      2  C   UNL     1       3.756   3.587  16.830  0.00  0.00    +0.000 C 
ATOM      3  C   UNL     1       4.187   3.933  18.256  0.00  0.00    +0.000 C 
BRANCH   3   4
ATOM      4  C   UNL     1       3.197   3.604  19.349  0.00  0.00    +0.000 A 
ATOM      5  C   UNL     1       1.905   4.148  19.303  0.00  0.00    +0.000 A 
ATOM      6  F   UNL     1       1.562   4.971  18.300  0.00  0.00    +0.000 F 
ATOM      7  C   UNL     1       0.951   3.868  20.279  0.00  0.00    +0.000 A 
ATOM      8  C   UNL     1       1.270   3.029  21.343  0.00  0.00    +0.000 A 
ATOM      9  C   UNL     1       2.547   2.479  21.418  0.00  0.00    +0.000 A 
ATOM     10  C   UNL     1       3.489   2.768  20.431  0.00  0.00    +0.000 A 
ATOM     11  F   UNL     1       4.697   2.200  20.552  0.00  0.00    +0.000 F 
ENDBRANCH   3   4
ENDBRANCH   1   3
BRANCH   1  12
ATOM     12  C   UNL     1       6.313   5.461  19.376  0.00  0.00    +0.000 C 
BRANCH  12  13
ATOM     13  C   UNL     1       7.509   5.406  18.435  0.00  0.00    +0.000 C 
BRANCH  13  14
ATOM     14  C   UNL     1       7.541   6.575  17.479  0.00  0.00    +0.000 C 
ATOM     15  O   UNL     1       7.726   7.742  17.836  0.00  0.00    +0.000 OA
ATOM     16  N   UNL     1       7.351   6.310  16.137  0.00  0.00    +0.000 N 
ATOM     17  C   UNL     1       7.158   5.098  15.524  0.00  0.00    +0.000 C 
ATOM     18  N   UNL     1       6.956   5.193  14.183  0.00  0.00    +0.000 N 
ATOM     19  O   UNL     1       7.130   4.000  16.061  0.00  0.00    +0.000 OA
ATOM     20  H   UNL     1       7.363   7.132  15.558  0.00  0.00    +0.000 HD
ATOM     21  H   UNL     1       7.179   6.013  13.640  0.00  0.00    +0.000 HD
ATOM     22  H   UNL     1       6.888   4.309  13.693  0.00  0.00    +0.000 HD
ENDBRANCH  13  14
ENDBRANCH  12  13
ENDBRANCH   1  12
TORSDOF 5
ENDMDL
MODEL 4
REMARK VINA RESULT:      -7.3      0.182      1.894
REMARK  Name = 
REMARK  6 active torsions:
REMARK  status: ('A' for Active; 'I' for Inactive)
REMARK    1  A    between atoms: C_1  and  C_2
REMARK    2  A    between atoms: C_2  and  S_3
REMARK    3  A    between atoms: C_2  and  C_12
REMARK    4  A    between atoms: S_3  and  C_4
REMARK    5  A    between atoms: C_4  and  C_5
REMARK    6  A    between atoms: C_5  and  C_6
REMARK                            x       y       z     vdW  Elec       q    Type
REMARK                         _______ _______ _______ _____ _____    ______ ____
ROOT
ATOM      1  S   UNL     1       4.331   5.943  17.963  0.00  0.00    +0.000 S 
ENDROOT
BRANCH   1   3
ATOM      2  C   UNL     1       3.723   3.586  16.612  0.00  0.00    +0.000 C 
ATOM      3  C   UNL     1       4.038   4.129  18.007  0.00  0.00    +0.000 C 
BRANCH   3   4
ATOM      4  C   UNL     1       3.087   3.724  19.109  0.00  0.00    +0.000 A 
ATOM      5  C   UNL     1       1.745   4.126  19.052  0.00  0.00    +0.000 A 
ATOM      6  F   UNL     1       1.318   4.884  18.030  0.00  0.00    +0.000 F 
ATOM      7  C   UNL     1       0.825   3.770  20.037  0.00  0.00    +0.000 A 
ATOM      8  C   UNL     1       1.231   2.996  21.120  0.00  0.00    +0.000 A 
ATOM      9  C   UNL     1       2.559   2.587  21.206  0.00  0.00    +0.000 A 
ATOM     10  C   UNL     1       3.466   2.950  20.211  0.00  0.00    +0.000 A 
ATOM     11  F   UNL     1       4.727   2.516  20.342  0.00  0.00    +0.000 F 
ENDBRANCH   3   4
ENDBRANCH   1   3
BRANCH   1  12
ATOM     12  C   UNL     1       5.101   6.162  16.319  0.00  0.00    +0.000 C 
BRANCH  12  13
ATOM     13  C   UNL     1       6.607   5.996  16.478  0.00  0.00    +0.000 C 
BRANCH  13  14
ATOM     14  C   UNL     1       7.212   7.062  17.360  0.00  0.00    +0.000 C 
ATOM     15  O   UNL     1       7.220   8.262  17.068  0.00  0.00    +0.000 OA
ATOM     16  N   UNL     1       7.781   6.661  18.552  0.00  0.00    +0.000 N 
ATOM     17  C   UNL     1       7.858   5.397  19.080  0.00  0.00    +0.000 C 
ATOM     18  N   UNL     1       8.530   5.341  20.260  0.00  0.00    +0.000 N 
ATOM     19  O   UNL     1       7.413   4.369  18.591  0.00  0.00    +0.000 OA
ATOM     20  H   UNL     1       8.184   7.416  19.081  0.00  0.00    +0.000 HD
ATOM     21  H   UNL     1       8.729   6.149  20.831  0.00  0.00    +0.000 HD
ATOM     22  H   UNL     1       8.535   4.435  20.712  0.00  0.00    +0.000 HD
ENDBRANCH  13  14
ENDBRANCH  12  13
ENDBRANCH   1  12
TORSDOF 5
ENDMDL
MODEL 5
REMARK VINA RESULT:      -7.3      2.202      2.632
REMARK  Name = 
REMARK  6 active torsions:
REMARK  status: ('A' for Active; 'I' for Inactive)
REMARK    1  A    between atoms: C_1  and  C_2
REMARK    2  A    between atoms: C_2  and  S_3
REMARK    3  A    between atoms: C_2  and  C_12
REMARK    4  A    between atoms: S_3  and  C_4
REMARK    5  A    between atoms: C_4  and  C_5
REMARK    6  A    between atoms: C_5  and  C_6
REMARK                            x       y       z     vdW  Elec       q    Type
REMARK                         _______ _______ _______ _____ _____    ______ ____
ROOT
ATOM      1  S   UNL     1       5.132   5.496  19.049  0.00  0.00    +0.000 S 
ENDROOT
BRANCH   1   3
ATOM      2  C   UNL     1       3.063   7.058  18.034  0.00  0.00    +0.000 C 
ATOM      3  C   UNL     1       3.517   5.605  18.178  0.00  0.00    +0.000 C 
BRANCH   3   4
ATOM      4  C   UNL     1       2.494   4.640  18.733  0.00  0.00    +0.000 A 
ATOM      5  C   UNL     1       2.118   3.517  17.982  0.00  0.00    +0.000 A 
ATOM      6  F   UNL     1       2.652   3.316  16.768  0.00  0.00    +0.000 F 
ATOM      7  C   UNL     1       1.188   2.592  18.453  0.00  0.00    +0.000 A 
ATOM      8  C   UNL     1       0.600   2.772  19.702  0.00  0.00    +0.000 A 
ATOM      9  C   UNL     1       0.950   3.881  20.468  0.00  0.00    +0.000 A 
ATOM     10  C   UNL     1       1.884   4.795  19.982  0.00  0.00    +0.000 A 
ATOM     11  F   UNL     1       2.190   5.836  20.769  0.00  0.00    +0.000 F 
ENDBRANCH   3   4
ENDBRANCH   1   3
BRANCH   1  12
ATOM     12  C   UNL     1       6.045   4.306  18.004  0.00  0.00    +0.000 C 
BRANCH  12  13
ATOM     13  C   UNL     1       7.229   5.036  17.383  0.00  0.00    +0.000 C 
BRANCH  13  14
ATOM     14  C   UNL     1       6.797   6.159  16.471  0.00  0.00    +0.000 C 
ATOM     15  O   UNL     1       6.117   5.988  15.455  0.00  0.00    +0.000 OA
ATOM     16  N   UNL     1       7.189   7.441  16.804  0.00  0.00    +0.000 N 
ATOM     17  C   UNL     1       7.916   7.858  17.890  0.00  0.00    +0.000 C 
ATOM     18  N   UNL     1       8.170   9.193  17.893  0.00  0.00    +0.000 N 
ATOM     19  O   UNL     1       8.350   7.159  18.794  0.00  0.00    +0.000 OA
ATOM     20  H   UNL     1       6.887   8.139  16.145  0.00  0.00    +0.000 HD
ATOM     21  H   UNL     1       7.674   9.860  17.322  0.00  0.00    +0.000 HD
ATOM     22  H   UNL     1       8.638   9.541  18.722  0.00  0.00    +0.000 HD
ENDBRANCH  13  14
ENDBRANCH  12  13
ENDBRANCH   1  12
TORSDOF 5
ENDMDL
MODEL 6
REMARK VINA RESULT:      -7.3      1.888      2.720
REMARK  Name = 
REMARK  6 active torsions:
REMARK  status: ('A' for Active; 'I' for Inactive)
REMARK    1  A    between atoms: C_1  and  C_2
REMARK    2  A    between atoms: C_2  and  S_3
REMARK    3  A    between atoms: C_2  and  C_12
REMARK    4  A    between atoms: S_3  and  C_4
REMARK    5  A    between atoms: C_4  and  C_5
REMARK    6  A    between atoms: C_5  and  C_6
REMARK                            x       y       z     vdW  Elec       q    Type
REMARK                         _______ _______ _______ _____ _____    ______ ____
ROOT
ATOM      1  S   UNL     1       4.842   5.924  18.985  0.00  0.00    +0.000 S 
ENDROOT
BRANCH   1   3
ATOM      2  C   UNL     1       2.539   7.152  18.017  0.00  0.00    +0.000 C 
ATOM      3  C   UNL     1       3.225   5.789  18.120  0.00  0.00    +0.000 C 
BRANCH   3   4
ATOM      4  C   UNL     1       2.378   4.656  18.652  0.00  0.00    +0.000 A 
ATOM      5  C   UNL     1       1.824   4.747  19.937  0.00  0.00    +0.000 A 
ATOM      6  F   UNL     1       2.064   5.829  20.694  0.00  0.00    +0.000 F 
ATOM      7  C   UNL     1       1.027   3.736  20.470  0.00  0.00    +0.000 A 
ATOM      8  C   UNL     1       0.764   2.591  19.723  0.00  0.00    +0.000 A 
ATOM      9  C   UNL     1       1.306   2.471  18.446  0.00  0.00    +0.000 A 
ATOM     10  C   UNL     1       2.099   3.494  17.927  0.00  0.00    +0.000 A 
ATOM     11  F   UNL     1       2.583   3.326  16.689  0.00  0.00    +0.000 F 
ENDBRANCH   3   4
ENDBRANCH   1   3
BRANCH   1  12
ATOM     12  C   UNL     1       5.755   4.495  18.301  0.00  0.00    +0.000 C 
BRANCH  12  13
ATOM     13  C   UNL     1       7.148   4.970  17.909  0.00  0.00    +0.000 C 
BRANCH  13  14
ATOM     14  C   UNL     1       7.847   5.693  19.035  0.00  0.00    +0.000 C 
ATOM     15  O   UNL     1       8.171   5.149  20.095  0.00  0.00    +0.000 OA
ATOM     16  N   UNL     1       8.132   7.033  18.857  0.00  0.00    +0.000 N 
ATOM     17  C   UNL     1       7.887   7.820  17.761  0.00  0.00    +0.000 C 
ATOM     18  N   UNL     1       8.254   9.118  17.932  0.00  0.00    +0.000 N 
ATOM     19  O   UNL     1       7.373   7.473  16.707  0.00  0.00    +0.000 OA
ATOM     20  H   UNL     1       8.577   7.459  19.652  0.00  0.00    +0.000 HD
ATOM     21  H   UNL     1       8.873   9.434  18.663  0.00  0.00    +0.000 HD
ATOM     22  H   UNL     1       8.157   9.705  17.112  0.00  0.00    +0.000 HD
ENDBRANCH  13  14
ENDBRANCH  12  13
ENDBRANCH   1  12
TORSDOF 5
ENDMDL
MODEL 7
REMARK VINA RESULT:      -7.2      2.793      3.485
REMARK  Name = 
REMARK  6 active torsions:
REMARK  status: ('A' for Active; 'I' for Inactive)
REMARK    1  A    between atoms: C_1  and  C_2
REMARK    2  A    between atoms: C_2  and  S_3
REMARK    3  A    between atoms: C_2  and  C_12
REMARK    4  A    between atoms: S_3  and  C_4
REMARK    5  A    between atoms: C_4  and  C_5
REMARK    6  A    between atoms: C_5  and  C_6
REMARK                            x       y       z     vdW  Elec       q    Type
REMARK                         _______ _______ _______ _____ _____    ______ ____
ROOT
ATOM      1  S   UNL     1       5.109   5.522  18.869  0.00  0.00    +0.000 S 
ENDROOT
BRANCH   1   3
ATOM      2  C   UNL     1       2.972   7.115  18.066  0.00  0.00    +0.000 C 
ATOM      3  C   UNL     1       3.437   5.659  18.117  0.00  0.00    +0.000 C 
BRANCH   3   4
ATOM      4  C   UNL     1       2.458   4.667  18.702  0.00  0.00    +0.000 A 
ATOM      5  C   UNL     1       2.108   3.522  17.972  0.00  0.00    +0.000 A 
ATOM      6  F   UNL     1       2.629   3.324  16.751  0.00  0.00    +0.000 F 
ATOM      7  C   UNL     1       1.219   2.572  18.470  0.00  0.00    +0.000 A 
ATOM      8  C   UNL     1       0.646   2.748  19.726  0.00  0.00    +0.000 A 
ATOM      9  C   UNL     1       0.970   3.878  20.472  0.00  0.00    +0.000 A 
ATOM     10  C   UNL     1       1.863   4.818  19.959  0.00  0.00    +0.000 A 
ATOM     11  F   UNL     1       2.146   5.878  20.727  0.00  0.00    +0.000 F 
ENDBRANCH   3   4
ENDBRANCH   1   3
BRANCH   1  12
ATOM     12  C   UNL     1       5.935   4.346  17.739  0.00  0.00    +0.000 C 
BRANCH  12  13
ATOM     13  C   UNL     1       5.719   4.832  16.312  0.00  0.00    +0.000 C 
BRANCH  13  14
ATOM     14  C   UNL     1       6.924   5.558  15.764  0.00  0.00    +0.000 C 
ATOM     15  O   UNL     1       7.579   6.377  16.415  0.00  0.00    +0.000 OA
ATOM     16  N   UNL     1       7.303   5.281  14.465  0.00  0.00    +0.000 N 
ATOM     17  C   UNL     1       6.740   4.396  13.581  0.00  0.00    +0.000 C 
ATOM     18  N   UNL     1       7.332   4.401  12.357  0.00  0.00    +0.000 N 
ATOM     19  O   UNL     1       5.786   3.659  13.786  0.00  0.00    +0.000 OA
ATOM     20  H   UNL     1       8.098   5.814  14.155  0.00  0.00    +0.000 HD
ATOM     21  H   UNL     1       8.240   4.801  12.175  0.00  0.00    +0.000 HD
ATOM     22  H   UNL     1       6.989   3.702  11.709  0.00  0.00    +0.000 HD
ENDBRANCH  13  14
ENDBRANCH  12  13
ENDBRANCH   1  12
TORSDOF 5
ENDMDL
MODEL 8
REMARK VINA RESULT:      -7.2      3.073      3.743
REMARK  Name = 
REMARK  6 active torsions:
REMARK  status: ('A' for Active; 'I' for Inactive)
REMARK    1  A    between atoms: C_1  and  C_2
REMARK    2  A    between atoms: C_2  and  S_3
REMARK    3  A    between atoms: C_2  and  C_12
REMARK    4  A    between atoms: S_3  and  C_4
REMARK    5  A    between atoms: C_4  and  C_5
REMARK    6  A    between atoms: C_5  and  C_6
REMARK                            x       y       z     vdW  Elec       q    Type
REMARK                         _______ _______ _______ _____ _____    ______ ____
ROOT
ATOM      1  S   UNL     1       4.047   6.620  17.493  0.00  0.00    +0.000 S 
ENDROOT
BRANCH   1   3
ATOM      2  C   UNL     1       5.503   5.074  19.294  0.00  0.00    +0.000 C 
ATOM      3  C   UNL     1       4.091   5.594  19.018  0.00  0.00    +0.000 C 
BRANCH   3   4
ATOM      4  C   UNL     1       2.985   4.565  19.054  0.00  0.00    +0.000 A 
ATOM      5  C   UNL     1       1.983   4.656  20.031  0.00  0.00    +0.000 A 
ATOM      6  F   UNL     1       2.023   5.643  20.939  0.00  0.00    +0.000 F 
ATOM      7  C   UNL     1       0.935   3.740  20.100  0.00  0.00    +0.000 A 
ATOM      8  C   UNL     1       0.864   2.694  19.185  0.00  0.00    +0.000 A 
ATOM      9  C   UNL     1       1.848   2.575  18.207  0.00  0.00    +0.000 A 
ATOM     10  C   UNL     1       2.888   3.502  18.150  0.00  0.00    +0.000 A 
ATOM     11  F   UNL     1       3.798   3.343  17.180  0.00  0.00    +0.000 F 
ENDBRANCH   3   4
ENDBRANCH   1   3
BRANCH   1  12
ATOM     12  C   UNL     1       5.744   6.409  16.847  0.00  0.00    +0.000 C 
BRANCH  12  13
ATOM     13  C   UNL     1       5.667   5.550  15.592  0.00  0.00    +0.000 C 
BRANCH  13  14
ATOM     14  C   UNL     1       6.859   4.633  15.450  0.00  0.00    +0.000 C 
ATOM     15  O   UNL     1       7.790   4.597  16.260  0.00  0.00    +0.000 OA
ATOM     16  N   UNL     1       6.896   3.795  14.353  0.00  0.00    +0.000 N 
ATOM     17  C   UNL     1       5.965   3.652  13.355  0.00  0.00    +0.000 C 
ATOM     18  N   UNL     1       6.334   2.767  12.392  0.00  0.00    +0.000 N 
ATOM     19  O   UNL     1       4.899   4.243  13.255  0.00  0.00    +0.000 OA
ATOM     20  H   UNL     1       7.725   3.227  14.307  0.00  0.00    +0.000 HD
ATOM     21  H   UNL     1       7.071   2.089  12.506  0.00  0.00    +0.000 HD
ATOM     22  H   UNL     1       5.633   2.583  11.684  0.00  0.00    +0.000 HD
ENDBRANCH  13  14
ENDBRANCH  12  13
ENDBRANCH   1  12
TORSDOF 5
ENDMDL
MODEL 9
REMARK VINA RESULT:      -7.1      2.711      3.345
REMARK  Name = 
REMARK  6 active torsions:
REMARK  status: ('A' for Active; 'I' for Inactive)
REMARK    1  A    between atoms: C_1  and  C_2
REMARK    2  A    between atoms: C_2  and  S_3
REMARK    3  A    between atoms: C_2  and  C_12
REMARK    4  A    between atoms: S_3  and  C_4
REMARK    5  A    between atoms: C_4  and  C_5
REMARK    6  A    between atoms: C_5  and  C_6
REMARK                            x       y       z     vdW  Elec       q    Type
REMARK                         _______ _______ _______ _____ _____    ______ ____
ROOT
ATOM      1  S   UNL     1       5.146   5.529  19.084  0.00  0.00    +0.000 S 
ENDROOT
BRANCH   1   3
ATOM      2  C   UNL     1       3.068   7.070  18.053  0.00  0.00    +0.000 C 
ATOM      3  C   UNL     1       3.553   5.624  18.171  0.00  0.00    +0.000 C 
BRANCH   3   4
ATOM      4  C   UNL     1       2.539   4.621  18.673  0.00  0.00    +0.000 A 
ATOM      5  C   UNL     1       1.924   4.818  19.918  0.00  0.00    +0.000 A 
ATOM      6  F   UNL     1       2.253   5.883  20.664  0.00  0.00    +0.000 F 
ATOM      7  C   UNL     1       0.976   3.930  20.421  0.00  0.00    +0.000 A 
ATOM      8  C   UNL     1       0.616   2.805  19.683  0.00  0.00    +0.000 A 
ATOM      9  C   UNL     1       1.214   2.581  18.446  0.00  0.00    +0.000 A 
ATOM     10  C   UNL     1       2.160   3.481  17.957  0.00  0.00    +0.000 A 
ATOM     11  F   UNL     1       2.692   3.219  16.755  0.00  0.00    +0.000 F 
ENDBRANCH   3   4
ENDBRANCH   1   3
BRANCH   1  12
ATOM     12  C   UNL     1       6.129   4.422  18.012  0.00  0.00    +0.000 C 
BRANCH  12  13
ATOM     13  C   UNL     1       5.851   4.798  16.563  0.00  0.00    +0.000 C 
BRANCH  13  14
ATOM     14  C   UNL     1       6.961   5.627  15.962  0.00  0.00    +0.000 C 
ATOM     15  O   UNL     1       7.569   6.503  16.584  0.00  0.00    +0.000 OA
ATOM     16  N   UNL     1       7.303   5.382  14.646  0.00  0.00    +0.000 N 
ATOM     17  C   UNL     1       6.782   4.449  13.787  0.00  0.00    +0.000 C 
ATOM     18  N   UNL     1       7.314   4.503  12.538  0.00  0.00    +0.000 N 
ATOM     19  O   UNL     1       5.907   3.630  14.035  0.00  0.00    +0.000 OA
ATOM     20  H   UNL     1       8.033   5.982  14.302  0.00  0.00    +0.000 HD
ATOM     21  H   UNL     1       8.174   4.982  12.315  0.00  0.00    +0.000 HD
ATOM     22  H   UNL     1       7.005   3.775  11.905  0.00  0.00    +0.000 HD
ENDBRANCH  13  14
ENDBRANCH  12  13
ENDBRANCH   1  12
TORSDOF 5
ENDMDL
