MODEL 1
REMARK VINA RESULT:      -6.6      0.000      0.000
REMARK  Name = 
REMARK  6 active torsions:
REMARK  status: ('A' for Active; 'I' for Inactive)
REMARK    1  A    between atoms: C_1  and  N_2
REMARK    2  A    between atoms: N_5  and  C_6
REMARK    3  A    between atoms: C_7  and  C_8
REMARK    4  A    between atoms: C_8  and  C_9
REMARK    5  A    between atoms: C_12  and  O_13
REMARK    6  A    between atoms: C_14  and  O_15
REMARK                            x       y       z     vdW  Elec       q    Type
REMARK                         _______ _______ _______ _____ _____    ______ ____
ROOT
ATOM      1  C   UNL     1       4.307   5.042  17.741  0.00  0.00    +0.000 A 
ATOM      2  C   UNL     1       4.876   4.557  16.548  0.00  0.00    +0.000 A 
ATOM      3  C   UNL     1       6.247   4.282  16.459  0.00  0.00    +0.000 A 
ATOM      4  C   UNL     1       7.058   4.501  17.564  0.00  0.00    +0.000 A 
ATOM      5  C   UNL     1       6.515   5.015  18.735  0.00  0.00    +0.000 A 
ATOM      6  C   UNL     1       5.153   5.280  18.834  0.00  0.00    +0.000 A 
ENDROOT
BRANCH   4   7
ATOM      7  O   UNL     1       8.391   4.207  17.561  0.00  0.00    +0.000 OA
ATOM      8  H   UNL     1       8.747   4.352  18.455  0.00  0.00    +0.000 HD
ENDBRANCH   4   7
BRANCH   5   9
ATOM      9  O   UNL     1       7.310   5.232  19.823  0.00  0.00    +0.000 OA
ATOM     10  H   UNL     1       6.802   4.870  20.580  0.00  0.00    +0.000 HD
ENDBRANCH   5   9
BRANCH   1  11
ATOM     11  C   UNL     1       2.807   5.197  17.878  0.00  0.00    +0.000 C 
BRANCH  11  18
ATOM     12  C   UNL     1       2.309   2.171  17.712  0.00  0.00    +0.000 C 
ATOM     13  N   UNL     1       1.951   3.056  18.816  0.00  0.00    +0.000 N 
ATOM     14  C   UNL     1       1.329   2.522  20.043  0.00  0.00    +0.000 C 
ATOM     15  C   UNL     1       1.132   3.769  20.907  0.00  0.00    +0.000 C 
ATOM     16  N   UNL     1       1.704   4.846  20.082  0.00  0.00    +0.000 N 
ATOM     17  C   UNL     1       1.751   6.220  20.570  0.00  0.00    +0.000 C 
ATOM     18  C   UNL     1       2.129   4.368  18.917  0.00  0.00    +0.000 C 
ENDBRANCH  11  18
ENDBRANCH   1  11
TORSDOF 4
ENDMDL
MODEL 2
REMARK VINA RESULT:      -6.4      0.220      2.015
REMARK  Name = 
REMARK  6 active torsions:
REMARK  status: ('A' for Active; 'I' for Inactive)
REMARK    1  A    between atoms: C_1  and  N_2
REMARK    2  A    between atoms: N_5  and  C_6
REMARK    3  A    between atoms: C_7  and  C_8
REMARK    4  A    between atoms: C_8  and  C_9
REMARK    5  A    between atoms: C_12  and  O_13
REMARK    6  A    between atoms: C_14  and  O_15
REMARK                            x       y       z     vdW  Elec       q    Type
REMARK                         _______ _______ _______ _____ _____    ______ ____
ROOT
ATOM      1  C   UNL     1       4.487   5.101  17.752  0.00  0.00    +0.000 A 
ATOM      2  C   UNL     1       5.104   4.585  16.597  0.00  0.00    +0.000 A 
ATOM      3  C   UNL     1       6.475   4.295  16.576  0.00  0.00    +0.000 A 
ATOM      4  C   UNL     1       7.237   4.530  17.713  0.00  0.00    +0.000 A 
ATOM      5  C   UNL     1       6.647   5.074  18.847  0.00  0.00    +0.000 A 
ATOM      6  C   UNL     1       5.285   5.355  18.877  0.00  0.00    +0.000 A 
ENDROOT
BRANCH   4   7
ATOM      7  O   UNL     1       8.565   4.222  17.778  0.00  0.00    +0.000 OA
ATOM      8  H   UNL     1       9.081   4.993  17.485  0.00  0.00    +0.000 HD
ENDBRANCH   4   7
BRANCH   5   9
ATOM      9  O   UNL     1       7.393   5.306  19.965  0.00  0.00    +0.000 OA
ATOM     10  H   UNL     1       6.758   5.668  20.619  0.00  0.00    +0.000 HD
ENDBRANCH   5   9
BRANCH   1  11
ATOM     11  C   UNL     1       2.984   5.275  17.817  0.00  0.00    +0.000 C 
BRANCH  11  18
ATOM     12  C   UNL     1       1.838   6.389  20.440  0.00  0.00    +0.000 C 
ATOM     13  N   UNL     1       1.754   5.011  19.965  0.00  0.00    +0.000 N 
ATOM     14  C   UNL     1       1.017   3.990  20.734  0.00  0.00    +0.000 C 
ATOM     15  C   UNL     1       1.185   2.726  19.889  0.00  0.00    +0.000 C 
ATOM     16  N   UNL     1       1.959   3.196  18.727  0.00  0.00    +0.000 N 
ATOM     17  C   UNL     1       2.305   2.288  17.639  0.00  0.00    +0.000 C 
ATOM     18  C   UNL     1       2.252   4.487  18.852  0.00  0.00    +0.000 C 
ENDBRANCH  11  18
ENDBRANCH   1  11
TORSDOF 4
ENDMDL
MODEL 3
REMARK VINA RESULT:      -6.4      1.545      2.595
REMARK  Name = 
REMARK  6 active torsions:
REMARK  status: ('A' for Active; 'I' for Inactive)
REMARK    1  A    between atoms: C_1  and  N_2
REMARK    2  A    between atoms: N_5  and  C_6
REMARK    3  A    between atoms: C_7  and  C_8
REMARK    4  A    between atoms: C_8  and  C_9
REMARK    5  A    between atoms: C_12  and  O_13
REMARK    6  A    between atoms: C_14  and  O_15
REMARK                            x       y       z     vdW  Elec       q    Type
REMARK                         _______ _______ _______ _____ _____    ______ ____
ROOT
ATOM      1  C   UNL     1       5.431   5.106  17.710  0.00  0.00    +0.000 A 
ATOM      2  C   UNL     1       5.828   6.201  16.920  0.00  0.00    +0.000 A 
ATOM      3  C   UNL     1       6.906   7.014  17.298  0.00  0.00    +0.000 A 
ATOM      4  C   UNL     1       7.587   6.737  18.475  0.00  0.00    +0.000 A 
ATOM      5  C   UNL     1       7.182   5.681  19.282  0.00  0.00    +0.000 A 
ATOM      6  C   UNL     1       6.119   4.864  18.909  0.00  0.00    +0.000 A 
ENDROOT
BRANCH   4   7
ATOM      7  O   UNL     1       8.677   7.456  18.874  0.00  0.00    +0.000 OA
ATOM      8  H   UNL     1       8.785   8.219  18.280  0.00  0.00    +0.000 HD
ENDBRANCH   4   7
BRANCH   5   9
ATOM      9  O   UNL     1       7.849   5.406  20.440  0.00  0.00    +0.000 OA
ATOM     10  H   UNL     1       8.101   6.284  20.798  0.00  0.00    +0.000 HD
ENDBRANCH   5   9
BRANCH   1  11
ATOM     11  C   UNL     1       4.364   4.147  17.226  0.00  0.00    +0.000 C 
BRANCH  11  18
ATOM     12  C   UNL     1       2.285   6.151  18.275  0.00  0.00    +0.000 C 
ATOM     13  N   UNL     1       2.361   4.726  18.586  0.00  0.00    +0.000 N 
ATOM     14  C   UNL     1       1.345   4.084  19.442  0.00  0.00    +0.000 C 
ATOM     15  C   UNL     1       1.804   2.625  19.498  0.00  0.00    +0.000 C 
ATOM     16  N   UNL     1       2.997   2.613  18.634  0.00  0.00    +0.000 N 
ATOM     17  C   UNL     1       3.729   1.377  18.381  0.00  0.00    +0.000 C 
ATOM     18  C   UNL     1       3.252   3.833  18.171  0.00  0.00    +0.000 C 
ENDBRANCH  11  18
ENDBRANCH   1  11
TORSDOF 4
ENDMDL
MODEL 4
REMARK VINA RESULT:      -6.4      1.747      2.035
REMARK  Name = 
REMARK  6 active torsions:
REMARK  status: ('A' for Active; 'I' for Inactive)
REMARK    1  A    between atoms: C_1  and  N_2
REMARK    2  A    between atoms: N_5  and  C_6
REMARK    3  A    between atoms: C_7  and  C_8
REMARK    4  A    between atoms: C_8  and  C_9
REMARK    5  A    between atoms: C_12  and  O_13
REMARK    6  A    between atoms: C_14  and  O_15
REMARK                            x       y       z     vdW  Elec       q    Type
REMARK                         _______ _______ _______ _____ _____    ______ ____
ROOT
ATOM      1  C   UNL     1       3.733   5.026  17.305  0.00  0.00    +0.000 A 
ATOM      2  C   UNL     1       4.303   6.311  17.359  0.00  0.00    +0.000 A 
ATOM      3  C   UNL     1       5.542   6.580  16.761  0.00  0.00    +0.000 A 
ATOM      4  C   UNL     1       6.220   5.557  16.112  0.00  0.00    +0.000 A 
ATOM      5  C   UNL     1       5.685   4.275  16.084  0.00  0.00    +0.000 A 
ATOM      6  C   UNL     1       4.452   4.004  16.667  0.00  0.00    +0.000 A 
ENDROOT
BRANCH   4   7
ATOM      7  O   UNL     1       7.405   5.762  15.465  0.00  0.00    +0.000 OA
ATOM      8  H   UNL     1       8.126   5.400  16.009  0.00  0.00    +0.000 HD
ENDBRANCH   4   7
BRANCH   5   9
ATOM      9  O   UNL     1       6.349   3.268  15.448  0.00  0.00    +0.000 OA
ATOM     10  H   UNL     1       5.908   3.188  14.576  0.00  0.00    +0.000 HD
ENDBRANCH   5   9
BRANCH   1  11
ATOM     11  C   UNL     1       2.332   4.776  17.823  0.00  0.00    +0.000 C 
BRANCH  11  18
ATOM     12  C   UNL     1       2.410   1.791  18.546  0.00  0.00    +0.000 C 
ATOM     13  N   UNL     1       2.266   2.911  19.471  0.00  0.00    +0.000 N 
ATOM     14  C   UNL     1       2.195   2.684  20.928  0.00  0.00    +0.000 C 
ATOM     15  C   UNL     1       2.050   4.098  21.496  0.00  0.00    +0.000 C 
ATOM     16  N   UNL     1       2.099   4.951  20.296  0.00  0.00    +0.000 N 
ATOM     17  C   UNL     1       2.033   6.404  20.406  0.00  0.00    +0.000 C 
ATOM     18  C   UNL     1       2.207   4.209  19.198  0.00  0.00    +0.000 C 
ENDBRANCH  11  18
ENDBRANCH   1  11
TORSDOF 4
ENDMDL
MODEL 5
REMARK VINA RESULT:      -6.4      1.535      1.847
REMARK  Name = 
REMARK  6 active torsions:
REMARK  status: ('A' for Active; 'I' for Inactive)
REMARK    1  A    between atoms: C_1  and  N_2
REMARK    2  A    between atoms: N_5  and  C_6
REMARK    3  A    between atoms: C_7  and  C_8
REMARK    4  A    between atoms: C_8  and  C_9
REMARK    5  A    between atoms: C_12  and  O_13
REMARK    6  A    between atoms: C_14  and  O_15
REMARK                            x       y       z     vdW  Elec       q    Type
REMARK                         _______ _______ _______ _____ _____    ______ ____
ROOT
ATOM      1  C   UNL     1       5.386   5.181  17.708  0.00  0.00    +0.000 A 
ATOM      2  C   UNL     1       5.801   6.278  16.931  0.00  0.00    +0.000 A 
ATOM      3  C   UNL     1       6.898   7.063  17.312  0.00  0.00    +0.000 A 
ATOM      4  C   UNL     1       7.580   6.755  18.482  0.00  0.00    +0.000 A 
ATOM      5  C   UNL     1       7.158   5.697  19.277  0.00  0.00    +0.000 A 
ATOM      6  C   UNL     1       6.075   4.909  18.899  0.00  0.00    +0.000 A 
ENDROOT
BRANCH   4   7
ATOM      7  O   UNL     1       8.687   7.446  18.884  0.00  0.00    +0.000 OA
ATOM      8  H   UNL     1       9.479   6.992  18.548  0.00  0.00    +0.000 HD
ENDBRANCH   4   7
BRANCH   5   9
ATOM      9  O   UNL     1       7.825   5.393  20.427  0.00  0.00    +0.000 OA
ATOM     10  H   UNL     1       7.772   4.416  20.497  0.00  0.00    +0.000 HD
ENDBRANCH   5   9
BRANCH   1  11
ATOM     11  C   UNL     1       4.295   4.251  17.219  0.00  0.00    +0.000 C 
BRANCH  11  18
ATOM     12  C   UNL     1       3.657   1.480  18.382  0.00  0.00    +0.000 C 
ATOM     13  N   UNL     1       2.958   2.730  18.666  0.00  0.00    +0.000 N 
ATOM     14  C   UNL     1       1.850   2.772  19.640  0.00  0.00    +0.000 C 
ATOM     15  C   UNL     1       1.424   4.242  19.624  0.00  0.00    +0.000 C 
ATOM     16  N   UNL     1       2.369   4.857  18.676  0.00  0.00    +0.000 N 
ATOM     17  C   UNL     1       2.330   6.289  18.399  0.00  0.00    +0.000 C 
ATOM     18  C   UNL     1       3.189   3.940  18.170  0.00  0.00    +0.000 C 
ENDBRANCH  11  18
ENDBRANCH   1  11
TORSDOF 4
ENDMDL
MODEL 6
REMARK VINA RESULT:      -6.3      1.712      2.828
REMARK  Name = 
REMARK  6 active torsions:
REMARK  status: ('A' for Active; 'I' for Inactive)
REMARK    1  A    between atoms: C_1  and  N_2
REMARK    2  A    between atoms: N_5  and  C_6
REMARK    3  A    between atoms: C_7  and  C_8
REMARK    4  A    between atoms: C_8  and  C_9
REMARK    5  A    between atoms: C_12  and  O_13
REMARK    6  A    between atoms: C_14  and  O_15
REMARK                            x       y       z     vdW  Elec       q    Type
REMARK                         _______ _______ _______ _____ _____    ______ ____
ROOT
ATOM      1  C   UNL     1       3.743   5.033  17.317  0.00  0.00    +0.000 A 
ATOM      2  C   UNL     1       4.335   6.309  17.379  0.00  0.00    +0.000 A 
ATOM      3  C   UNL     1       5.575   6.562  16.776  0.00  0.00    +0.000 A 
ATOM      4  C   UNL     1       6.232   5.534  16.115  0.00  0.00    +0.000 A 
ATOM      5  C   UNL     1       5.676   4.261  16.078  0.00  0.00    +0.000 A 
ATOM      6  C   UNL     1       4.441   4.005  16.666  0.00  0.00    +0.000 A 
ENDROOT
BRANCH   4   7
ATOM      7  O   UNL     1       7.416   5.725  15.463  0.00  0.00    +0.000 OA
ATOM      8  H   UNL     1       7.244   6.193  14.628  0.00  0.00    +0.000 HD
ENDBRANCH   4   7
BRANCH   5   9
ATOM      9  O   UNL     1       6.320   3.249  15.429  0.00  0.00    +0.000 OA
ATOM     10  H   UNL     1       7.250   3.306  15.737  0.00  0.00    +0.000 HD
ENDBRANCH   5   9
BRANCH   1  11
ATOM     11  C   UNL     1       2.341   4.802  17.841  0.00  0.00    +0.000 C 
BRANCH  11  18
ATOM     12  C   UNL     1       1.981   6.308  20.494  0.00  0.00    +0.000 C 
ATOM     13  N   UNL     1       2.039   4.860  20.311  0.00  0.00    +0.000 N 
ATOM     14  C   UNL     1       1.864   3.946  21.456  0.00  0.00    +0.000 C 
ATOM     15  C   UNL     1       1.995   2.560  20.821  0.00  0.00    +0.000 C 
ATOM     16  N   UNL     1       2.186   2.860  19.391  0.00  0.00    +0.000 N 
ATOM     17  C   UNL     1       2.315   1.788  18.410  0.00  0.00    +0.000 C 
ATOM     18  C   UNL     1       2.214   4.174  19.188  0.00  0.00    +0.000 C 
ENDBRANCH  11  18
ENDBRANCH   1  11
TORSDOF 4
ENDMDL
MODEL 7
REMARK VINA RESULT:      -6.3      1.475      2.651
REMARK  Name = 
REMARK  6 active torsions:
REMARK  status: ('A' for Active; 'I' for Inactive)
REMARK    1  A    between atoms: C_1  and  N_2
REMARK    2  A    between atoms: N_5  and  C_6
REMARK    3  A    between atoms: C_7  and  C_8
REMARK    4  A    between atoms: C_8  and  C_9
REMARK    5  A    between atoms: C_12  and  O_13
REMARK    6  A    between atoms: C_14  and  O_15
REMARK                            x       y       z     vdW  Elec       q    Type
REMARK                         _______ _______ _______ _____ _____    ______ ____
ROOT
ATOM      1  C   UNL     1       4.310   5.082  17.626  0.00  0.00    +0.000 A 
ATOM      2  C   UNL     1       4.372   6.470  17.402  0.00  0.00    +0.000 A 
ATOM      3  C   UNL     1       5.565   7.087  17.002  0.00  0.00    +0.000 A 
ATOM      4  C   UNL     1       6.706   6.314  16.833  0.00  0.00    +0.000 A 
ATOM      5  C   UNL     1       6.667   4.949  17.086  0.00  0.00    +0.000 A 
ATOM      6  C   UNL     1       5.484   4.329  17.474  0.00  0.00    +0.000 A 
ENDROOT
BRANCH   4   7
ATOM      7  O   UNL     1       7.887   6.843  16.396  0.00  0.00    +0.000 OA
ATOM      8  H   UNL     1       8.618   6.424  16.882  0.00  0.00    +0.000 HD
ENDBRANCH   4   7
BRANCH   5   9
ATOM      9  O   UNL     1       7.787   4.188  16.921  0.00  0.00    +0.000 OA
ATOM     10  H   UNL     1       7.457   3.265  16.872  0.00  0.00    +0.000 HD
ENDBRANCH   5   9
BRANCH   1  11
ATOM     11  C   UNL     1       2.989   4.401  17.915  0.00  0.00    +0.000 C 
BRANCH  11  18
ATOM     12  C   UNL     1       1.921   6.023  20.295  0.00  0.00    +0.000 C 
ATOM     13  N   UNL     1       2.296   4.612  20.296  0.00  0.00    +0.000 N 
ATOM     14  C   UNL     1       2.128   3.786  21.508  0.00  0.00    +0.000 C 
ATOM     15  C   UNL     1       2.633   2.410  21.067  0.00  0.00    +0.000 C 
ATOM     16  N   UNL     1       2.983   2.616  19.651  0.00  0.00    +0.000 N 
ATOM     17  C   UNL     1       3.477   1.515  18.832  0.00  0.00    +0.000 C 
ATOM     18  C   UNL     1       2.779   3.882  19.298  0.00  0.00    +0.000 C 
ENDBRANCH  11  18
ENDBRANCH   1  11
TORSDOF 4
ENDMDL
MODEL 8
REMARK VINA RESULT:      -6.3      1.702      1.988
REMARK  Name = 
REMARK  6 active torsions:
REMARK  status: ('A' for Active; 'I' for Inactive)
REMARK    1  A    between atoms: C_1  and  N_2
REMARK    2  A    between atoms: N_5  and  C_6
REMARK    3  A    between atoms: C_7  and  C_8
REMARK    4  A    between atoms: C_8  and  C_9
REMARK    5  A    between atoms: C_12  and  O_13
REMARK    6  A    between atoms: C_14  and  O_15
REMARK                            x       y       z     vdW  Elec       q    Type
REMARK                         _______ _______ _______ _____ _____    ______ ____
ROOT
ATOM      1  C   UNL     1       5.475   4.428  17.844  0.00  0.00    +0.000 A 
ATOM      2  C   UNL     1       5.295   3.685  16.662  0.00  0.00    +0.000 A 
ATOM      3  C   UNL     1       5.964   4.033  15.480  0.00  0.00    +0.000 A 
ATOM      4  C   UNL     1       6.811   5.133  15.476  0.00  0.00    +0.000 A 
ATOM      5  C   UNL     1       6.968   5.896  16.626  0.00  0.00    +0.000 A 
ATOM      6  C   UNL     1       6.314   5.551  17.805  0.00  0.00    +0.000 A 
ENDROOT
BRANCH   4   7
ATOM      7  O   UNL     1       7.532   5.494  14.374  0.00  0.00    +0.000 OA
ATOM      8  H   UNL     1       8.472   5.305  14.538  0.00  0.00    +0.000 HD
ENDBRANCH   4   7
BRANCH   5   9
ATOM      9  O   UNL     1       7.798   6.977  16.625  0.00  0.00    +0.000 OA
ATOM     10  H   UNL     1       8.654   6.636  16.288  0.00  0.00    +0.000 HD
ENDBRANCH   5   9
BRANCH   1  11
ATOM     11  C   UNL     1       4.866   3.965  19.151  0.00  0.00    +0.000 C 
BRANCH  11  18
ATOM     12  C   UNL     1       3.678   1.179  18.634  0.00  0.00    +0.000 C 
ATOM     13  N   UNL     1       2.940   2.403  18.934  0.00  0.00    +0.000 N 
ATOM     14  C   UNL     1       1.471   2.385  19.075  0.00  0.00    +0.000 C 
ATOM     15  C   UNL     1       1.130   3.845  19.382  0.00  0.00    +0.000 C 
ATOM     16  N   UNL     1       2.449   4.499  19.418  0.00  0.00    +0.000 N 
ATOM     17  C   UNL     1       2.574   5.920  19.727  0.00  0.00    +0.000 C 
ATOM     18  C   UNL     1       3.413   3.626  19.143  0.00  0.00    +0.000 C 
ENDBRANCH  11  18
ENDBRANCH   1  11
TORSDOF 4
ENDMDL
MODEL 9
REMARK VINA RESULT:      -6.3      1.453      1.745
REMARK  Name = 
REMARK  6 active torsions:
REMARK  status: ('A' for Active; 'I' for Inactive)
REMARK    1  A    between atoms: C_1  and  N_2
REMARK    2  A    between atoms: N_5  and  C_6
REMARK    3  A    between atoms: C_7  and  C_8
REMARK    4  A    between atoms: C_8  and  C_9
REMARK    5  A    between atoms: C_12  and  O_13
REMARK    6  A    between atoms: C_14  and  O_15
REMARK                            x       y       z     vdW  Elec       q    Type
REMARK                         _______ _______ _______ _____ _____    ______ ____
ROOT
ATOM      1  C   UNL     1       4.200   5.162  17.638  0.00  0.00    +0.000 A 
ATOM      2  C   UNL     1       4.259   6.534  17.329  0.00  0.00    +0.000 A 
ATOM      3  C   UNL     1       5.469   7.143  16.968  0.00  0.00    +0.000 A 
ATOM      4  C   UNL     1       6.628   6.380  16.922  0.00  0.00    +0.000 A 
ATOM      5  C   UNL     1       6.589   5.034  17.260  0.00  0.00    +0.000 A 
ATOM      6  C   UNL     1       5.391   4.420  17.610  0.00  0.00    +0.000 A 
ENDROOT
BRANCH   4   7
ATOM      7  O   UNL     1       7.827   6.899  16.528  0.00  0.00    +0.000 OA
ATOM      8  H   UNL     1       7.908   6.808  15.563  0.00  0.00    +0.000 HD
ENDBRANCH   4   7
BRANCH   5   9
ATOM      9  O   UNL     1       7.726   4.282  17.217  0.00  0.00    +0.000 OA
ATOM     10  H   UNL     1       8.337   4.785  16.636  0.00  0.00    +0.000 HD
ENDBRANCH   5   9
BRANCH   1  11
ATOM     11  C   UNL     1       2.871   4.479  17.885  0.00  0.00    +0.000 C 
BRANCH  11  18
ATOM     12  C   UNL     1       3.334   1.564  18.738  0.00  0.00    +0.000 C 
ATOM     13  N   UNL     1       2.867   2.659  19.583  0.00  0.00    +0.000 N 
ATOM     14  C   UNL     1       2.615   2.449  21.022  0.00  0.00    +0.000 C 
ATOM     15  C   UNL     1       2.154   3.827  21.502  0.00  0.00    +0.000 C 
ATOM     16  N   UNL     1       2.241   4.655  20.287  0.00  0.00    +0.000 N 
ATOM     17  C   UNL     1       1.919   6.077  20.324  0.00  0.00    +0.000 C 
ATOM     18  C   UNL     1       2.635   3.923  19.249  0.00  0.00    +0.000 C 
ENDBRANCH  11  18
ENDBRANCH   1  11
TORSDOF 4
ENDMDL
