MODEL 1
REMARK VINA RESULT:      -7.9      0.000      0.000
REMARK  Name = 
REMARK  6 active torsions:
REMARK  status: ('A' for Active; 'I' for Inactive)
REMARK    1  A    between atoms: C_1  and  C_2
REMARK    2  A    between atoms: C_2  and  O_3
REMARK    3  A    between atoms: O_3  and  C_4
REMARK    4  A    between atoms: C_12  and  C_13
REMARK    5  A    between atoms: C_13  and  N_14
REMARK    6  A    between atoms: C_17  and  N_18
REMARK                            x       y       z     vdW  Elec       q    Type
REMARK                         _______ _______ _______ _____ _____    ______ ____
ROOT
ATOM      1  N   UNL     1       2.181   7.786  19.934  0.00  0.00    +0.000 NA
ATOM      2  C   UNL     1       1.537   7.463  21.212  0.00  0.00    +0.000 C 
ATOM      3  C   UNL     1       0.253   8.256  21.218  0.00  0.00    +0.000 C 
ATOM      4  C   UNL     1       0.720   9.617  20.699  0.00  0.00    +0.000 C 
ATOM      5  C   UNL     1       1.718   9.167  19.606  0.00  0.00    +0.000 C 
ENDROOT
BRANCH   4   6
ATOM      6  N   UNL     1      -0.365  10.507  20.309  0.00  0.00    +0.000 N 
ATOM      7  C   UNL     1      -0.707  11.660  21.044  0.00  0.00    +0.000 C 
ATOM      8  O   UNL     1      -0.226  12.053  22.098  0.00  0.00    +0.000 OA
ATOM      9  C   UNL     1      -1.819  12.384  20.298  0.00  0.00    +0.000 C 
ATOM     10  C   UNL     1      -1.964  11.563  19.061  0.00  0.00    +0.000 A 
ATOM     11  C   UNL     1      -2.839  11.764  18.005  0.00  0.00    +0.000 A 
ATOM     12  C   UNL     1      -2.776  10.883  16.929  0.00  0.00    +0.000 A 
ATOM     13  C   UNL     1      -1.825   9.852  16.911  0.00  0.00    +0.000 A 
ATOM     14  C   UNL     1      -0.943   9.669  17.982  0.00  0.00    +0.000 A 
ATOM     15  C   UNL     1      -1.050  10.507  19.077  0.00  0.00    +0.000 A 
ENDBRANCH   4   6
BRANCH   1  16
ATOM     16  C   UNL     1       1.816   6.869  18.841  0.00  0.00    +0.000 C 
BRANCH  16  25
ATOM     17  C   UNL     1       5.271   4.237  16.699  0.00  0.00    +0.000 C 
ATOM     18  O   UNL     1       5.038   4.057  15.506  0.00  0.00    +0.000 OA
ATOM     19  N   UNL     1       4.375   3.989  17.694  0.00  0.00    +0.000 N 
ATOM     20  C   UNL     1       3.046   3.477  17.477  0.00  0.00    +0.000 C 
ATOM     21  C   UNL     1       2.911   2.423  18.583  0.00  0.00    +0.000 C 
ATOM     22  C   UNL     1       3.951   2.824  19.642  0.00  0.00    +0.000 C 
ATOM     23  C   UNL     1       4.544   4.137  19.127  0.00  0.00    +0.000 C 
ATOM     24  C   UNL     1       3.714   5.339  19.601  0.00  0.00    +0.000 C 
ATOM     25  C   UNL     1       2.276   5.400  19.019  0.00  0.00    +0.000 C 
ATOM     26  C   UNL     1       2.074   4.645  17.675  0.00  0.00    +0.000 C 
BRANCH  17  27
ATOM     27  O   UNL     1       6.465   4.674  17.185  0.00  0.00    +0.000 OA
BRANCH  27  29
ATOM     28  C   UNL     1       7.392   6.858  17.696  0.00  0.00    +0.000 C 
ATOM     29  C   UNL     1       6.973   5.886  16.608  0.00  0.00    +0.000 C 
ENDBRANCH  27  29
ENDBRANCH  17  27
ENDBRANCH  16  25
ENDBRANCH   1  16
TORSDOF 5
ENDMDL
MODEL 2
REMARK VINA RESULT:      -7.6      1.143      2.200
REMARK  Name = 
REMARK  6 active torsions:
REMARK  status: ('A' for Active; 'I' for Inactive)
REMARK    1  A    between atoms: C_1  and  C_2
REMARK    2  A    between atoms: C_2  and  O_3
REMARK    3  A    between atoms: O_3  and  C_4
REMARK    4  A    between atoms: C_12  and  C_13
REMARK    5  A    between atoms: C_13  and  N_14
REMARK    6  A    between atoms: C_17  and  N_18
REMARK                            x       y       z     vdW  Elec       q    Type
REMARK                         _______ _______ _______ _____ _____    ______ ____
ROOT
ATOM      1  N   UNL     1       2.201   7.566  19.927  0.00  0.00    +0.000 NA
ATOM      2  C   UNL     1       1.448   7.313  21.159  0.00  0.00    +0.000 C 
ATOM      3  C   UNL     1       0.221   8.186  21.057  0.00  0.00    +0.000 C 
ATOM      4  C   UNL     1       0.810   9.502  20.549  0.00  0.00    +0.000 C 
ATOM      5  C   UNL     1       1.853   8.966  19.541  0.00  0.00    +0.000 C 
ENDROOT
BRANCH   4   6
ATOM      6  N   UNL     1      -0.184  10.450  20.065  0.00  0.00    +0.000 N 
ATOM      7  C   UNL     1      -0.664  10.443  18.740  0.00  0.00    +0.000 C 
ATOM      8  O   UNL     1      -0.307   9.730  17.813  0.00  0.00    +0.000 OA
ATOM      9  C   UNL     1      -1.746  11.507  18.623  0.00  0.00    +0.000 C 
ATOM     10  C   UNL     1      -1.861  12.006  20.024  0.00  0.00    +0.000 A 
ATOM     11  C   UNL     1      -2.707  12.989  20.510  0.00  0.00    +0.000 A 
ATOM     12  C   UNL     1      -2.665  13.272  21.873  0.00  0.00    +0.000 A 
ATOM     13  C   UNL     1      -1.815  12.547  22.721  0.00  0.00    +0.000 A 
ATOM     14  C   UNL     1      -0.972  11.551  22.215  0.00  0.00    +0.000 A 
ATOM     15  C   UNL     1      -0.972  11.317  20.852  0.00  0.00    +0.000 A 
ENDBRANCH   4   6
BRANCH   1  16
ATOM     16  C   UNL     1       1.858   6.649  18.827  0.00  0.00    +0.000 C 
BRANCH  16  25
ATOM     17  C   UNL     1       5.434   4.195  16.673  0.00  0.00    +0.000 C 
ATOM     18  O   UNL     1       5.219   4.029  15.474  0.00  0.00    +0.000 OA
ATOM     19  N   UNL     1       4.538   3.893  17.653  0.00  0.00    +0.000 N 
ATOM     20  C   UNL     1       3.233   3.334  17.413  0.00  0.00    +0.000 C 
ATOM     21  C   UNL     1       3.128   2.254  18.497  0.00  0.00    +0.000 C 
ATOM     22  C   UNL     1       4.141   2.675  19.575  0.00  0.00    +0.000 C 
ATOM     23  C   UNL     1       4.687   4.020  19.090  0.00  0.00    +0.000 C 
ATOM     24  C   UNL     1       3.806   5.180  19.579  0.00  0.00    +0.000 C 
ATOM     25  C   UNL     1       2.373   5.196  18.982  0.00  0.00    +0.000 C 
ATOM     26  C   UNL     1       2.214   4.459  17.622  0.00  0.00    +0.000 C 
BRANCH  17  27
ATOM     27  O   UNL     1       6.605   4.668  17.179  0.00  0.00    +0.000 OA
BRANCH  27  29
ATOM     28  C   UNL     1       7.456   6.851  17.814  0.00  0.00    +0.000 C 
ATOM     29  C   UNL     1       7.041   5.939  16.674  0.00  0.00    +0.000 C 
ENDBRANCH  27  29
ENDBRANCH  17  27
ENDBRANCH  16  25
ENDBRANCH   1  16
TORSDOF 5
ENDMDL
MODEL 3
REMARK VINA RESULT:      -7.4      1.615      2.955
REMARK  Name = 
REMARK  6 active torsions:
REMARK  status: ('A' for Active; 'I' for Inactive)
REMARK    1  A    between atoms: C_1  and  C_2
REMARK    2  A    between atoms: C_2  and  O_3
REMARK    3  A    between atoms: O_3  and  C_4
REMARK    4  A    between atoms: C_12  and  C_13
REMARK    5  A    between atoms: C_13  and  N_14
REMARK    6  A    between atoms: C_17  and  N_18
REMARK                            x       y       z     vdW  Elec       q    Type
REMARK                         _______ _______ _______ _____ _____    ______ ____
ROOT
ATOM      1  N   UNL     1       1.939   8.304  19.878  0.00  0.00    +0.000 NA
ATOM      2  C   UNL     1       1.448   8.195  21.256  0.00  0.00    +0.000 C 
ATOM      3  C   UNL     1       0.087   8.850  21.241  0.00  0.00    +0.000 C 
ATOM      4  C   UNL     1       0.352  10.109  20.415  0.00  0.00    +0.000 C 
ATOM      5  C   UNL     1       1.298   9.536  19.334  0.00  0.00    +0.000 C 
ENDROOT
BRANCH   4   6
ATOM      6  N   UNL     1      -0.857  10.793  19.974  0.00  0.00    +0.000 N 
ATOM      7  C   UNL     1      -1.402  11.897  20.659  0.00  0.00    +0.000 C 
ATOM      8  O   UNL     1      -1.017  12.400  21.706  0.00  0.00    +0.000 OA
ATOM      9  C   UNL     1      -2.600  12.401  19.868  0.00  0.00    +0.000 C 
ATOM     10  C   UNL     1      -2.579  11.527  18.659  0.00  0.00    +0.000 A 
ATOM     11  C   UNL     1      -3.449  11.544  17.582  0.00  0.00    +0.000 A 
ATOM     12  C   UNL     1      -3.217  10.649  16.540  0.00  0.00    +0.000 A 
ATOM     13  C   UNL     1      -2.108   9.791  16.576  0.00  0.00    +0.000 A 
ATOM     14  C   UNL     1      -1.233   9.793  17.669  0.00  0.00    +0.000 A 
ATOM     15  C   UNL     1      -1.503  10.638  18.730  0.00  0.00    +0.000 A 
ENDBRANCH   4   6
BRANCH   1  16
ATOM     16  C   UNL     1       1.589   7.148  19.035  0.00  0.00    +0.000 C 
BRANCH  16  25
ATOM     17  C   UNL     1       3.298   2.651  19.591  0.00  0.00    +0.000 C 
ATOM     18  O   UNL     1       3.734   2.463  20.725  0.00  0.00    +0.000 OA
ATOM     19  N   UNL     1       3.653   3.706  18.806  0.00  0.00    +0.000 N 
ATOM     20  C   UNL     1       4.589   4.728  19.198  0.00  0.00    +0.000 C 
ATOM     21  C   UNL     1       5.436   4.907  17.932  0.00  0.00    +0.000 C 
ATOM     22  C   UNL     1       4.558   4.372  16.789  0.00  0.00    +0.000 C 
ATOM     23  C   UNL     1       3.226   4.017  17.455  0.00  0.00    +0.000 C 
ATOM     24  C   UNL     1       2.291   5.233  17.498  0.00  0.00    +0.000 C 
ATOM     25  C   UNL     1       2.786   6.396  18.400  0.00  0.00    +0.000 C 
ATOM     26  C   UNL     1       3.775   5.984  19.527  0.00  0.00    +0.000 C 
BRANCH  17  27
ATOM     27  O   UNL     1       2.431   1.814  18.960  0.00  0.00    +0.000 OA
BRANCH  27  29
ATOM     28  C   UNL     1       0.823   3.139  20.204  0.00  0.00    +0.000 C 
ATOM     29  C   UNL     1       1.038   2.138  19.084  0.00  0.00    +0.000 C 
ENDBRANCH  27  29
ENDBRANCH  17  27
ENDBRANCH  16  25
ENDBRANCH   1  16
TORSDOF 5
ENDMDL
MODEL 4
REMARK VINA RESULT:      -7.4      1.493      2.607
REMARK  Name = 
REMARK  6 active torsions:
REMARK  status: ('A' for Active; 'I' for Inactive)
REMARK    1  A    between atoms: C_1  and  C_2
REMARK    2  A    between atoms: C_2  and  O_3
REMARK    3  A    between atoms: O_3  and  C_4
REMARK    4  A    between atoms: C_12  and  C_13
REMARK    5  A    between atoms: C_13  and  N_14
REMARK    6  A    between atoms: C_17  and  N_18
REMARK                            x       y       z     vdW  Elec       q    Type
REMARK                         _______ _______ _______ _____ _____    ______ ____
ROOT
ATOM      1  N   UNL     1       1.853   7.946  18.119  0.00  0.00    +0.000 NA
ATOM      2  C   UNL     1       2.581   9.094  17.568  0.00  0.00    +0.000 C 
ATOM      3  C   UNL     1       2.032  10.296  18.298  0.00  0.00    +0.000 C 
ATOM      4  C   UNL     1       0.528  10.017  18.278  0.00  0.00    +0.000 C 
ATOM      5  C   UNL     1       0.527   8.491  18.534  0.00  0.00    +0.000 C 
ENDROOT
BRANCH   4   6
ATOM      6  N   UNL     1      -0.244  10.862  19.179  0.00  0.00    +0.000 N 
ATOM      7  C   UNL     1      -1.086  11.895  18.721  0.00  0.00    +0.000 C 
ATOM      8  O   UNL     1      -1.256  12.276  17.571  0.00  0.00    +0.000 OA
ATOM      9  C   UNL     1      -1.791  12.500  19.927  0.00  0.00    +0.000 C 
ATOM     10  C   UNL     1      -1.319  11.633  21.045  0.00  0.00    +0.000 A 
ATOM     11  C   UNL     1      -1.649  11.721  22.387  0.00  0.00    +0.000 A 
ATOM     12  C   UNL     1      -1.110  10.775  23.256  0.00  0.00    +0.000 A 
ATOM     13  C   UNL     1      -0.292   9.747  22.765  0.00  0.00    +0.000 A 
ATOM     14  C   UNL     1       0.024   9.667  21.404  0.00  0.00    +0.000 A 
ATOM     15  C   UNL     1      -0.462  10.645  20.555  0.00  0.00    +0.000 A 
ENDBRANCH   4   6
BRANCH   1  16
ATOM     16  C   UNL     1       2.518   7.325  19.276  0.00  0.00    +0.000 C 
BRANCH  16  25
ATOM     17  C   UNL     1       5.191   4.275  16.630  0.00  0.00    +0.000 C 
ATOM     18  O   UNL     1       4.892   4.319  15.438  0.00  0.00    +0.000 OA
ATOM     19  N   UNL     1       4.286   4.110  17.633  0.00  0.00    +0.000 N 
ATOM     20  C   UNL     1       2.869   3.957  17.429  0.00  0.00    +0.000 C 
ATOM     21  C   UNL     1       2.513   2.823  18.399  0.00  0.00    +0.000 C 
ATOM     22  C   UNL     1       3.645   2.823  19.440  0.00  0.00    +0.000 C 
ATOM     23  C   UNL     1       4.521   4.020  19.062  0.00  0.00    +0.000 C 
ATOM     24  C   UNL     1       4.014   5.306  19.730  0.00  0.00    +0.000 C 
ATOM     25  C   UNL     1       2.618   5.779  19.241  0.00  0.00    +0.000 C 
ATOM     26  C   UNL     1       2.209   5.281  17.827  0.00  0.00    +0.000 C 
BRANCH  17  27
ATOM     27  O   UNL     1       6.466   4.352  17.098  0.00  0.00    +0.000 OA
BRANCH  27  29
ATOM     28  C   UNL     1       6.872   6.706  17.525  0.00  0.00    +0.000 C 
ATOM     29  C   UNL     1       7.223   5.497  16.679  0.00  0.00    +0.000 C 
ENDBRANCH  27  29
ENDBRANCH  17  27
ENDBRANCH  16  25
ENDBRANCH   1  16
TORSDOF 5
ENDMDL
MODEL 5
REMARK VINA RESULT:      -7.3      1.922      3.046
REMARK  Name = 
REMARK  6 active torsions:
REMARK  status: ('A' for Active; 'I' for Inactive)
REMARK    1  A    between atoms: C_1  and  C_2
REMARK    2  A    between atoms: C_2  and  O_3
REMARK    3  A    between atoms: O_3  and  C_4
REMARK    4  A    between atoms: C_12  and  C_13
REMARK    5  A    between atoms: C_13  and  N_14
REMARK    6  A    between atoms: C_17  and  N_18
REMARK                            x       y       z     vdW  Elec       q    Type
REMARK                         _______ _______ _______ _____ _____    ______ ____
ROOT
ATOM      1  N   UNL     1       1.598   9.275  17.734  0.00  0.00    +0.000 NA
ATOM      2  C   UNL     1       1.990  10.686  17.807  0.00  0.00    +0.000 C 
ATOM      3  C   UNL     1       1.617  11.126  19.202  0.00  0.00    +0.000 C 
ATOM      4  C   UNL     1       0.228  10.509  19.367  0.00  0.00    +0.000 C 
ATOM      5  C   UNL     1       0.450   9.142  18.678  0.00  0.00    +0.000 C 
ENDROOT
BRANCH   4   6
ATOM      6  N   UNL     1      -0.263  10.512  20.739  0.00  0.00    +0.000 N 
ATOM      7  C   UNL     1       0.325   9.742  21.762  0.00  0.00    +0.000 C 
ATOM      8  O   UNL     1       1.247   8.944  21.669  0.00  0.00    +0.000 OA
ATOM      9  C   UNL     1      -0.391  10.063  23.067  0.00  0.00    +0.000 C 
ATOM     10  C   UNL     1      -1.340  11.138  22.657  0.00  0.00    +0.000 A 
ATOM     11  C   UNL     1      -2.250  11.816  23.451  0.00  0.00    +0.000 A 
ATOM     12  C   UNL     1      -3.019  12.814  22.858  0.00  0.00    +0.000 A 
ATOM     13  C   UNL     1      -2.838  13.138  21.505  0.00  0.00    +0.000 A 
ATOM     14  C   UNL     1      -1.907  12.449  20.719  0.00  0.00    +0.000 A 
ATOM     15  C   UNL     1      -1.191  11.417  21.297  0.00  0.00    +0.000 A 
ENDBRANCH   4   6
BRANCH   1  16
ATOM     16  C   UNL     1       2.670   8.343  18.123  0.00  0.00    +0.000 C 
BRANCH  16  25
ATOM     17  C   UNL     1       4.596   3.900  18.124  0.00  0.00    +0.000 C 
ATOM     18  O   UNL     1       4.637   3.417  16.994  0.00  0.00    +0.000 OA
ATOM     19  N   UNL     1       3.477   4.444  18.676  0.00  0.00    +0.000 N 
ATOM     20  C   UNL     1       2.200   4.516  18.015  0.00  0.00    +0.000 C 
ATOM     21  C   UNL     1       1.225   4.108  19.127  0.00  0.00    +0.000 C 
ATOM     22  C   UNL     1       1.984   4.376  20.437  0.00  0.00    +0.000 C 
ATOM     23  C   UNL     1       3.303   5.016  19.998  0.00  0.00    +0.000 C 
ATOM     24  C   UNL     1       3.157   6.539  19.863  0.00  0.00    +0.000 C 
ATOM     25  C   UNL     1       2.200   6.997  18.730  0.00  0.00    +0.000 C 
ATOM     26  C   UNL     1       1.998   5.971  17.580  0.00  0.00    +0.000 C 
BRANCH  17  27
ATOM     27  O   UNL     1       5.652   3.922  18.981  0.00  0.00    +0.000 OA
BRANCH  27  29
ATOM     28  C   UNL     1       7.647   4.686  17.828  0.00  0.00    +0.000 C 
ATOM     29  C   UNL     1       6.561   5.024  18.832  0.00  0.00    +0.000 C 
ENDBRANCH  27  29
ENDBRANCH  17  27
ENDBRANCH  16  25
ENDBRANCH   1  16
TORSDOF 5
ENDMDL
MODEL 6
REMARK VINA RESULT:      -7.3      1.282      1.636
REMARK  Name = 
REMARK  6 active torsions:
REMARK  status: ('A' for Active; 'I' for Inactive)
REMARK    1  A    between atoms: C_1  and  C_2
REMARK    2  A    between atoms: C_2  and  O_3
REMARK    3  A    between atoms: O_3  and  C_4
REMARK    4  A    between atoms: C_12  and  C_13
REMARK    5  A    between atoms: C_13  and  N_14
REMARK    6  A    between atoms: C_17  and  N_18
REMARK                            x       y       z     vdW  Elec       q    Type
REMARK                         _______ _______ _______ _____ _____    ______ ____
ROOT
ATOM      1  N   UNL     1       2.199   7.517  17.970  0.00  0.00    +0.000 NA
ATOM      2  C   UNL     1       3.007   8.714  17.715  0.00  0.00    +0.000 C 
ATOM      3  C   UNL     1       2.194   9.862  18.264  0.00  0.00    +0.000 C 
ATOM      4  C   UNL     1       0.791   9.527  17.756  0.00  0.00    +0.000 C 
ATOM      5  C   UNL     1       0.785   7.993  17.954  0.00  0.00    +0.000 C 
ENDROOT
BRANCH   4   6
ATOM      6  N   UNL     1      -0.268  10.303  18.386  0.00  0.00    +0.000 N 
ATOM      7  C   UNL     1      -0.044  11.140  19.498  0.00  0.00    +0.000 C 
ATOM      8  O   UNL     1       0.995  11.301  20.122  0.00  0.00    +0.000 OA
ATOM      9  C   UNL     1      -1.349  11.852  19.825  0.00  0.00    +0.000 C 
ATOM     10  C   UNL     1      -2.251  11.390  18.732  0.00  0.00    +0.000 A 
ATOM     11  C   UNL     1      -3.578  11.729  18.524  0.00  0.00    +0.000 A 
ATOM     12  C   UNL     1      -4.221  11.198  17.409  0.00  0.00    +0.000 A 
ATOM     13  C   UNL     1      -3.522  10.379  16.510  0.00  0.00    +0.000 A 
ATOM     14  C   UNL     1      -2.178  10.054  16.730  0.00  0.00    +0.000 A 
ATOM     15  C   UNL     1      -1.562  10.531  17.872  0.00  0.00    +0.000 A 
ENDBRANCH   4   6
BRANCH   1  16
ATOM     16  C   UNL     1       2.491   6.873  19.261  0.00  0.00    +0.000 C 
BRANCH  16  25
ATOM     17  C   UNL     1       5.473   4.179  16.558  0.00  0.00    +0.000 C 
ATOM     18  O   UNL     1       5.164   4.206  15.368  0.00  0.00    +0.000 OA
ATOM     19  N   UNL     1       4.598   3.900  17.563  0.00  0.00    +0.000 N 
ATOM     20  C   UNL     1       3.205   3.592  17.362  0.00  0.00    +0.000 C 
ATOM     21  C   UNL     1       2.984   2.411  18.317  0.00  0.00    +0.000 C 
ATOM     22  C   UNL     1       4.114   2.523  19.353  0.00  0.00    +0.000 C 
ATOM     23  C   UNL     1       4.849   3.815  18.989  0.00  0.00    +0.000 C 
ATOM     24  C   UNL     1       4.206   5.027  19.679  0.00  0.00    +0.000 C 
ATOM     25  C   UNL     1       2.763   5.348  19.203  0.00  0.00    +0.000 C 
ATOM     26  C   UNL     1       2.404   4.828  17.782  0.00  0.00    +0.000 C 
BRANCH  17  27
ATOM     27  O   UNL     1       6.734   4.391  17.023  0.00  0.00    +0.000 OA
BRANCH  27  29
ATOM     28  C   UNL     1       7.652   6.130  18.445  0.00  0.00    +0.000 C 
ATOM     29  C   UNL     1       7.172   5.757  17.055  0.00  0.00    +0.000 C 
ENDBRANCH  27  29
ENDBRANCH  17  27
ENDBRANCH  16  25
ENDBRANCH   1  16
TORSDOF 5
ENDMDL
MODEL 7
REMARK VINA RESULT:      -7.3      3.354      9.855
REMARK  Name = 
REMARK  6 active torsions:
REMARK  status: ('A' for Active; 'I' for Inactive)
REMARK    1  A    between atoms: C_1  and  C_2
REMARK    2  A    between atoms: C_2  and  O_3
REMARK    3  A    between atoms: O_3  and  C_4
REMARK    4  A    between atoms: C_12  and  C_13
REMARK    5  A    between atoms: C_13  and  N_14
REMARK    6  A    between atoms: C_17  and  N_18
REMARK                            x       y       z     vdW  Elec       q    Type
REMARK                         _______ _______ _______ _____ _____    ______ ____
ROOT
ATOM      1  N   UNL     1      -0.642  10.199  22.300  0.00  0.00    +0.000 NA
ATOM      2  C   UNL     1       0.365   9.564  23.156  0.00  0.00    +0.000 C 
ATOM      3  C   UNL     1       1.437   9.080  22.210  0.00  0.00    +0.000 C 
ATOM      4  C   UNL     1       0.609   8.460  21.084  0.00  0.00    +0.000 C 
ATOM      5  C   UNL     1      -0.544   9.487  20.992  0.00  0.00    +0.000 C 
ENDROOT
BRANCH   4   6
ATOM      6  N   UNL     1       1.370   8.175  19.875  0.00  0.00    +0.000 N 
ATOM      7  C   UNL     1       1.654   9.156  18.904  0.00  0.00    +0.000 C 
ATOM      8  O   UNL     1       1.284  10.321  18.878  0.00  0.00    +0.000 OA
ATOM      9  C   UNL     1       2.535   8.523  17.836  0.00  0.00    +0.000 C 
ATOM     10  C   UNL     1       2.767   7.154  18.380  0.00  0.00    +0.000 A 
ATOM     11  C   UNL     1       3.514   6.131  17.818  0.00  0.00    +0.000 A 
ATOM     12  C   UNL     1       3.620   4.936  18.524  0.00  0.00    +0.000 A 
ATOM     13  C   UNL     1       3.018   4.800  19.784  0.00  0.00    +0.000 A 
ATOM     14  C   UNL     1       2.274   5.847  20.341  0.00  0.00    +0.000 A 
ATOM     15  C   UNL     1       2.118   7.010  19.608  0.00  0.00    +0.000 A 
ENDBRANCH   4   6
BRANCH   1  16
ATOM     16  C   UNL     1      -0.420  11.640  22.097  0.00  0.00    +0.000 C 
BRANCH  16  25
ATOM     17  C   UNL     1      -4.916  13.180  21.165  0.00  0.00    +0.000 C 
ATOM     18  O   UNL     1      -4.959  13.891  20.163  0.00  0.00    +0.000 OA
ATOM     19  N   UNL     1      -4.047  13.372  22.195  0.00  0.00    +0.000 N 
ATOM     20  C   UNL     1      -3.076  14.434  22.248  0.00  0.00    +0.000 C 
ATOM     21  C   UNL     1      -3.196  14.922  23.698  0.00  0.00    +0.000 C 
ATOM     22  C   UNL     1      -3.818  13.743  24.463  0.00  0.00    +0.000 C 
ATOM     23  C   UNL     1      -3.920  12.619  23.429  0.00  0.00    +0.000 C 
ATOM     24  C   UNL     1      -2.623  11.798  23.378  0.00  0.00    +0.000 C 
ATOM     25  C   UNL     1      -1.386  12.581  22.862  0.00  0.00    +0.000 C 
ATOM     26  C   UNL     1      -1.706  13.809  21.964  0.00  0.00    +0.000 C 
BRANCH  17  27
ATOM     27  O   UNL     1      -5.752  12.131  21.390  0.00  0.00    +0.000 OA
BRANCH  27  29
ATOM     28  C   UNL     1      -7.456  10.560  20.667  0.00  0.00    +0.000 C 
ATOM     29  C   UNL     1      -6.522  11.685  20.263  0.00  0.00    +0.000 C 
ENDBRANCH  27  29
ENDBRANCH  17  27
ENDBRANCH  16  25
ENDBRANCH   1  16
TORSDOF 5
ENDMDL
MODEL 8
REMARK VINA RESULT:      -7.3      1.899      2.933
REMARK  Name = 
REMARK  6 active torsions:
REMARK  status: ('A' for Active; 'I' for Inactive)
REMARK    1  A    between atoms: C_1  and  C_2
REMARK    2  A    between atoms: C_2  and  O_3
REMARK    3  A    between atoms: O_3  and  C_4
REMARK    4  A    between atoms: C_12  and  C_13
REMARK    5  A    between atoms: C_13  and  N_14
REMARK    6  A    between atoms: C_17  and  N_18
REMARK                            x       y       z     vdW  Elec       q    Type
REMARK                         _______ _______ _______ _____ _____    ______ ____
ROOT
ATOM      1  N   UNL     1       2.165   8.295  17.795  0.00  0.00    +0.000 NA
ATOM      2  C   UNL     1       2.252   9.740  17.555  0.00  0.00    +0.000 C 
ATOM      3  C   UNL     1       1.835  10.381  18.857  0.00  0.00    +0.000 C 
ATOM      4  C   UNL     1       0.613   9.546  19.243  0.00  0.00    +0.000 C 
ATOM      5  C   UNL     1       1.100   8.137  18.828  0.00  0.00    +0.000 C 
ENDROOT
BRANCH   4   6
ATOM      6  N   UNL     1       0.173   9.740  20.618  0.00  0.00    +0.000 N 
ATOM      7  C   UNL     1       0.776   9.087  21.712  0.00  0.00    +0.000 C 
ATOM      8  O   UNL     1       1.671   8.254  21.692  0.00  0.00    +0.000 OA
ATOM      9  C   UNL     1       0.119   9.596  22.987  0.00  0.00    +0.000 C 
ATOM     10  C   UNL     1      -0.813  10.641  22.474  0.00  0.00    +0.000 A 
ATOM     11  C   UNL     1      -1.674  11.444  23.204  0.00  0.00    +0.000 A 
ATOM     12  C   UNL     1      -2.435  12.383  22.513  0.00  0.00    +0.000 A 
ATOM     13  C   UNL     1      -2.295  12.526  21.124  0.00  0.00    +0.000 A 
ATOM     14  C   UNL     1      -1.414  11.712  20.403  0.00  0.00    +0.000 A 
ATOM     15  C   UNL     1      -0.706  10.739  21.085  0.00  0.00    +0.000 A 
ENDBRANCH   4   6
BRANCH   1  16
ATOM     16  C   UNL     1       3.421   7.702  18.284  0.00  0.00    +0.000 C 
BRANCH  16  25
ATOM     17  C   UNL     1       7.070   4.619  17.487  0.00  0.00    +0.000 C 
ATOM     18  O   UNL     1       7.508   4.713  16.342  0.00  0.00    +0.000 OA
ATOM     19  N   UNL     1       5.750   4.464  17.784  0.00  0.00    +0.000 N 
ATOM     20  C   UNL     1       4.703   4.380  16.800  0.00  0.00    +0.000 C 
ATOM     21  C   UNL     1       3.834   3.234  17.335  0.00  0.00    +0.000 C 
ATOM     22  C   UNL     1       4.166   3.152  18.834  0.00  0.00    +0.000 C 
ATOM     23  C   UNL     1       5.124   4.319  19.085  0.00  0.00    +0.000 C 
ATOM     24  C   UNL     1       4.350   5.605  19.408  0.00  0.00    +0.000 C 
ATOM     25  C   UNL     1       3.494   6.155  18.234  0.00  0.00    +0.000 C 
ATOM     26  C   UNL     1       3.959   5.719  16.816  0.00  0.00    +0.000 C 
BRANCH  17  27
ATOM     27  O   UNL     1       7.848   4.625  18.603  0.00  0.00    +0.000 OA
BRANCH  27  29
ATOM     28  C   UNL     1       7.753   7.018  18.212  0.00  0.00    +0.000 C 
ATOM     29  C   UNL     1       8.100   5.911  19.189  0.00  0.00    +0.000 C 
ENDBRANCH  27  29
ENDBRANCH  17  27
ENDBRANCH  16  25
ENDBRANCH   1  16
TORSDOF 5
ENDMDL
MODEL 9
REMARK VINA RESULT:      -7.2      2.157      3.934
REMARK  Name = 
REMARK  6 active torsions:
REMARK  status: ('A' for Active; 'I' for Inactive)
REMARK    1  A    between atoms: C_1  and  C_2
REMARK    2  A    between atoms: C_2  and  O_3
REMARK    3  A    between atoms: O_3  and  C_4
REMARK    4  A    between atoms: C_12  and  C_13
REMARK    5  A    between atoms: C_13  and  N_14
REMARK    6  A    between atoms: C_17  and  N_18
REMARK                            x       y       z     vdW  Elec       q    Type
REMARK                         _______ _______ _______ _____ _____    ______ ____
ROOT
ATOM      1  N   UNL     1       1.925   8.182  17.703  0.00  0.00    +0.000 NA
ATOM      2  C   UNL     1       2.736   9.366  17.405  0.00  0.00    +0.000 C 
ATOM      3  C   UNL     1       2.257  10.425  18.369  0.00  0.00    +0.000 C 
ATOM      4  C   UNL     1       0.739  10.260  18.291  0.00  0.00    +0.000 C 
ATOM      5  C   UNL     1       0.632   8.718  18.223  0.00  0.00    +0.000 C 
ENDROOT
BRANCH   4   6
ATOM      6  N   UNL     1       0.012  10.950  19.347  0.00  0.00    +0.000 N 
ATOM      7  C   UNL     1      -0.821  12.060  19.102  0.00  0.00    +0.000 C 
ATOM      8  O   UNL     1      -1.016  12.636  18.040  0.00  0.00    +0.000 OA
ATOM      9  C   UNL     1      -1.477  12.460  20.416  0.00  0.00    +0.000 C 
ATOM     10  C   UNL     1      -0.991  11.405  21.352  0.00  0.00    +0.000 A 
ATOM     11  C   UNL     1      -1.280  11.267  22.700  0.00  0.00    +0.000 A 
ATOM     12  C   UNL     1      -0.736  10.177  23.375  0.00  0.00    +0.000 A 
ATOM     13  C   UNL     1       0.045   9.235  22.690  0.00  0.00    +0.000 A 
ATOM     14  C   UNL     1       0.319   9.385  21.325  0.00  0.00    +0.000 A 
ATOM     15  C   UNL     1      -0.170  10.502  20.673  0.00  0.00    +0.000 A 
ENDBRANCH   4   6
BRANCH   1  16
ATOM     16  C   UNL     1       2.530   7.289  18.706  0.00  0.00    +0.000 C 
BRANCH  16  25
ATOM     17  C   UNL     1       3.554   2.635  19.565  0.00  0.00    +0.000 C 
ATOM     18  O   UNL     1       3.897   2.448  20.731  0.00  0.00    +0.000 OA
ATOM     19  N   UNL     1       4.096   3.588  18.758  0.00  0.00    +0.000 N 
ATOM     20  C   UNL     1       5.144   4.489  19.160  0.00  0.00    +0.000 C 
ATOM     21  C   UNL     1       6.075   4.483  17.941  0.00  0.00    +0.000 C 
ATOM     22  C   UNL     1       5.194   4.015  16.771  0.00  0.00    +0.000 C 
ATOM     23  C   UNL     1       3.792   3.883  17.370  0.00  0.00    +0.000 C 
ATOM     24  C   UNL     1       3.036   5.218  17.302  0.00  0.00    +0.000 C 
ATOM     25  C   UNL     1       3.641   6.346  18.180  0.00  0.00    +0.000 C 
ATOM     26  C   UNL     1       4.499   5.861  19.382  0.00  0.00    +0.000 C 
BRANCH  17  27
ATOM     27  O   UNL     1       2.613   1.893  18.920  0.00  0.00    +0.000 OA
BRANCH  27  29
ATOM     28  C   UNL     1       0.898   3.394  19.754  0.00  0.00    +0.000 C 
ATOM     29  C   UNL     1       1.283   1.957  19.458  0.00  0.00    +0.000 C 
ENDBRANCH  27  29
ENDBRANCH  17  27
ENDBRANCH  16  25
ENDBRANCH   1  16
TORSDOF 5
ENDMDL
