MODEL 1
REMARK VINA RESULT:      -9.0      0.000      0.000
REMARK  Name = 
REMARK  8 active torsions:
REMARK  status: ('A' for Active; 'I' for Inactive)
REMARK    1  A    between atoms: C_2  and  C_24
REMARK    2  A    between atoms: N_3  and  C_4
REMARK    3  A    between atoms: C_4  and  C_5
REMARK    4  A    between atoms: C_5  and  N_6
REMARK    5  A    between atoms: C_8  and  S_9
REMARK    6  A    between atoms: S_9  and  C_10
REMARK    7  A    between atoms: C_10  and  C_11
REMARK    8  A    between atoms: C_28  and  C_29
REMARK                            x       y       z     vdW  Elec       q    Type
REMARK                         _______ _______ _______ _____ _____    ______ ____
ROOT
ATOM      1  N   UNL     1       2.537   6.507  18.934  0.00  0.00    +0.000 N 
ATOM      2  C   UNL     1       3.439   6.334  17.906  0.00  0.00    +0.000 A 
ATOM      3  C   UNL     1       3.643   4.988  17.733  0.00  0.00    +0.000 A 
ATOM      4  C   UNL     1       2.891   4.304  18.732  0.00  0.00    +0.000 A 
ATOM      5  C   UNL     1       2.719   2.943  19.070  0.00  0.00    +0.000 A 
ATOM      6  C   UNL     1       1.887   2.586  20.133  0.00  0.00    +0.000 A 
ATOM      7  C   UNL     1       1.218   3.563  20.860  0.00  0.00    +0.000 A 
ATOM      8  C   UNL     1       1.363   4.920  20.546  0.00  0.00    +0.000 A 
ATOM      9  C   UNL     1       2.208   5.274  19.478  0.00  0.00    +0.000 A 
ENDROOT
BRANCH   1  10
ATOM     10  C   UNL     1       2.017   7.785  19.411  0.00  0.00    +0.000 C 
BRANCH  10  11
ATOM     11  C   UNL     1       1.934   8.890  18.354  0.00  0.00    +0.000 C 
BRANCH  11  14
ATOM     12  O   UNL     1       0.378  11.060  19.211  0.00  0.00    +0.000 OA
ATOM     13  C   UNL     1      -0.118  10.256  18.431  0.00  0.00    +0.000 C 
ATOM     14  N   UNL     1       0.575   9.179  17.919  0.00  0.00    +0.000 N 
ATOM     15  H   UNL     1       0.176   8.629  17.170  0.00  0.00    +0.000 HD
BRANCH  13  16
ATOM     16  C   UNL     1      -1.526  10.429  17.977  0.00  0.00    +0.000 A 
ATOM     17  C   UNL     1      -1.872   9.924  16.718  0.00  0.00    +0.000 A 
ATOM     18  C   UNL     1      -3.159  10.106  16.216  0.00  0.00    +0.000 A 
ATOM     19  C   UNL     1      -4.101  10.820  16.956  0.00  0.00    +0.000 A 
ATOM     20  C   UNL     1      -3.766  11.358  18.209  0.00  0.00    +0.000 A 
ATOM     21  C   UNL     1      -2.474  11.141  18.724  0.00  0.00    +0.000 A 
BRANCH  20  22
ATOM     22  C   UNL     1      -4.761  12.194  18.980  0.00  0.00    +0.000 C 
ATOM     23  F   UNL     1      -5.553  12.971  18.190  0.00  0.00    +0.000 F 
ATOM     24  F   UNL     1      -5.607  11.435  19.729  0.00  0.00    +0.000 F 
ATOM     25  F   UNL     1      -4.153  13.045  19.851  0.00  0.00    +0.000 F 
ENDBRANCH  20  22
ENDBRANCH  13  16
ENDBRANCH  11  14
ENDBRANCH  10  11
ENDBRANCH   1  10
BRANCH   3  26
ATOM     26  S   UNL     1       4.580   4.165  16.498  0.00  0.00    +0.000 S 
BRANCH  26  27
ATOM     27  C   UNL     1       5.698   5.435  15.861  0.00  0.00    +0.000 C 
BRANCH  27  28
ATOM     28  C   UNL     1       6.626   5.957  16.939  0.00  0.00    +0.000 A 
ATOM     29  C   UNL     1       7.105   5.104  17.950  0.00  0.00    +0.000 A 
ATOM     30  C   UNL     1       7.947   5.587  18.959  0.00  0.00    +0.000 A 
ATOM     31  C   UNL     1       8.325   6.929  18.967  0.00  0.00    +0.000 A 
ATOM     32  C   UNL     1       7.874   7.768  17.957  0.00  0.00    +0.000 A 
ATOM     33  F   UNL     1       8.242   9.058  17.960  0.00  0.00    +0.000 F 
ATOM     34  C   UNL     1       7.041   7.297  16.945  0.00  0.00    +0.000 A 
ENDBRANCH  27  28
ENDBRANCH  26  27
ENDBRANCH   3  26
TORSDOF 8
ENDMDL
MODEL 2
REMARK VINA RESULT:      -8.9      1.486      2.152
REMARK  Name = 
REMARK  8 active torsions:
REMARK  status: ('A' for Active; 'I' for Inactive)
REMARK    1  A    between atoms: C_2  and  C_24
REMARK    2  A    between atoms: N_3  and  C_4
REMARK    3  A    between atoms: C_4  and  C_5
REMARK    4  A    between atoms: C_5  and  N_6
REMARK    5  A    between atoms: C_8  and  S_9
REMARK    6  A    between atoms: S_9  and  C_10
REMARK    7  A    between atoms: C_10  and  C_11
REMARK    8  A    between atoms: C_28  and  C_29
REMARK                            x       y       z     vdW  Elec       q    Type
REMARK                         _______ _______ _______ _____ _____    ______ ____
ROOT
ATOM      1  N   UNL     1       2.732   6.421  18.784  0.00  0.00    +0.000 N 
ATOM      2  C   UNL     1       3.682   6.188  17.813  0.00  0.00    +0.000 A 
ATOM      3  C   UNL     1       3.853   4.831  17.694  0.00  0.00    +0.000 A 
ATOM      4  C   UNL     1       3.026   4.203  18.671  0.00  0.00    +0.000 A 
ATOM      5  C   UNL     1       2.794   2.859  19.041  0.00  0.00    +0.000 A 
ATOM      6  C   UNL     1       1.894   2.563  20.067  0.00  0.00    +0.000 A 
ATOM      7  C   UNL     1       1.218   3.582  20.725  0.00  0.00    +0.000 A 
ATOM      8  C   UNL     1       1.422   4.923  20.378  0.00  0.00    +0.000 A 
ATOM      9  C   UNL     1       2.335   5.216  19.347  0.00  0.00    +0.000 A 
ENDROOT
BRANCH   1  10
ATOM     10  C   UNL     1       2.227   7.728  19.192  0.00  0.00    +0.000 C 
BRANCH  10  11
ATOM     11  C   UNL     1       2.167   8.779  18.079  0.00  0.00    +0.000 C 
BRANCH  11  14
ATOM     12  O   UNL     1       1.250  10.930  19.627  0.00  0.00    +0.000 OA
ATOM     13  C   UNL     1       0.496  10.450  18.789  0.00  0.00    +0.000 C 
ATOM     14  N   UNL     1       0.865   9.418  17.951  0.00  0.00    +0.000 N 
ATOM     15  H   UNL     1       0.267   9.153  17.180  0.00  0.00    +0.000 HD
BRANCH  13  16
ATOM     16  C   UNL     1      -0.880  10.992  18.625  0.00  0.00    +0.000 A 
ATOM     17  C   UNL     1      -1.438  11.691  19.702  0.00  0.00    +0.000 A 
ATOM     18  C   UNL     1      -2.744  12.173  19.628  0.00  0.00    +0.000 A 
ATOM     19  C   UNL     1      -3.511  11.934  18.488  0.00  0.00    +0.000 A 
ATOM     20  C   UNL     1      -2.980  11.212  17.408  0.00  0.00    +0.000 A 
ATOM     21  C   UNL     1      -1.648  10.758  17.476  0.00  0.00    +0.000 A 
BRANCH  20  22
ATOM     22  C   UNL     1      -3.831  10.888  16.203  0.00  0.00    +0.000 C 
ATOM     23  F   UNL     1      -5.103  11.370  16.286  0.00  0.00    +0.000 F 
ATOM     24  F   UNL     1      -3.313  11.393  15.049  0.00  0.00    +0.000 F 
ATOM     25  F   UNL     1      -3.952   9.548  16.002  0.00  0.00    +0.000 F 
ENDBRANCH  20  22
ENDBRANCH  13  16
ENDBRANCH  11  14
ENDBRANCH  10  11
ENDBRANCH   1  10
BRANCH   3  26
ATOM     26  S   UNL     1       4.829   3.940  16.539  0.00  0.00    +0.000 S 
BRANCH  26  27
ATOM     27  C   UNL     1       5.907   5.192  15.804  0.00  0.00    +0.000 C 
BRANCH  27  28
ATOM     28  C   UNL     1       6.734   5.906  16.853  0.00  0.00    +0.000 A 
ATOM     29  C   UNL     1       6.984   7.287  16.755  0.00  0.00    +0.000 A 
ATOM     30  C   UNL     1       7.765   7.946  17.712  0.00  0.00    +0.000 A 
ATOM     31  C   UNL     1       8.302   7.234  18.783  0.00  0.00    +0.000 A 
ATOM     32  C   UNL     1       8.037   5.875  18.896  0.00  0.00    +0.000 A 
ATOM     33  F   UNL     1       8.548   5.190  19.930  0.00  0.00    +0.000 F 
ATOM     34  C   UNL     1       7.257   5.210  17.953  0.00  0.00    +0.000 A 
ENDBRANCH  27  28
ENDBRANCH  26  27
ENDBRANCH   3  26
TORSDOF 8
ENDMDL
MODEL 3
REMARK VINA RESULT:      -8.8      3.858     10.772
REMARK  Name = 
REMARK  8 active torsions:
REMARK  status: ('A' for Active; 'I' for Inactive)
REMARK    1  A    between atoms: C_2  and  C_24
REMARK    2  A    between atoms: N_3  and  C_4
REMARK    3  A    between atoms: C_4  and  C_5
REMARK    4  A    between atoms: C_5  and  N_6
REMARK    5  A    between atoms: C_8  and  S_9
REMARK    6  A    between atoms: S_9  and  C_10
REMARK    7  A    between atoms: C_10  and  C_11
REMARK    8  A    between atoms: C_28  and  C_29
REMARK                            x       y       z     vdW  Elec       q    Type
REMARK                         _______ _______ _______ _____ _____    ______ ____
ROOT
ATOM      1  N   UNL     1      -0.357  10.517  19.162  0.00  0.00    +0.000 N 
ATOM      2  C   UNL     1      -1.114  11.658  19.006  0.00  0.00    +0.000 A 
ATOM      3  C   UNL     1      -1.483  12.104  20.251  0.00  0.00    +0.000 A 
ATOM      4  C   UNL     1      -0.990  11.170  21.209  0.00  0.00    +0.000 A 
ATOM      5  C   UNL     1      -1.068  11.076  22.617  0.00  0.00    +0.000 A 
ATOM      6  C   UNL     1      -0.459  10.009  23.281  0.00  0.00    +0.000 A 
ATOM      7  C   UNL     1       0.230   9.038  22.565  0.00  0.00    +0.000 A 
ATOM      8  C   UNL     1       0.329   9.106  21.171  0.00  0.00    +0.000 A 
ATOM      9  C   UNL     1      -0.291  10.180  20.506  0.00  0.00    +0.000 A 
ENDROOT
BRANCH   1  10
ATOM     10  C   UNL     1       0.267   9.750  18.088  0.00  0.00    +0.000 C 
BRANCH  10  11
ATOM     11  C   UNL     1       1.795   9.663  18.153  0.00  0.00    +0.000 C 
BRANCH  11  14
ATOM     12  O   UNL     1       2.397   7.421  19.726  0.00  0.00    +0.000 OA
ATOM     13  C   UNL     1       2.625   7.370  18.524  0.00  0.00    +0.000 C 
ATOM     14  N   UNL     1       2.329   8.402  17.659  0.00  0.00    +0.000 N 
ATOM     15  H   UNL     1       2.398   8.261  16.659  0.00  0.00    +0.000 HD
BRANCH  13  16
ATOM     16  C   UNL     1       3.231   6.146  17.931  0.00  0.00    +0.000 A 
ATOM     17  C   UNL     1       2.438   4.994  17.861  0.00  0.00    +0.000 A 
ATOM     18  C   UNL     1       2.969   3.803  17.369  0.00  0.00    +0.000 A 
ATOM     19  C   UNL     1       4.304   3.748  16.969  0.00  0.00    +0.000 A 
ATOM     20  C   UNL     1       5.123   4.884  17.056  0.00  0.00    +0.000 A 
ATOM     21  C   UNL     1       4.571   6.093  17.524  0.00  0.00    +0.000 A 
BRANCH  20  22
ATOM     22  C   UNL     1       6.588   4.809  16.694  0.00  0.00    +0.000 C 
ATOM     23  F   UNL     1       7.117   6.002  16.304  0.00  0.00    +0.000 F 
ATOM     24  F   UNL     1       7.358   4.377  17.730  0.00  0.00    +0.000 F 
ATOM     25  F   UNL     1       6.822   3.945  15.669  0.00  0.00    +0.000 F 
ENDBRANCH  20  22
ENDBRANCH  13  16
ENDBRANCH  11  14
ENDBRANCH  10  11
ENDBRANCH   1  10
BRANCH   3  26
ATOM     26  S   UNL     1      -2.338  13.573  20.687  0.00  0.00    +0.000 S 
BRANCH  26  27
ATOM     27  C   UNL     1      -4.082  13.169  20.432  0.00  0.00    +0.000 C 
BRANCH  27  28
ATOM     28  C   UNL     1      -4.815  12.992  21.746  0.00  0.00    +0.000 A 
ATOM     29  C   UNL     1      -6.221  12.960  21.787  0.00  0.00    +0.000 A 
ATOM     30  C   UNL     1      -6.902  12.817  23.001  0.00  0.00    +0.000 A 
ATOM     31  C   UNL     1      -6.185  12.698  24.192  0.00  0.00    +0.000 A 
ATOM     32  C   UNL     1      -4.797  12.704  24.152  0.00  0.00    +0.000 A 
ATOM     33  F   UNL     1      -4.107  12.584  25.296  0.00  0.00    +0.000 F 
ATOM     34  C   UNL     1      -4.109  12.841  22.949  0.00  0.00    +0.000 A 
ENDBRANCH  27  28
ENDBRANCH  26  27
ENDBRANCH   3  26
TORSDOF 8
ENDMDL
MODEL 4
REMARK VINA RESULT:      -8.8      1.575      2.042
REMARK  Name = 
REMARK  8 active torsions:
REMARK  status: ('A' for Active; 'I' for Inactive)
REMARK    1  A    between atoms: C_2  and  C_24
REMARK    2  A    between atoms: N_3  and  C_4
REMARK    3  A    between atoms: C_4  and  C_5
REMARK    4  A    between atoms: C_5  and  N_6
REMARK    5  A    between atoms: C_8  and  S_9
REMARK    6  A    between atoms: S_9  and  C_10
REMARK    7  A    between atoms: C_10  and  C_11
REMARK    8  A    between atoms: C_28  and  C_29
REMARK                            x       y       z     vdW  Elec       q    Type
REMARK                         _______ _______ _______ _____ _____    ______ ____
ROOT
ATOM      1  N   UNL     1       2.653   6.138  18.779  0.00  0.00    +0.000 N 
ATOM      2  C   UNL     1       3.609   6.291  17.797  0.00  0.00    +0.000 A 
ATOM      3  C   UNL     1       3.782   5.081  17.172  0.00  0.00    +0.000 A 
ATOM      4  C   UNL     1       2.951   4.130  17.833  0.00  0.00    +0.000 A 
ATOM      5  C   UNL     1       2.719   2.746  17.663  0.00  0.00    +0.000 A 
ATOM      6  C   UNL     1       1.815   2.082  18.495  0.00  0.00    +0.000 A 
ATOM      7  C   UNL     1       1.134   2.776  19.488  0.00  0.00    +0.000 A 
ATOM      8  C   UNL     1       1.338   4.147  19.677  0.00  0.00    +0.000 A 
ATOM      9  C   UNL     1       2.255   4.810  18.840  0.00  0.00    +0.000 A 
ENDROOT
BRANCH   1  10
ATOM     10  C   UNL     1       2.145   7.192  19.651  0.00  0.00    +0.000 C 
BRANCH  10  11
ATOM     11  C   UNL     1       2.251   8.612  19.086  0.00  0.00    +0.000 C 
BRANCH  11  14
ATOM     12  O   UNL     1       1.313  11.121  19.916  0.00  0.00    +0.000 OA
ATOM     13  C   UNL     1       0.584  10.425  19.220  0.00  0.00    +0.000 C 
ATOM     14  N   UNL     1       0.966   9.195  18.728  0.00  0.00    +0.000 N 
ATOM     15  H   UNL     1       0.392   8.723  18.042  0.00  0.00    +0.000 HD
BRANCH  13  16
ATOM     16  C   UNL     1      -0.777  10.905  18.853  0.00  0.00    +0.000 A 
ATOM     17  C   UNL     1      -1.489  11.640  19.808  0.00  0.00    +0.000 A 
ATOM     18  C   UNL     1      -2.789  12.067  19.542  0.00  0.00    +0.000 A 
ATOM     19  C   UNL     1      -3.397  11.737  18.330  0.00  0.00    +0.000 A 
ATOM     20  C   UNL     1      -2.710  10.978  17.370  0.00  0.00    +0.000 A 
ATOM     21  C   UNL     1      -1.385  10.578  17.632  0.00  0.00    +0.000 A 
BRANCH  20  22
ATOM     22  C   UNL     1      -3.390  10.556  16.089  0.00  0.00    +0.000 C 
ATOM     23  F   UNL     1      -2.889  11.164  14.977  0.00  0.00    +0.000 F 
ATOM     24  F   UNL     1      -3.290   9.218  15.863  0.00  0.00    +0.000 F 
ATOM     25  F   UNL     1      -4.722  10.834  16.097  0.00  0.00    +0.000 F 
ENDBRANCH  20  22
ENDBRANCH  13  16
ENDBRANCH  11  14
ENDBRANCH  10  11
ENDBRANCH   1  10
BRANCH   3  26
ATOM     26  S   UNL     1       4.764   4.695  15.770  0.00  0.00    +0.000 S 
BRANCH  26  27
ATOM     27  C   UNL     1       6.327   4.109  16.465  0.00  0.00    +0.000 C 
BRANCH  27  28
ATOM     28  C   UNL     1       7.001   5.174  17.306  0.00  0.00    +0.000 A 
ATOM     29  C   UNL     1       7.533   4.862  18.571  0.00  0.00    +0.000 A 
ATOM     30  C   UNL     1       8.139   5.848  19.359  0.00  0.00    +0.000 A 
ATOM     31  C   UNL     1       8.225   7.158  18.890  0.00  0.00    +0.000 A 
ATOM     32  C   UNL     1       7.723   7.464  17.632  0.00  0.00    +0.000 A 
ATOM     33  F   UNL     1       7.811   8.723  17.178  0.00  0.00    +0.000 F 
ATOM     34  C   UNL     1       7.123   6.490  16.837  0.00  0.00    +0.000 A 
ENDBRANCH  27  28
ENDBRANCH  26  27
ENDBRANCH   3  26
TORSDOF 8
ENDMDL
MODEL 5
REMARK VINA RESULT:      -8.8      3.524     10.938
REMARK  Name = 
REMARK  8 active torsions:
REMARK  status: ('A' for Active; 'I' for Inactive)
REMARK    1  A    between atoms: C_2  and  C_24
REMARK    2  A    between atoms: N_3  and  C_4
REMARK    3  A    between atoms: C_4  and  C_5
REMARK    4  A    between atoms: C_5  and  N_6
REMARK    5  A    between atoms: C_8  and  S_9
REMARK    6  A    between atoms: S_9  and  C_10
REMARK    7  A    between atoms: C_10  and  C_11
REMARK    8  A    between atoms: C_28  and  C_29
REMARK                            x       y       z     vdW  Elec       q    Type
REMARK                         _______ _______ _______ _____ _____    ______ ____
ROOT
ATOM      1  N   UNL     1       0.100  10.932  18.657  0.00  0.00    +0.000 N 
ATOM      2  C   UNL     1       0.110  11.955  19.581  0.00  0.00    +0.000 A 
ATOM      3  C   UNL     1      -1.184  12.371  19.778  0.00  0.00    +0.000 A 
ATOM      4  C   UNL     1      -2.017  11.622  18.897  0.00  0.00    +0.000 A 
ATOM      5  C   UNL     1      -3.405  11.615  18.630  0.00  0.00    +0.000 A 
ATOM      6  C   UNL     1      -3.930  10.733  17.683  0.00  0.00    +0.000 A 
ATOM      7  C   UNL     1      -3.096   9.855  17.003  0.00  0.00    +0.000 A 
ATOM      8  C   UNL     1      -1.718   9.834  17.249  0.00  0.00    +0.000 A 
ATOM      9  C   UNL     1      -1.194  10.729  18.200  0.00  0.00    +0.000 A 
ENDROOT
BRANCH   1  10
ATOM     10  C   UNL     1       1.265  10.183  18.197  0.00  0.00    +0.000 C 
BRANCH  10  11
ATOM     11  C   UNL     1       1.621   8.952  19.036  0.00  0.00    +0.000 C 
BRANCH  11  14
ATOM     12  O   UNL     1       2.226   6.380  19.977  0.00  0.00    +0.000 OA
ATOM     13  C   UNL     1       2.617   6.702  18.862  0.00  0.00    +0.000 C 
ATOM     14  N   UNL     1       2.339   7.927  18.293  0.00  0.00    +0.000 N 
ATOM     15  H   UNL     1       2.555   8.095  17.319  0.00  0.00    +0.000 HD
BRANCH  13  16
ATOM     16  C   UNL     1       3.416   5.746  18.047  0.00  0.00    +0.000 A 
ATOM     17  C   UNL     1       2.849   4.498  17.764  0.00  0.00    +0.000 A 
ATOM     18  C   UNL     1       3.572   3.541  17.054  0.00  0.00    +0.000 A 
ATOM     19  C   UNL     1       4.878   3.814  16.647  0.00  0.00    +0.000 A 
ATOM     20  C   UNL     1       5.475   5.049  16.945  0.00  0.00    +0.000 A 
ATOM     21  C   UNL     1       4.726   6.024  17.633  0.00  0.00    +0.000 A 
BRANCH  20  22
ATOM     22  C   UNL     1       6.913   5.321  16.570  0.00  0.00    +0.000 C 
ATOM     23  F   UNL     1       7.115   5.450  15.229  0.00  0.00    +0.000 F 
ATOM     24  F   UNL     1       7.389   6.465  17.134  0.00  0.00    +0.000 F 
ATOM     25  F   UNL     1       7.749   4.328  16.980  0.00  0.00    +0.000 F 
ENDBRANCH  20  22
ENDBRANCH  13  16
ENDBRANCH  11  14
ENDBRANCH  10  11
ENDBRANCH   1  10
BRANCH   3  26
ATOM     26  S   UNL     1      -1.802  13.545  20.927  0.00  0.00    +0.000 S 
BRANCH  26  27
ATOM     27  C   UNL     1      -2.107  12.585  22.428  0.00  0.00    +0.000 C 
BRANCH  27  28
ATOM     28  C   UNL     1      -3.554  12.674  22.867  0.00  0.00    +0.000 A 
ATOM     29  C   UNL     1      -3.914  12.459  24.210  0.00  0.00    +0.000 A 
ATOM     30  C   UNL     1      -5.252  12.521  24.615  0.00  0.00    +0.000 A 
ATOM     31  C   UNL     1      -6.250  12.804  23.682  0.00  0.00    +0.000 A 
ATOM     32  C   UNL     1      -5.896  13.041  22.361  0.00  0.00    +0.000 A 
ATOM     33  F   UNL     1      -6.854  13.319  21.464  0.00  0.00    +0.000 F 
ATOM     34  C   UNL     1      -4.567  12.987  21.948  0.00  0.00    +0.000 A 
ENDBRANCH  27  28
ENDBRANCH  26  27
ENDBRANCH   3  26
TORSDOF 8
ENDMDL
MODEL 6
REMARK VINA RESULT:      -8.8      4.606      9.800
REMARK  Name = 
REMARK  8 active torsions:
REMARK  status: ('A' for Active; 'I' for Inactive)
REMARK    1  A    between atoms: C_2  and  C_24
REMARK    2  A    between atoms: N_3  and  C_4
REMARK    3  A    between atoms: C_4  and  C_5
REMARK    4  A    between atoms: C_5  and  N_6
REMARK    5  A    between atoms: C_8  and  S_9
REMARK    6  A    between atoms: S_9  and  C_10
REMARK    7  A    between atoms: C_10  and  C_11
REMARK    8  A    between atoms: C_28  and  C_29
REMARK                            x       y       z     vdW  Elec       q    Type
REMARK                         _______ _______ _______ _____ _____    ______ ____
ROOT
ATOM      1  N   UNL     1       0.606  10.624  19.128  0.00  0.00    +0.000 N 
ATOM      2  C   UNL     1       0.615  12.001  19.085  0.00  0.00    +0.000 A 
ATOM      3  C   UNL     1       0.287  12.474  20.332  0.00  0.00    +0.000 A 
ATOM      4  C   UNL     1       0.001  11.349  21.159  0.00  0.00    +0.000 A 
ATOM      5  C   UNL     1      -0.405  11.199  22.504  0.00  0.00    +0.000 A 
ATOM      6  C   UNL     1      -0.605   9.924  23.036  0.00  0.00    +0.000 A 
ATOM      7  C   UNL     1      -0.399   8.795  22.252  0.00  0.00    +0.000 A 
ATOM      8  C   UNL     1       0.009   8.910  20.918  0.00  0.00    +0.000 A 
ATOM      9  C   UNL     1       0.202  10.198  20.385  0.00  0.00    +0.000 A 
ENDROOT
BRANCH   1  10
ATOM     10  C   UNL     1       0.940   9.730  18.022  0.00  0.00    +0.000 C 
BRANCH  10  11
ATOM     11  C   UNL     1       2.353   9.140  18.067  0.00  0.00    +0.000 C 
BRANCH  11  14
ATOM     12  O   UNL     1       4.328   7.404  17.093  0.00  0.00    +0.000 OA
ATOM     13  C   UNL     1       3.378   6.927  17.701  0.00  0.00    +0.000 C 
ATOM     14  N   UNL     1       2.376   7.697  18.253  0.00  0.00    +0.000 N 
ATOM     15  H   UNL     1       1.693   7.275  18.867  0.00  0.00    +0.000 HD
BRANCH  13  16
ATOM     16  C   UNL     1       3.277   5.453  17.888  0.00  0.00    +0.000 A 
ATOM     17  C   UNL     1       4.180   4.643  17.188  0.00  0.00    +0.000 A 
ATOM     18  C   UNL     1       4.097   3.255  17.279  0.00  0.00    +0.000 A 
ATOM     19  C   UNL     1       3.093   2.666  18.048  0.00  0.00    +0.000 A 
ATOM     20  C   UNL     1       2.162   3.460  18.736  0.00  0.00    +0.000 A 
ATOM     21  C   UNL     1       2.272   4.862  18.666  0.00  0.00    +0.000 A 
BRANCH  20  22
ATOM     22  C   UNL     1       1.030   2.825  19.509  0.00  0.00    +0.000 C 
ATOM     23  F   UNL     1       0.255   3.722  20.181  0.00  0.00    +0.000 F 
ATOM     24  F   UNL     1       0.183   2.122  18.709  0.00  0.00    +0.000 F 
ATOM     25  F   UNL     1       1.476   1.944  20.445  0.00  0.00    +0.000 F 
ENDBRANCH  20  22
ENDBRANCH  13  16
ENDBRANCH  11  14
ENDBRANCH  10  11
ENDBRANCH   1  10
BRANCH   3  26
ATOM     26  S   UNL     1       0.266  14.130  20.913  0.00  0.00    +0.000 S 
BRANCH  26  27
ATOM     27  C   UNL     1      -1.397  14.720  20.520  0.00  0.00    +0.000 C 
BRANCH  27  28
ATOM     28  C   UNL     1      -2.444  14.081  21.410  0.00  0.00    +0.000 A 
ATOM     29  C   UNL     1      -2.373  14.205  22.809  0.00  0.00    +0.000 A 
ATOM     30  C   UNL     1      -3.326  13.598  23.635  0.00  0.00    +0.000 A 
ATOM     31  C   UNL     1      -4.369  12.864  23.071  0.00  0.00    +0.000 A 
ATOM     32  C   UNL     1      -4.457  12.761  21.689  0.00  0.00    +0.000 A 
ATOM     33  F   UNL     1      -5.463  12.060  21.145  0.00  0.00    +0.000 F 
ATOM     34  C   UNL     1      -3.516  13.364  20.858  0.00  0.00    +0.000 A 
ENDBRANCH  27  28
ENDBRANCH  26  27
ENDBRANCH   3  26
TORSDOF 8
ENDMDL
MODEL 7
REMARK VINA RESULT:      -8.7      3.963      5.194
REMARK  Name = 
REMARK  8 active torsions:
REMARK  status: ('A' for Active; 'I' for Inactive)
REMARK    1  A    between atoms: C_2  and  C_24
REMARK    2  A    between atoms: N_3  and  C_4
REMARK    3  A    between atoms: C_4  and  C_5
REMARK    4  A    between atoms: C_5  and  N_6
REMARK    5  A    between atoms: C_8  and  S_9
REMARK    6  A    between atoms: S_9  and  C_10
REMARK    7  A    between atoms: C_10  and  C_11
REMARK    8  A    between atoms: C_28  and  C_29
REMARK                            x       y       z     vdW  Elec       q    Type
REMARK                         _______ _______ _______ _____ _____    ______ ____
ROOT
ATOM      1  N   UNL     1       2.816   6.588  18.791  0.00  0.00    +0.000 N 
ATOM      2  C   UNL     1       3.734   6.350  17.791  0.00  0.00    +0.000 A 
ATOM      3  C   UNL     1       4.086   5.024  17.835  0.00  0.00    +0.000 A 
ATOM      4  C   UNL     1       3.411   4.434  18.944  0.00  0.00    +0.000 A 
ATOM      5  C   UNL     1       3.390   3.135  19.501  0.00  0.00    +0.000 A 
ATOM      6  C   UNL     1       2.601   2.868  20.621  0.00  0.00    +0.000 A 
ATOM      7  C   UNL     1       1.826   3.872  21.190  0.00  0.00    +0.000 A 
ATOM      8  C   UNL     1       1.821   5.166  20.659  0.00  0.00    +0.000 A 
ATOM      9  C   UNL     1       2.624   5.431  19.533  0.00  0.00    +0.000 A 
ENDROOT
BRANCH   1  10
ATOM     10  C   UNL     1       2.157   7.862  19.064  0.00  0.00    +0.000 C 
BRANCH  10  11
ATOM     11  C   UNL     1       1.732   8.653  17.822  0.00  0.00    +0.000 C 
BRANCH  11  14
ATOM     12  O   UNL     1      -0.026  10.343  19.207  0.00  0.00    +0.000 OA
ATOM     13  C   UNL     1       0.941  10.841  18.642  0.00  0.00    +0.000 C 
ATOM     14  N   UNL     1       1.884  10.093  17.969  0.00  0.00    +0.000 N 
ATOM     15  H   UNL     1       2.738  10.527  17.645  0.00  0.00    +0.000 HD
BRANCH  13  16
ATOM     16  C   UNL     1       1.149  12.314  18.679  0.00  0.00    +0.000 A 
ATOM     17  C   UNL     1       0.032  13.126  18.909  0.00  0.00    +0.000 A 
ATOM     18  C   UNL     1       0.156  14.514  18.898  0.00  0.00    +0.000 A 
ATOM     19  C   UNL     1       1.392  15.101  18.629  0.00  0.00    +0.000 A 
ATOM     20  C   UNL     1       2.519  14.306  18.370  0.00  0.00    +0.000 A 
ATOM     21  C   UNL     1       2.394  12.904  18.415  0.00  0.00    +0.000 A 
BRANCH  20  22
ATOM     22  C   UNL     1       3.843  14.938  18.006  0.00  0.00    +0.000 C 
ATOM     23  F   UNL     1       4.334  15.769  18.967  0.00  0.00    +0.000 F 
ATOM     24  F   UNL     1       4.814  14.013  17.776  0.00  0.00    +0.000 F 
ATOM     25  F   UNL     1       3.762  15.685  16.872  0.00  0.00    +0.000 F 
ENDBRANCH  20  22
ENDBRANCH  13  16
ENDBRANCH  11  14
ENDBRANCH  10  11
ENDBRANCH   1  10
BRANCH   3  26
ATOM     26  S   UNL     1       5.110   4.117  16.735  0.00  0.00    +0.000 S 
BRANCH  26  27
ATOM     27  C   UNL     1       5.897   5.382  15.711  0.00  0.00    +0.000 C 
BRANCH  27  28
ATOM     28  C   UNL     1       6.274   4.843  14.346  0.00  0.00    +0.000 A 
ATOM     29  C   UNL     1       7.449   5.273  13.702  0.00  0.00    +0.000 A 
ATOM     30  C   UNL     1       7.791   4.793  12.433  0.00  0.00    +0.000 A 
ATOM     31  C   UNL     1       6.964   3.872  11.791  0.00  0.00    +0.000 A 
ATOM     32  C   UNL     1       5.816   3.427  12.434  0.00  0.00    +0.000 A 
ATOM     33  F   UNL     1       5.023   2.536  11.820  0.00  0.00    +0.000 F 
ATOM     34  C   UNL     1       5.469   3.894  13.699  0.00  0.00    +0.000 A 
ENDBRANCH  27  28
ENDBRANCH  26  27
ENDBRANCH   3  26
TORSDOF 8
ENDMDL
MODEL 8
REMARK VINA RESULT:      -8.7      3.103     10.821
REMARK  Name = 
REMARK  8 active torsions:
REMARK  status: ('A' for Active; 'I' for Inactive)
REMARK    1  A    between atoms: C_2  and  C_24
REMARK    2  A    between atoms: N_3  and  C_4
REMARK    3  A    between atoms: C_4  and  C_5
REMARK    4  A    between atoms: C_5  and  N_6
REMARK    5  A    between atoms: C_8  and  S_9
REMARK    6  A    between atoms: S_9  and  C_10
REMARK    7  A    between atoms: C_10  and  C_11
REMARK    8  A    between atoms: C_28  and  C_29
REMARK                            x       y       z     vdW  Elec       q    Type
REMARK                         _______ _______ _______ _____ _____    ______ ____
ROOT
ATOM      1  N   UNL     1       0.165  10.197  20.449  0.00  0.00    +0.000 N 
ATOM      2  C   UNL     1      -0.242  10.129  19.134  0.00  0.00    +0.000 A 
ATOM      3  C   UNL     1      -1.320  10.963  18.972  0.00  0.00    +0.000 A 
ATOM      4  C   UNL     1      -1.632  11.519  20.247  0.00  0.00    +0.000 A 
ATOM      5  C   UNL     1      -2.628  12.408  20.711  0.00  0.00    +0.000 A 
ATOM      6  C   UNL     1      -2.666  12.772  22.059  0.00  0.00    +0.000 A 
ATOM      7  C   UNL     1      -1.725  12.269  22.949  0.00  0.00    +0.000 A 
ATOM      8  C   UNL     1      -0.723  11.391  22.519  0.00  0.00    +0.000 A 
ATOM      9  C   UNL     1      -0.694  11.023  21.161  0.00  0.00    +0.000 A 
ENDROOT
BRANCH   1  10
ATOM     10  C   UNL     1       1.304   9.494  21.031  0.00  0.00    +0.000 C 
BRANCH  10  11
ATOM     11  C   UNL     1       1.225   7.966  20.972  0.00  0.00    +0.000 C 
BRANCH  11  14
ATOM     12  O   UNL     1       1.791   5.228  20.746  0.00  0.00    +0.000 OA
ATOM     13  C   UNL     1       2.392   6.011  20.021  0.00  0.00    +0.000 C 
ATOM     14  N   UNL     1       2.159   7.370  20.026  0.00  0.00    +0.000 N 
ATOM     15  H   UNL     1       2.569   7.958  19.313  0.00  0.00    +0.000 HD
BRANCH  13  16
ATOM     16  C   UNL     1       3.414   5.506  19.064  0.00  0.00    +0.000 A 
ATOM     17  C   UNL     1       2.981   4.673  18.026  0.00  0.00    +0.000 A 
ATOM     18  C   UNL     1       3.900   4.124  17.133  0.00  0.00    +0.000 A 
ATOM     19  C   UNL     1       5.262   4.381  17.289  0.00  0.00    +0.000 A 
ATOM     20  C   UNL     1       5.720   5.193  18.339  0.00  0.00    +0.000 A 
ATOM     21  C   UNL     1       4.782   5.771  19.217  0.00  0.00    +0.000 A 
BRANCH  20  22
ATOM     22  C   UNL     1       7.199   5.414  18.555  0.00  0.00    +0.000 C 
ATOM     23  F   UNL     1       7.670   6.557  17.982  0.00  0.00    +0.000 F 
ATOM     24  F   UNL     1       7.526   5.493  19.874  0.00  0.00    +0.000 F 
ATOM     25  F   UNL     1       7.951   4.402  18.044  0.00  0.00    +0.000 F 
ENDBRANCH  20  22
ENDBRANCH  13  16
ENDBRANCH  11  14
ENDBRANCH  10  11
ENDBRANCH   1  10
BRANCH   3  26
ATOM     26  S   UNL     1      -2.175  11.386  17.499  0.00  0.00    +0.000 S 
BRANCH  26  27
ATOM     27  C   UNL     1      -3.608  10.285  17.481  0.00  0.00    +0.000 C 
BRANCH  27  28
ATOM     28  C   UNL     1      -4.900  11.041  17.714  0.00  0.00    +0.000 A 
ATOM     29  C   UNL     1      -5.254  12.130  16.898  0.00  0.00    +0.000 A 
ATOM     30  C   UNL     1      -6.437  12.844  17.124  0.00  0.00    +0.000 A 
ATOM     31  C   UNL     1      -7.285  12.474  18.167  0.00  0.00    +0.000 A 
ATOM     32  C   UNL     1      -6.951  11.384  18.959  0.00  0.00    +0.000 A 
ATOM     33  F   UNL     1      -7.769  11.023  19.959  0.00  0.00    +0.000 F 
ATOM     34  C   UNL     1      -5.780  10.663  18.740  0.00  0.00    +0.000 A 
ENDBRANCH  27  28
ENDBRANCH  26  27
ENDBRANCH   3  26
TORSDOF 8
ENDMDL
MODEL 9
REMARK VINA RESULT:      -8.6      5.869      9.639
REMARK  Name = 
REMARK  8 active torsions:
REMARK  status: ('A' for Active; 'I' for Inactive)
REMARK    1  A    between atoms: C_2  and  C_24
REMARK    2  A    between atoms: N_3  and  C_4
REMARK    3  A    between atoms: C_4  and  C_5
REMARK    4  A    between atoms: C_5  and  N_6
REMARK    5  A    between atoms: C_8  and  S_9
REMARK    6  A    between atoms: S_9  and  C_10
REMARK    7  A    between atoms: C_10  and  C_11
REMARK    8  A    between atoms: C_28  and  C_29
REMARK                            x       y       z     vdW  Elec       q    Type
REMARK                         _______ _______ _______ _____ _____    ______ ____
ROOT
ATOM      1  N   UNL     1       6.676   7.091  17.298  0.00  0.00    +0.000 N 
ATOM      2  C   UNL     1       5.507   7.670  17.746  0.00  0.00    +0.000 A 
ATOM      3  C   UNL     1       4.468   6.820  17.457  0.00  0.00    +0.000 A 
ATOM      4  C   UNL     1       5.004   5.706  16.748  0.00  0.00    +0.000 A 
ATOM      5  C   UNL     1       4.439   4.542  16.179  0.00  0.00    +0.000 A 
ATOM      6  C   UNL     1       5.256   3.612  15.535  0.00  0.00    +0.000 A 
ATOM      7  C   UNL     1       6.628   3.819  15.453  0.00  0.00    +0.000 A 
ATOM      8  C   UNL     1       7.218   4.959  16.011  0.00  0.00    +0.000 A 
ATOM      9  C   UNL     1       6.388   5.896  16.654  0.00  0.00    +0.000 A 
ENDROOT
BRANCH   1  10
ATOM     10  C   UNL     1       8.018   7.647  17.445  0.00  0.00    +0.000 C 
BRANCH  10  11
ATOM     11  C   UNL     1       8.146   8.776  18.473  0.00  0.00    +0.000 C 
BRANCH  11  14
ATOM     12  O   UNL     1       9.385  10.736  20.049  0.00  0.00    +0.000 OA
ATOM     13  C   UNL     1       9.394  10.873  18.831  0.00  0.00    +0.000 C 
ATOM     14  N   UNL     1       8.847   9.947  17.968  0.00  0.00    +0.000 N 
ATOM     15  H   UNL     1       9.005  10.028  16.972  0.00  0.00    +0.000 HD
BRANCH  13  16
ATOM     16  C   UNL     1      10.031  12.072  18.220  0.00  0.00    +0.000 A 
ATOM     17  C   UNL     1      11.319  11.928  17.692  0.00  0.00    +0.000 A 
ATOM     18  C   UNL     1      11.988  13.028  17.158  0.00  0.00    +0.000 A 
ATOM     19  C   UNL     1      11.385  14.286  17.174  0.00  0.00    +0.000 A 
ATOM     20  C   UNL     1      10.105  14.456  17.724  0.00  0.00    +0.000 A 
ATOM     21  C   UNL     1       9.421  13.334  18.231  0.00  0.00    +0.000 A 
BRANCH  20  22
ATOM     22  C   UNL     1       9.479  15.829  17.810  0.00  0.00    +0.000 C 
ATOM     23  F   UNL     1       9.499  16.362  19.063  0.00  0.00    +0.000 F 
ATOM     24  F   UNL     1      10.100  16.735  17.005  0.00  0.00    +0.000 F 
ATOM     25  F   UNL     1       8.173  15.824  17.427  0.00  0.00    +0.000 F 
ENDBRANCH  20  22
ENDBRANCH  13  16
ENDBRANCH  11  14
ENDBRANCH  10  11
ENDBRANCH   1  10
BRANCH   3  26
ATOM     26  S   UNL     1       2.775   6.960  17.899  0.00  0.00    +0.000 S 
BRANCH  26  27
ATOM     27  C   UNL     1       2.706   6.360  19.604  0.00  0.00    +0.000 C 
BRANCH  27  28
ATOM     28  C   UNL     1       2.105   4.972  19.687  0.00  0.00    +0.000 A 
ATOM     29  C   UNL     1       1.709   4.288  18.522  0.00  0.00    +0.000 A 
ATOM     30  C   UNL     1       1.134   3.015  18.597  0.00  0.00    +0.000 A 
ATOM     31  C   UNL     1       0.952   2.404  19.837  0.00  0.00    +0.000 A 
ATOM     32  C   UNL     1       1.364   3.066  20.986  0.00  0.00    +0.000 A 
ATOM     33  F   UNL     1       1.194   2.477  22.180  0.00  0.00    +0.000 F 
ATOM     34  C   UNL     1       1.942   4.332  20.924  0.00  0.00    +0.000 A 
ENDBRANCH  27  28
ENDBRANCH  26  27
ENDBRANCH   3  26
TORSDOF 8
ENDMDL
