MODEL 1
REMARK VINA RESULT:      -8.1      0.000      0.000
REMARK  Name = 
REMARK  5 active torsions:
REMARK  status: ('A' for Active; 'I' for Inactive)
REMARK    1  A    between atoms: C_1  and  C_2
REMARK    2  A    between atoms: C_3  and  N_4
REMARK    3  A    between atoms: N_7  and  C_8
REMARK    4  A    between atoms: N_18  and  C_19
REMARK    5  A    between atoms: N_25  and  C_26
REMARK                            x       y       z     vdW  Elec       q    Type
REMARK                         _______ _______ _______ _____ _____    ______ ____
ROOT
ATOM      1  C   UNL     1       1.573   9.149  17.986  0.00  0.00    +0.000 C 
ATOM      2  C   UNL     1       1.146   9.411  19.399  0.00  0.00    +0.000 A 
ATOM      3  C   UNL     1       1.533   8.769  20.516  0.00  0.00    +0.000 A 
ATOM      4  C   UNL     1       1.111   9.664  21.653  0.00  0.00    +0.000 A 
ATOM      5  O   UNL     1       1.344   9.403  22.825  0.00  0.00    +0.000 OA
ATOM      6  N   UNL     1       0.415  10.729  21.076  0.00  0.00    +0.000 N 
ATOM      7  N   UNL     1       0.334  10.522  19.682  0.00  0.00    +0.000 N 
ATOM      8  C   UNL     1       0.286  11.690  18.801  0.00  0.00    +0.000 C 
ENDROOT
BRANCH   3   9
ATOM      9  N   UNL     1       2.211   7.592  20.740  0.00  0.00    +0.000 N 
ATOM     10  C   UNL     1       2.181   6.484  19.912  0.00  0.00    +0.000 C 
ATOM     11  O   UNL     1       1.509   6.396  18.887  0.00  0.00    +0.000 OA
ATOM     12  N   UNL     1       2.963   5.438  20.387  0.00  0.00    +0.000 N 
ATOM     13  H   UNL     1       2.500   7.446  21.699  0.00  0.00    +0.000 HD
ATOM     14  H   UNL     1       2.792   5.246  21.368  0.00  0.00    +0.000 HD
BRANCH  12  15
ATOM     15  C   UNL     1       3.102   4.264  19.579  0.00  0.00    +0.000 A 
ATOM     16  C   UNL     1       3.982   4.204  18.479  0.00  0.00    +0.000 A 
ATOM     17 CL   UNL     1       5.152   5.441  18.156  0.00  0.00    +0.000 Cl
ATOM     18  C   UNL     1       4.010   3.075  17.651  0.00  0.00    +0.000 A 
ATOM     19  C   UNL     1       3.181   1.985  17.916  0.00  0.00    +0.000 A 
ATOM     20  C   UNL     1       2.349   2.009  19.035  0.00  0.00    +0.000 A 
ATOM     21  C   UNL     1       2.324   3.133  19.868  0.00  0.00    +0.000 A 
ATOM     22 CL   UNL     1       1.260   3.109  21.233  0.00  0.00    +0.000 Cl
ENDBRANCH  12  15
ENDBRANCH   3   9
BRANCH   6  23
ATOM     23  C   UNL     1      -0.394  11.666  21.748  0.00  0.00    +0.000 A 
ATOM     24  C   UNL     1      -1.554  11.244  22.406  0.00  0.00    +0.000 A 
ATOM     25  C   UNL     1      -2.260  12.133  23.226  0.00  0.00    +0.000 A 
ATOM     26  C   UNL     1      -1.844  13.459  23.351  0.00  0.00    +0.000 A 
ATOM     27  C   UNL     1      -0.729  13.904  22.647  0.00  0.00    +0.000 A 
ATOM     28  C   UNL     1      -0.007  13.011  21.853  0.00  0.00    +0.000 A 
ENDBRANCH   6  23
TORSDOF 3
ENDMDL
MODEL 2
REMARK VINA RESULT:      -7.9      4.964      9.612
REMARK  Name = 
REMARK  5 active torsions:
REMARK  status: ('A' for Active; 'I' for Inactive)
REMARK    1  A    between atoms: C_1  and  C_2
REMARK    2  A    between atoms: C_3  and  N_4
REMARK    3  A    between atoms: N_7  and  C_8
REMARK    4  A    between atoms: N_18  and  C_19
REMARK    5  A    between atoms: N_25  and  C_26
REMARK                            x       y       z     vdW  Elec       q    Type
REMARK                         _______ _______ _______ _____ _____    ______ ____
ROOT
ATOM      1  C   UNL     1      -0.391  14.552  19.841  0.00  0.00    +0.000 C 
ATOM      2  C   UNL     1      -0.560  13.072  19.665  0.00  0.00    +0.000 A 
ATOM      3  C   UNL     1      -1.687  12.393  19.392  0.00  0.00    +0.000 A 
ATOM      4  C   UNL     1      -1.229  11.026  18.952  0.00  0.00    +0.000 A 
ATOM      5  O   UNL     1      -2.002  10.152  18.585  0.00  0.00    +0.000 OA
ATOM      6  N   UNL     1       0.161  11.010  19.105  0.00  0.00    +0.000 N 
ATOM      7  N   UNL     1       0.575  12.242  19.656  0.00  0.00    +0.000 N 
ATOM      8  C   UNL     1       1.903  12.752  19.316  0.00  0.00    +0.000 C 
ENDROOT
BRANCH   3   9
ATOM      9  N   UNL     1      -3.021  12.733  19.407  0.00  0.00    +0.000 N 
ATOM     10  C   UNL     1      -3.829  12.741  20.530  0.00  0.00    +0.000 C 
ATOM     11  O   UNL     1      -3.466  12.404  21.655  0.00  0.00    +0.000 OA
ATOM     12  N   UNL     1      -5.134  13.129  20.250  0.00  0.00    +0.000 N 
ATOM     13  H   UNL     1      -3.480  12.688  18.506  0.00  0.00    +0.000 HD
ATOM     14  H   UNL     1      -5.516  12.638  19.450  0.00  0.00    +0.000 HD
BRANCH  12  15
ATOM     15  C   UNL     1      -6.054  13.277  21.337  0.00  0.00    +0.000 A 
ATOM     16  C   UNL     1      -6.011  14.375  22.219  0.00  0.00    +0.000 A 
ATOM     17 CL   UNL     1      -5.018  15.764  21.927  0.00  0.00    +0.000 Cl
ATOM     18  C   UNL     1      -6.860  14.428  23.332  0.00  0.00    +0.000 A 
ATOM     19  C   UNL     1      -7.774  13.402  23.571  0.00  0.00    +0.000 A 
ATOM     20  C   UNL     1      -7.866  12.339  22.674  0.00  0.00    +0.000 A 
ATOM     21  C   UNL     1      -7.024  12.287  21.557  0.00  0.00    +0.000 A 
ATOM     22 CL   UNL     1      -7.175  10.935  20.486  0.00  0.00    +0.000 Cl
ENDBRANCH  12  15
ENDBRANCH   3   9
BRANCH   6  23
ATOM     23  C   UNL     1       0.995   9.876  19.080  0.00  0.00    +0.000 A 
ATOM     24  C   UNL     1       1.128   9.081  20.222  0.00  0.00    +0.000 A 
ATOM     25  C   UNL     1       1.806   7.857  20.153  0.00  0.00    +0.000 A 
ATOM     26  C   UNL     1       2.399   7.447  18.958  0.00  0.00    +0.000 A 
ATOM     27  C   UNL     1       2.327   8.264  17.833  0.00  0.00    +0.000 A 
ATOM     28  C   UNL     1       1.626   9.470  17.894  0.00  0.00    +0.000 A 
ENDBRANCH   6  23
TORSDOF 3
ENDMDL
MODEL 3
REMARK VINA RESULT:      -7.9      0.149      1.796
REMARK  Name = 
REMARK  5 active torsions:
REMARK  status: ('A' for Active; 'I' for Inactive)
REMARK    1  A    between atoms: C_1  and  C_2
REMARK    2  A    between atoms: C_3  and  N_4
REMARK    3  A    between atoms: N_7  and  C_8
REMARK    4  A    between atoms: N_18  and  C_19
REMARK    5  A    between atoms: N_25  and  C_26
REMARK                            x       y       z     vdW  Elec       q    Type
REMARK                         _______ _______ _______ _____ _____    ______ ____
ROOT
ATOM      1  C   UNL     1       1.527   9.217  17.927  0.00  0.00    +0.000 C 
ATOM      2  C   UNL     1       1.122   9.454  19.351  0.00  0.00    +0.000 A 
ATOM      3  C   UNL     1       1.549   8.812  20.453  0.00  0.00    +0.000 A 
ATOM      4  C   UNL     1       1.127   9.684  21.608  0.00  0.00    +0.000 A 
ATOM      5  O   UNL     1       1.391   9.419  22.773  0.00  0.00    +0.000 OA
ATOM      6  N   UNL     1       0.390  10.736  21.056  0.00  0.00    +0.000 N 
ATOM      7  N   UNL     1       0.286  10.540  19.661  0.00  0.00    +0.000 N 
ATOM      8  C   UNL     1       0.188  11.714  18.794  0.00  0.00    +0.000 C 
ENDROOT
BRANCH   3   9
ATOM      9  N   UNL     1       2.263   7.652  20.652  0.00  0.00    +0.000 N 
ATOM     10  C   UNL     1       2.175   6.517  19.866  0.00  0.00    +0.000 C 
ATOM     11  O   UNL     1       1.413   6.386  18.910  0.00  0.00    +0.000 OA
ATOM     12  N   UNL     1       3.013   5.498  20.301  0.00  0.00    +0.000 N 
ATOM     13  H   UNL     1       2.641   7.542  21.585  0.00  0.00    +0.000 HD
ATOM     14  H   UNL     1       2.935   5.336  21.298  0.00  0.00    +0.000 HD
BRANCH  12  15
ATOM     15  C   UNL     1       3.097   4.299  19.520  0.00  0.00    +0.000 A 
ATOM     16  C   UNL     1       2.366   3.138  19.838  0.00  0.00    +0.000 A 
ATOM     17 CL   UNL     1       1.116   3.126  21.039  0.00  0.00    +0.000 Cl
ATOM     18  C   UNL     1       2.557   1.955  19.112  0.00  0.00    +0.000 A 
ATOM     19  C   UNL     1       3.461   1.918  18.051  0.00  0.00    +0.000 A 
ATOM     20  C   UNL     1       4.147   3.076  17.690  0.00  0.00    +0.000 A 
ATOM     21  C   UNL     1       3.953   4.261  18.409  0.00  0.00    +0.000 A 
ATOM     22 CL   UNL     1       4.844   5.663  17.922  0.00  0.00    +0.000 Cl
ENDBRANCH  12  15
ENDBRANCH   3   9
BRANCH   6  23
ATOM     23  C   UNL     1      -0.430  11.644  21.753  0.00  0.00    +0.000 A 
ATOM     24  C   UNL     1      -1.581  11.189  22.405  0.00  0.00    +0.000 A 
ATOM     25  C   UNL     1      -2.297  12.047  23.249  0.00  0.00    +0.000 A 
ATOM     26  C   UNL     1      -1.900  13.375  23.405  0.00  0.00    +0.000 A 
ATOM     27  C   UNL     1      -0.794  13.854  22.709  0.00  0.00    +0.000 A 
ATOM     28  C   UNL     1      -0.062  12.992  21.890  0.00  0.00    +0.000 A 
ENDBRANCH   6  23
TORSDOF 3
ENDMDL
MODEL 4
REMARK VINA RESULT:      -7.9      7.897     10.806
REMARK  Name = 
REMARK  5 active torsions:
REMARK  status: ('A' for Active; 'I' for Inactive)
REMARK    1  A    between atoms: C_1  and  C_2
REMARK    2  A    between atoms: C_3  and  N_4
REMARK    3  A    between atoms: N_7  and  C_8
REMARK    4  A    between atoms: N_18  and  C_19
REMARK    5  A    between atoms: N_25  and  C_26
REMARK                            x       y       z     vdW  Elec       q    Type
REMARK                         _______ _______ _______ _____ _____    ______ ____
ROOT
ATOM      1  C   UNL     1       6.789  17.215  18.898  0.00  0.00    +0.000 C 
ATOM      2  C   UNL     1       7.239  15.803  18.673  0.00  0.00    +0.000 A 
ATOM      3  C   UNL     1       6.588  14.816  18.032  0.00  0.00    +0.000 A 
ATOM      4  C   UNL     1       7.629  13.759  17.771  0.00  0.00    +0.000 A 
ATOM      5  O   UNL     1       7.389  12.725  17.162  0.00  0.00    +0.000 OA
ATOM      6  N   UNL     1       8.803  14.204  18.385  0.00  0.00    +0.000 N 
ATOM      7  N   UNL     1       8.540  15.423  19.046  0.00  0.00    +0.000 N 
ATOM      8  C   UNL     1       9.623  16.398  19.177  0.00  0.00    +0.000 C 
ENDROOT
BRANCH   3   9
ATOM      9  N   UNL     1       5.291  14.671  17.596  0.00  0.00    +0.000 N 
ATOM     10  C   UNL     1       4.181  14.562  18.415  0.00  0.00    +0.000 C 
ATOM     11  O   UNL     1       4.219  14.540  19.644  0.00  0.00    +0.000 OA
ATOM     12  N   UNL     1       2.997  14.427  17.700  0.00  0.00    +0.000 N 
ATOM     13  H   UNL     1       5.198  14.338  16.644  0.00  0.00    +0.000 HD
ATOM     14  H   UNL     1       3.065  13.723  16.975  0.00  0.00    +0.000 HD
BRANCH  12  15
ATOM     15  C   UNL     1       1.759  14.404  18.421  0.00  0.00    +0.000 A 
ATOM     16  C   UNL     1       1.071  15.580  18.778  0.00  0.00    +0.000 A 
ATOM     17 CL   UNL     1       1.516  17.140  18.167  0.00  0.00    +0.000 Cl
ATOM     18  C   UNL     1      -0.080  15.518  19.574  0.00  0.00    +0.000 A 
ATOM     19  C   UNL     1      -0.571  14.287  20.008  0.00  0.00    +0.000 A 
ATOM     20  C   UNL     1       0.068  13.113  19.613  0.00  0.00    +0.000 A 
ATOM     21  C   UNL     1       1.214  13.172  18.812  0.00  0.00    +0.000 A 
ATOM     22 CL   UNL     1       1.972  11.681  18.365  0.00  0.00    +0.000 Cl
ENDBRANCH  12  15
ENDBRANCH   3   9
BRANCH   6  23
ATOM     23  C   UNL     1       9.958  13.440  18.642  0.00  0.00    +0.000 A 
ATOM     24  C   UNL     1      10.210  12.966  19.933  0.00  0.00    +0.000 A 
ATOM     25  C   UNL     1      11.252  12.058  20.158  0.00  0.00    +0.000 A 
ATOM     26  C   UNL     1      12.079  11.660  19.108  0.00  0.00    +0.000 A 
ATOM     27  C   UNL     1      11.876  12.178  17.832  0.00  0.00    +0.000 A 
ATOM     28  C   UNL     1      10.819  13.060  17.601  0.00  0.00    +0.000 A 
ENDBRANCH   6  23
TORSDOF 3
ENDMDL
MODEL 5
REMARK VINA RESULT:      -7.9      7.835     10.795
REMARK  Name = 
REMARK  5 active torsions:
REMARK  status: ('A' for Active; 'I' for Inactive)
REMARK    1  A    between atoms: C_1  and  C_2
REMARK    2  A    between atoms: C_3  and  N_4
REMARK    3  A    between atoms: N_7  and  C_8
REMARK    4  A    between atoms: N_18  and  C_19
REMARK    5  A    between atoms: N_25  and  C_26
REMARK                            x       y       z     vdW  Elec       q    Type
REMARK                         _______ _______ _______ _____ _____    ______ ____
ROOT
ATOM      1  C   UNL     1       6.728  17.199  18.943  0.00  0.00    +0.000 C 
ATOM      2  C   UNL     1       7.178  15.790  18.703  0.00  0.00    +0.000 A 
ATOM      3  C   UNL     1       6.530  14.812  18.046  0.00  0.00    +0.000 A 
ATOM      4  C   UNL     1       7.572  13.757  17.778  0.00  0.00    +0.000 A 
ATOM      5  O   UNL     1       7.334  12.730  17.156  0.00  0.00    +0.000 OA
ATOM      6  N   UNL     1       8.742  14.192  18.406  0.00  0.00    +0.000 N 
ATOM      7  N   UNL     1       8.476  15.404  19.081  0.00  0.00    +0.000 N 
ATOM      8  C   UNL     1       9.559  16.376  19.230  0.00  0.00    +0.000 C 
ENDROOT
BRANCH   3   9
ATOM      9  N   UNL     1       5.235  14.673  17.599  0.00  0.00    +0.000 N 
ATOM     10  C   UNL     1       4.127  14.495  18.408  0.00  0.00    +0.000 C 
ATOM     11  O   UNL     1       4.165  14.396  19.632  0.00  0.00    +0.000 OA
ATOM     12  N   UNL     1       2.946  14.387  17.684  0.00  0.00    +0.000 N 
ATOM     13  H   UNL     1       5.149  14.400  16.628  0.00  0.00    +0.000 HD
ATOM     14  H   UNL     1       3.026  13.730  16.915  0.00  0.00    +0.000 HD
BRANCH  12  15
ATOM     15  C   UNL     1       1.708  14.298  18.399  0.00  0.00    +0.000 A 
ATOM     16  C   UNL     1       1.115  13.064  18.733  0.00  0.00    +0.000 A 
ATOM     17 CL   UNL     1       1.940  11.553  18.538  0.00  0.00    +0.000 Cl
ATOM     18  C   UNL     1      -0.147  13.022  19.339  0.00  0.00    +0.000 A 
ATOM     19  C   UNL     1      -0.825  14.203  19.639  0.00  0.00    +0.000 A 
ATOM     20  C   UNL     1      -0.223  15.431  19.367  0.00  0.00    +0.000 A 
ATOM     21  C   UNL     1       1.041  15.476  18.768  0.00  0.00    +0.000 A 
ATOM     22 CL   UNL     1       1.731  17.030  18.441  0.00  0.00    +0.000 Cl
ENDBRANCH  12  15
ENDBRANCH   3   9
BRANCH   6  23
ATOM     23  C   UNL     1       9.894  13.424  18.662  0.00  0.00    +0.000 A 
ATOM     24  C   UNL     1      10.151  12.958  19.955  0.00  0.00    +0.000 A 
ATOM     25  C   UNL     1      11.190  12.045  20.180  0.00  0.00    +0.000 A 
ATOM     26  C   UNL     1      12.008  11.635  19.127  0.00  0.00    +0.000 A 
ATOM     27  C   UNL     1      11.801  12.146  17.849  0.00  0.00    +0.000 A 
ATOM     28  C   UNL     1      10.747  13.032  17.618  0.00  0.00    +0.000 A 
ENDBRANCH   6  23
TORSDOF 3
ENDMDL
MODEL 6
REMARK VINA RESULT:      -7.6      2.310      2.662
REMARK  Name = 
REMARK  5 active torsions:
REMARK  status: ('A' for Active; 'I' for Inactive)
REMARK    1  A    between atoms: C_1  and  C_2
REMARK    2  A    between atoms: C_3  and  N_4
REMARK    3  A    between atoms: N_7  and  C_8
REMARK    4  A    between atoms: N_18  and  C_19
REMARK    5  A    between atoms: N_25  and  C_26
REMARK                            x       y       z     vdW  Elec       q    Type
REMARK                         _______ _______ _______ _____ _____    ______ ____
ROOT
ATOM      1  C   UNL     1       2.555  11.757  18.159  0.00  0.00    +0.000 C 
ATOM      2  C   UNL     1       1.250  11.237  18.683  0.00  0.00    +0.000 A 
ATOM      3  C   UNL     1       1.029  10.124  19.403  0.00  0.00    +0.000 A 
ATOM      4  C   UNL     1      -0.357  10.289  19.972  0.00  0.00    +0.000 A 
ATOM      5  O   UNL     1      -0.871   9.467  20.719  0.00  0.00    +0.000 OA
ATOM      6  N   UNL     1      -0.862  11.477  19.436  0.00  0.00    +0.000 N 
ATOM      7  N   UNL     1       0.089  12.017  18.543  0.00  0.00    +0.000 N 
ATOM      8  C   UNL     1       0.147  13.470  18.376  0.00  0.00    +0.000 C 
ENDROOT
BRANCH   3   9
ATOM      9  N   UNL     1       1.800   9.022  19.697  0.00  0.00    +0.000 N 
ATOM     10  C   UNL     1       1.959   7.918  18.878  0.00  0.00    +0.000 C 
ATOM     11  O   UNL     1       1.396   7.764  17.796  0.00  0.00    +0.000 OA
ATOM     12  N   UNL     1       2.797   6.957  19.430  0.00  0.00    +0.000 N 
ATOM     13  H   UNL     1       2.014   8.905  20.679  0.00  0.00    +0.000 HD
ATOM     14  H   UNL     1       2.558   6.746  20.392  0.00  0.00    +0.000 HD
BRANCH  12  15
ATOM     15  C   UNL     1       3.129   5.805  18.645  0.00  0.00    +0.000 A 
ATOM     16  C   UNL     1       4.126   5.830  17.650  0.00  0.00    +0.000 A 
ATOM     17 CL   UNL     1       5.210   7.168  17.453  0.00  0.00    +0.000 Cl
ATOM     18  C   UNL     1       4.346   4.713  16.834  0.00  0.00    +0.000 A 
ATOM     19  C   UNL     1       3.593   3.553  17.010  0.00  0.00    +0.000 A 
ATOM     20  C   UNL     1       2.644   3.495  18.030  0.00  0.00    +0.000 A 
ATOM     21  C   UNL     1       2.427   4.607  18.851  0.00  0.00    +0.000 A 
ATOM     22 CL   UNL     1       1.226   4.481  20.091  0.00  0.00    +0.000 Cl
ENDBRANCH  12  15
ENDBRANCH   3   9
BRANCH   6  23
ATOM     23  C   UNL     1      -2.203  11.905  19.460  0.00  0.00    +0.000 A 
ATOM     24  C   UNL     1      -3.075  11.534  18.431  0.00  0.00    +0.000 A 
ATOM     25  C   UNL     1      -4.446  11.800  18.540  0.00  0.00    +0.000 A 
ATOM     26  C   UNL     1      -4.945  12.482  19.650  0.00  0.00    +0.000 A 
ATOM     27  C   UNL     1      -4.075  12.913  20.647  0.00  0.00    +0.000 A 
ATOM     28  C   UNL     1      -2.713  12.623  20.554  0.00  0.00    +0.000 A 
ENDBRANCH   6  23
TORSDOF 3
ENDMDL
MODEL 7
REMARK VINA RESULT:      -7.5      4.941      9.603
REMARK  Name = 
REMARK  5 active torsions:
REMARK  status: ('A' for Active; 'I' for Inactive)
REMARK    1  A    between atoms: C_1  and  C_2
REMARK    2  A    between atoms: C_3  and  N_4
REMARK    3  A    between atoms: N_7  and  C_8
REMARK    4  A    between atoms: N_18  and  C_19
REMARK    5  A    between atoms: N_25  and  C_26
REMARK                            x       y       z     vdW  Elec       q    Type
REMARK                         _______ _______ _______ _____ _____    ______ ____
ROOT
ATOM      1  C   UNL     1       0.096  14.527  19.282  0.00  0.00    +0.000 C 
ATOM      2  C   UNL     1      -0.233  13.064  19.281  0.00  0.00    +0.000 A 
ATOM      3  C   UNL     1      -1.443  12.486  19.193  0.00  0.00    +0.000 A 
ATOM      4  C   UNL     1      -1.169  11.043  18.857  0.00  0.00    +0.000 A 
ATOM      5  O   UNL     1      -2.059  10.225  18.663  0.00  0.00    +0.000 OA
ATOM      6  N   UNL     1       0.220  10.893  18.873  0.00  0.00    +0.000 N 
ATOM      7  N   UNL     1       0.809  12.121  19.248  0.00  0.00    +0.000 N 
ATOM      8  C   UNL     1       2.135  12.450  18.726  0.00  0.00    +0.000 C 
ENDROOT
BRANCH   3   9
ATOM      9  N   UNL     1      -2.728  12.967  19.304  0.00  0.00    +0.000 N 
ATOM     10  C   UNL     1      -3.496  12.933  20.455  0.00  0.00    +0.000 C 
ATOM     11  O   UNL     1      -3.140  12.429  21.518  0.00  0.00    +0.000 OA
ATOM     12  N   UNL     1      -4.756  13.492  20.276  0.00  0.00    +0.000 N 
ATOM     13  H   UNL     1      -3.217  13.078  18.425  0.00  0.00    +0.000 HD
ATOM     14  H   UNL     1      -5.216  13.142  19.443  0.00  0.00    +0.000 HD
BRANCH  12  15
ATOM     15  C   UNL     1      -5.620  13.613  21.412  0.00  0.00    +0.000 A 
ATOM     16  C   UNL     1      -5.484  14.647  22.358  0.00  0.00    +0.000 A 
ATOM     17 CL   UNL     1      -4.434  16.004  22.108  0.00  0.00    +0.000 Cl
ATOM     18  C   UNL     1      -6.281  14.668  23.510  0.00  0.00    +0.000 A 
ATOM     19  C   UNL     1      -7.235  13.674  23.725  0.00  0.00    +0.000 A 
ATOM     20  C   UNL     1      -7.419  12.678  22.768  0.00  0.00    +0.000 A 
ATOM     21  C   UNL     1      -6.629  12.659  21.613  0.00  0.00    +0.000 A 
ATOM     22 CL   UNL     1      -6.895  11.388  20.467  0.00  0.00    +0.000 Cl
ENDBRANCH  12  15
ENDBRANCH   3   9
BRANCH   6  23
ATOM     23  C   UNL     1       0.934   9.679  18.886  0.00  0.00    +0.000 A 
ATOM     24  C   UNL     1       1.583   9.236  17.729  0.00  0.00    +0.000 A 
ATOM     25  C   UNL     1       2.442   8.132  17.783  0.00  0.00    +0.000 A 
ATOM     26  C   UNL     1       2.617   7.433  18.978  0.00  0.00    +0.000 A 
ATOM     27  C   UNL     1       1.925   7.828  20.119  0.00  0.00    +0.000 A 
ATOM     28  C   UNL     1       1.091   8.947  20.074  0.00  0.00    +0.000 A 
ENDBRANCH   6  23
TORSDOF 3
ENDMDL
MODEL 8
REMARK VINA RESULT:      -7.4      2.113      2.960
REMARK  Name = 
REMARK  5 active torsions:
REMARK  status: ('A' for Active; 'I' for Inactive)
REMARK    1  A    between atoms: C_1  and  C_2
REMARK    2  A    between atoms: C_3  and  N_4
REMARK    3  A    between atoms: N_7  and  C_8
REMARK    4  A    between atoms: N_18  and  C_19
REMARK    5  A    between atoms: N_25  and  C_26
REMARK                            x       y       z     vdW  Elec       q    Type
REMARK                         _______ _______ _______ _____ _____    ______ ____
ROOT
ATOM      1  C   UNL     1       2.472  11.388  17.950  0.00  0.00    +0.000 C 
ATOM      2  C   UNL     1       1.232  10.990  18.692  0.00  0.00    +0.000 A 
ATOM      3  C   UNL     1       1.057   9.936  19.509  0.00  0.00    +0.000 A 
ATOM      4  C   UNL     1      -0.216  10.226  20.262  0.00  0.00    +0.000 A 
ATOM      5  O   UNL     1      -0.659   9.485  21.129  0.00  0.00    +0.000 OA
ATOM      6  N   UNL     1      -0.725  11.414  19.729  0.00  0.00    +0.000 N 
ATOM      7  N   UNL     1       0.112  11.838  18.673  0.00  0.00    +0.000 N 
ATOM      8  C   UNL     1       0.230  13.271  18.404  0.00  0.00    +0.000 C 
ENDROOT
BRANCH   3   9
ATOM      9  N   UNL     1       1.797   8.802  19.758  0.00  0.00    +0.000 N 
ATOM     10  C   UNL     1       1.971   7.753  18.874  0.00  0.00    +0.000 C 
ATOM     11  O   UNL     1       1.450   7.681  17.763  0.00  0.00    +0.000 OA
ATOM     12  N   UNL     1       2.770   6.741  19.392  0.00  0.00    +0.000 N 
ATOM     13  H   UNL     1       1.969   8.616  20.738  0.00  0.00    +0.000 HD
ATOM     14  H   UNL     1       2.488   6.471  20.328  0.00  0.00    +0.000 HD
BRANCH  12  15
ATOM     15  C   UNL     1       3.115   5.637  18.546  0.00  0.00    +0.000 A 
ATOM     16  C   UNL     1       2.478   4.384  18.641  0.00  0.00    +0.000 A 
ATOM     17 CL   UNL     1       1.059   4.134  19.605  0.00  0.00    +0.000 Cl
ATOM     18  C   UNL     1       2.917   3.302  17.869  0.00  0.00    +0.000 A 
ATOM     19  C   UNL     1       3.979   3.456  16.979  0.00  0.00    +0.000 A 
ATOM     20  C   UNL     1       4.580   4.706  16.833  0.00  0.00    +0.000 A 
ATOM     21  C   UNL     1       4.138   5.791  17.599  0.00  0.00    +0.000 A 
ATOM     22 CL   UNL     1       4.933   7.314  17.384  0.00  0.00    +0.000 Cl
ENDBRANCH  12  15
ENDBRANCH   3   9
BRANCH   6  23
ATOM     23  C   UNL     1      -2.019  11.934  19.921  0.00  0.00    +0.000 A 
ATOM     24  C   UNL     1      -2.995  11.762  18.934  0.00  0.00    +0.000 A 
ATOM     25  C   UNL     1      -4.326  12.112  19.193  0.00  0.00    +0.000 A 
ATOM     26  C   UNL     1      -4.680  12.682  20.417  0.00  0.00    +0.000 A 
ATOM     27  C   UNL     1      -3.703  12.917  21.380  0.00  0.00    +0.000 A 
ATOM     28  C   UNL     1      -2.381  12.541  21.134  0.00  0.00    +0.000 A 
ENDBRANCH   6  23
TORSDOF 3
ENDMDL
MODEL 9
REMARK VINA RESULT:      -7.2      1.854      2.801
REMARK  Name = 
REMARK  5 active torsions:
REMARK  status: ('A' for Active; 'I' for Inactive)
REMARK    1  A    between atoms: C_1  and  C_2
REMARK    2  A    between atoms: C_3  and  N_4
REMARK    3  A    between atoms: N_7  and  C_8
REMARK    4  A    between atoms: N_18  and  C_19
REMARK    5  A    between atoms: N_25  and  C_26
REMARK                            x       y       z     vdW  Elec       q    Type
REMARK                         _______ _______ _______ _____ _____    ______ ____
ROOT
ATOM      1  C   UNL     1       2.471  11.816  18.031  0.00  0.00    +0.000 C 
ATOM      2  C   UNL     1       1.296  11.270  18.786  0.00  0.00    +0.000 A 
ATOM      3  C   UNL     1       0.911   9.988  18.908  0.00  0.00    +0.000 A 
ATOM      4  C   UNL     1      -0.067   9.975  20.055  0.00  0.00    +0.000 A 
ATOM      5  O   UNL     1      -0.591   8.950  20.470  0.00  0.00    +0.000 OA
ATOM      6  N   UNL     1      -0.234  11.307  20.443  0.00  0.00    +0.000 N 
ATOM      7  N   UNL     1       0.525  12.133  19.584  0.00  0.00    +0.000 N 
ATOM      8  C   UNL     1       1.063  13.387  20.112  0.00  0.00    +0.000 C 
ENDROOT
BRANCH   3   9
ATOM      9  N   UNL     1       1.269   8.830  18.256  0.00  0.00    +0.000 N 
ATOM     10  C   UNL     1       2.119   7.861  18.759  0.00  0.00    +0.000 C 
ATOM     11  O   UNL     1       2.698   7.933  19.841  0.00  0.00    +0.000 OA
ATOM     12  N   UNL     1       2.300   6.798  17.883  0.00  0.00    +0.000 N 
ATOM     13  H   UNL     1       1.128   8.846  17.254  0.00  0.00    +0.000 HD
ATOM     14  H   UNL     1       2.513   7.108  16.942  0.00  0.00    +0.000 HD
BRANCH  12  15
ATOM     15  C   UNL     1       3.078   5.676  18.317  0.00  0.00    +0.000 A 
ATOM     16  C   UNL     1       2.636   4.793  19.322  0.00  0.00    +0.000 A 
ATOM     17 CL   UNL     1       1.019   4.827  19.944  0.00  0.00    +0.000 Cl
ATOM     18  C   UNL     1       3.473   3.772  19.791  0.00  0.00    +0.000 A 
ATOM     19  C   UNL     1       4.749   3.604  19.254  0.00  0.00    +0.000 A 
ATOM     20  C   UNL     1       5.175   4.434  18.219  0.00  0.00    +0.000 A 
ATOM     21  C   UNL     1       4.339   5.450  17.743  0.00  0.00    +0.000 A 
ATOM     22 CL   UNL     1       4.930   6.459  16.466  0.00  0.00    +0.000 Cl
ENDBRANCH  12  15
ENDBRANCH   3   9
BRANCH   6  23
ATOM     23  C   UNL     1      -1.243  11.817  21.282  0.00  0.00    +0.000 A 
ATOM     24  C   UNL     1      -2.351  12.467  20.730  0.00  0.00    +0.000 A 
ATOM     25  C   UNL     1      -3.440  12.812  21.539  0.00  0.00    +0.000 A 
ATOM     26  C   UNL     1      -3.407  12.558  22.911  0.00  0.00    +0.000 A 
ATOM     27  C   UNL     1      -2.280  11.972  23.480  0.00  0.00    +0.000 A 
ATOM     28  C   UNL     1      -1.206  11.600  22.669  0.00  0.00    +0.000 A 
ENDBRANCH   6  23
TORSDOF 3
ENDMDL
