MODEL 1
REMARK VINA RESULT:      -7.6      0.000      0.000
REMARK  Name = 
REMARK  6 active torsions:
REMARK  status: ('A' for Active; 'I' for Inactive)
REMARK    1  A    between atoms: C_1  and  C_2
REMARK    2  A    between atoms: C_2  and  C_3
REMARK    3  A    between atoms: N_13  and  C_14
REMARK    4  A    between atoms: C_14  and  C_15
REMARK    5  A    between atoms: N_17  and  C_18
REMARK    6  A    between atoms: C_18  and  C_19
REMARK                            x       y       z     vdW  Elec       q    Type
REMARK                         _______ _______ _______ _____ _____    ______ ____
ROOT
ATOM      1  C   UNL     1       2.490   4.081  17.811  0.00  0.00    +0.000 C 
ATOM      2  C   UNL     1       3.447   5.135  18.356  0.00  0.00    +0.000 C 
ATOM      3  N   UNL     1       4.411   4.596  19.290  0.00  0.00    +0.000 N 
ATOM      4  C   UNL     1       5.653   5.155  19.121  0.00  0.00    +0.000 C 
ATOM      5  O   UNL     1       6.568   5.063  19.920  0.00  0.00    +0.000 OA
ATOM      6  N   UNL     1       5.694   5.732  17.897  0.00  0.00    +0.000 N 
ATOM      7  C   UNL     1       4.493   5.532  17.275  0.00  0.00    +0.000 C 
ATOM      8  O   UNL     1       4.268   5.679  16.081  0.00  0.00    +0.000 OA
ATOM      9  H   UNL     1       4.165   4.189  20.183  0.00  0.00    +0.000 HD
ENDROOT
BRANCH   2  10
ATOM     10  C   UNL     1       2.700   6.347  18.953  0.00  0.00    +0.000 A 
ATOM     11  C   UNL     1       2.604   7.547  18.214  0.00  0.00    +0.000 A 
ATOM     12  C   UNL     1       1.951   8.678  18.724  0.00  0.00    +0.000 A 
ATOM     13  C   UNL     1       1.365   8.643  19.984  0.00  0.00    +0.000 A 
ATOM     14  C   UNL     1       1.420   7.470  20.727  0.00  0.00    +0.000 A 
ATOM     15  C   UNL     1       2.064   6.331  20.218  0.00  0.00    +0.000 A 
ATOM     16 CL   UNL     1       2.001   4.933  21.241  0.00  0.00    +0.000 Cl
ENDBRANCH   2  10
BRANCH   6  17
ATOM     17  C   UNL     1       6.893   6.256  17.287  0.00  0.00    +0.000 C 
BRANCH  17  18
ATOM     18  C   UNL     1       7.459   5.287  16.254  0.00  0.00    +0.000 C 
ATOM     19  O   UNL     1       8.034   4.257  16.595  0.00  0.00    +0.000 OA
ATOM     20  N   UNL     1       7.225   5.586  14.923  0.00  0.00    +0.000 N 
ATOM     21  H   UNL     1       6.628   6.361  14.663  0.00  0.00    +0.000 HD
BRANCH  20  22
ATOM     22  C   UNL     1       7.678   4.663  13.909  0.00  0.00    +0.000 C 
BRANCH  22  23
ATOM     23  C   UNL     1       6.541   4.015  13.211  0.00  0.00    +0.000 A 
ATOM     24  C   UNL     1       5.170   4.070  13.381  0.00  0.00    +0.000 A 
ATOM     25  C   UNL     1       4.605   3.289  12.343  0.00  0.00    +0.000 A 
ATOM     26  C   UNL     1       5.663   2.811  11.606  0.00  0.00    +0.000 A 
ATOM     27  O   UNL     1       6.841   3.245  12.124  0.00  0.00    +0.000 OA
ENDBRANCH  22  23
ENDBRANCH  20  22
ENDBRANCH  17  18
ENDBRANCH   6  17
TORSDOF 5
ENDMDL
MODEL 2
REMARK VINA RESULT:      -7.5      3.083      5.296
REMARK  Name = 
REMARK  6 active torsions:
REMARK  status: ('A' for Active; 'I' for Inactive)
REMARK    1  A    between atoms: C_1  and  C_2
REMARK    2  A    between atoms: C_2  and  C_3
REMARK    3  A    between atoms: N_13  and  C_14
REMARK    4  A    between atoms: C_14  and  C_15
REMARK    5  A    between atoms: N_17  and  C_18
REMARK    6  A    between atoms: C_18  and  C_19
REMARK                            x       y       z     vdW  Elec       q    Type
REMARK                         _______ _______ _______ _____ _____    ______ ____
ROOT
ATOM      1  C   UNL     1       3.094   3.684  17.877  0.00  0.00    +0.000 C 
ATOM      2  C   UNL     1       3.945   4.842  18.385  0.00  0.00    +0.000 C 
ATOM      3  N   UNL     1       4.873   4.450  19.423  0.00  0.00    +0.000 N 
ATOM      4  C   UNL     1       6.088   5.072  19.284  0.00  0.00    +0.000 C 
ATOM      5  O   UNL     1       6.949   5.111  20.145  0.00  0.00    +0.000 OA
ATOM      6  N   UNL     1       6.180   5.545  18.018  0.00  0.00    +0.000 N 
ATOM      7  C   UNL     1       5.039   5.213  17.341  0.00  0.00    +0.000 C 
ATOM      8  O   UNL     1       4.889   5.242  16.127  0.00  0.00    +0.000 OA
ATOM      9  H   UNL     1       4.590   4.106  20.331  0.00  0.00    +0.000 HD
ENDROOT
BRANCH   2  10
ATOM     10  C   UNL     1       3.088   6.049  18.820  0.00  0.00    +0.000 A 
ATOM     11  C   UNL     1       2.998   7.185  17.986  0.00  0.00    +0.000 A 
ATOM     12  C   UNL     1       2.245   8.311  18.351  0.00  0.00    +0.000 A 
ATOM     13  C   UNL     1       1.551   8.333  19.554  0.00  0.00    +0.000 A 
ATOM     14  C   UNL     1       1.599   7.222  20.387  0.00  0.00    +0.000 A 
ATOM     15  C   UNL     1       2.343   6.088  20.024  0.00  0.00    +0.000 A 
ATOM     16 CL   UNL     1       2.259   4.766  21.141  0.00  0.00    +0.000 Cl
ENDBRANCH   2  10
BRANCH   6  17
ATOM     17  C   UNL     1       7.385   6.092  17.442  0.00  0.00    +0.000 C 
BRANCH  17  18
ATOM     18  C   UNL     1       7.269   7.599  17.240  0.00  0.00    +0.000 C 
ATOM     19  O   UNL     1       6.347   8.085  16.592  0.00  0.00    +0.000 OA
ATOM     20  N   UNL     1       8.205   8.389  17.884  0.00  0.00    +0.000 N 
ATOM     21  H   UNL     1       8.871   7.983  18.529  0.00  0.00    +0.000 HD
BRANCH  20  22
ATOM     22  C   UNL     1       8.095   9.825  17.783  0.00  0.00    +0.000 C 
BRANCH  22  23
ATOM     23  C   UNL     1       9.246  10.510  18.420  0.00  0.00    +0.000 A 
ATOM     24  C   UNL     1      10.168  11.433  17.965  0.00  0.00    +0.000 A 
ATOM     25  C   UNL     1      10.978  11.773  19.077  0.00  0.00    +0.000 A 
ATOM     26  C   UNL     1      10.498  11.041  20.137  0.00  0.00    +0.000 A 
ATOM     27  O   UNL     1       9.449  10.271  19.749  0.00  0.00    +0.000 OA
ENDBRANCH  22  23
ENDBRANCH  20  22
ENDBRANCH  17  18
ENDBRANCH   6  17
TORSDOF 5
ENDMDL
MODEL 3
REMARK VINA RESULT:      -7.2      1.736      2.073
REMARK  Name = 
REMARK  6 active torsions:
REMARK  status: ('A' for Active; 'I' for Inactive)
REMARK    1  A    between atoms: C_1  and  C_2
REMARK    2  A    between atoms: C_2  and  C_3
REMARK    3  A    between atoms: N_13  and  C_14
REMARK    4  A    between atoms: C_14  and  C_15
REMARK    5  A    between atoms: N_17  and  C_18
REMARK    6  A    between atoms: C_18  and  C_19
REMARK                            x       y       z     vdW  Elec       q    Type
REMARK                         _______ _______ _______ _____ _____    ______ ____
ROOT
ATOM      1  C   UNL     1       3.823   1.760  18.360  0.00  0.00    +0.000 C 
ATOM      2  C   UNL     1       4.129   3.227  18.638  0.00  0.00    +0.000 C 
ATOM      3  N   UNL     1       5.383   3.422  19.333  0.00  0.00    +0.000 N 
ATOM      4  C   UNL     1       6.063   4.517  18.862  0.00  0.00    +0.000 C 
ATOM      5  O   UNL     1       7.007   5.041  19.427  0.00  0.00    +0.000 OA
ATOM      6  N   UNL     1       5.558   4.840  17.648  0.00  0.00    +0.000 N 
ATOM      7  C   UNL     1       4.571   3.948  17.331  0.00  0.00    +0.000 C 
ATOM      8  O   UNL     1       4.089   3.775  16.220  0.00  0.00    +0.000 OA
ATOM      9  H   UNL     1       5.567   3.085  20.269  0.00  0.00    +0.000 HD
ENDROOT
BRANCH   2  10
ATOM     10  C   UNL     1       2.966   3.940  19.360  0.00  0.00    +0.000 A 
ATOM     11  C   UNL     1       3.181   5.197  19.968  0.00  0.00    +0.000 A 
ATOM     12  C   UNL     1       2.158   5.871  20.650  0.00  0.00    +0.000 A 
ATOM     13  C   UNL     1       0.887   5.317  20.738  0.00  0.00    +0.000 A 
ATOM     14  C   UNL     1       0.636   4.092  20.130  0.00  0.00    +0.000 A 
ATOM     15  C   UNL     1       1.652   3.416  19.437  0.00  0.00    +0.000 A 
ATOM     16 CL   UNL     1       1.169   1.930  18.689  0.00  0.00    +0.000 Cl
ENDBRANCH   2  10
BRANCH   6  17
ATOM     17  C   UNL     1       6.141   5.817  16.760  0.00  0.00    +0.000 C 
BRANCH  17  18
ATOM     18  C   UNL     1       6.936   5.148  15.643  0.00  0.00    +0.000 C 
ATOM     19  O   UNL     1       7.943   4.488  15.886  0.00  0.00    +0.000 OA
ATOM     20  N   UNL     1       6.424   5.255  14.362  0.00  0.00    +0.000 N 
ATOM     21  H   UNL     1       5.519   5.679  14.199  0.00  0.00    +0.000 HD
BRANCH  20  22
ATOM     22  C   UNL     1       7.100   4.578  13.281  0.00  0.00    +0.000 C 
BRANCH  22  23
ATOM     23  C   UNL     1       6.181   3.687  12.531  0.00  0.00    +0.000 A 
ATOM     24  C   UNL     1       4.840   3.768  12.207  0.00  0.00    +0.000 A 
ATOM     25  C   UNL     1       4.554   2.641  11.398  0.00  0.00    +0.000 A 
ATOM     26  C   UNL     1       5.735   1.948  11.278  0.00  0.00    +0.000 A 
ATOM     27  O   UNL     1       6.727   2.574  11.961  0.00  0.00    +0.000 OA
ENDBRANCH  22  23
ENDBRANCH  20  22
ENDBRANCH  17  18
ENDBRANCH   6  17
TORSDOF 5
ENDMDL
MODEL 4
REMARK VINA RESULT:      -7.0      2.285      2.871
REMARK  Name = 
REMARK  6 active torsions:
REMARK  status: ('A' for Active; 'I' for Inactive)
REMARK    1  A    between atoms: C_1  and  C_2
REMARK    2  A    between atoms: C_2  and  C_3
REMARK    3  A    between atoms: N_13  and  C_14
REMARK    4  A    between atoms: C_14  and  C_15
REMARK    5  A    between atoms: N_17  and  C_18
REMARK    6  A    between atoms: C_18  and  C_19
REMARK                            x       y       z     vdW  Elec       q    Type
REMARK                         _______ _______ _______ _____ _____    ______ ____
ROOT
ATOM      1  C   UNL     1       4.162   1.539  17.934  0.00  0.00    +0.000 C 
ATOM      2  C   UNL     1       4.193   2.899  18.621  0.00  0.00    +0.000 C 
ATOM      3  N   UNL     1       5.459   3.182  19.261  0.00  0.00    +0.000 N 
ATOM      4  C   UNL     1       5.832   4.493  19.100  0.00  0.00    +0.000 C 
ATOM      5  O   UNL     1       6.712   5.045  19.735  0.00  0.00    +0.000 OA
ATOM      6  N   UNL     1       5.117   5.013  18.075  0.00  0.00    +0.000 N 
ATOM      7  C   UNL     1       4.302   4.039  17.567  0.00  0.00    +0.000 C 
ATOM      8  O   UNL     1       3.725   4.075  16.489  0.00  0.00    +0.000 OA
ATOM      9  H   UNL     1       5.829   2.650  20.038  0.00  0.00    +0.000 HD
ENDROOT
BRANCH   2  10
ATOM     10  C   UNL     1       3.013   3.087  19.598  0.00  0.00    +0.000 A 
ATOM     11  C   UNL     1       3.162   2.734  20.957  0.00  0.00    +0.000 A 
ATOM     12  C   UNL     1       2.111   2.871  21.875  0.00  0.00    +0.000 A 
ATOM     13  C   UNL     1       0.882   3.374  21.467  0.00  0.00    +0.000 A 
ATOM     14  C   UNL     1       0.709   3.753  20.141  0.00  0.00    +0.000 A 
ATOM     15  C   UNL     1       1.760   3.628  19.219  0.00  0.00    +0.000 A 
ATOM     16 CL   UNL     1       1.405   4.193  17.619  0.00  0.00    +0.000 Cl
ENDBRANCH   2  10
BRANCH   6  17
ATOM     17  C   UNL     1       5.365   6.309  17.488  0.00  0.00    +0.000 C 
BRANCH  17  18
ATOM     18  C   UNL     1       6.457   6.237  16.425  0.00  0.00    +0.000 C 
ATOM     19  O   UNL     1       7.526   6.822  16.571  0.00  0.00    +0.000 OA
ATOM     20  N   UNL     1       6.214   5.420  15.334  0.00  0.00    +0.000 N 
ATOM     21  H   UNL     1       5.390   4.834  15.299  0.00  0.00    +0.000 HD
BRANCH  20  22
ATOM     22  C   UNL     1       7.247   5.262  14.337  0.00  0.00    +0.000 C 
BRANCH  22  23
ATOM     23  C   UNL     1       6.791   4.419  13.205  0.00  0.00    +0.000 A 
ATOM     24  C   UNL     1       7.325   4.131  11.964  0.00  0.00    +0.000 A 
ATOM     25  C   UNL     1       6.458   3.187  11.362  0.00  0.00    +0.000 A 
ATOM     26  C   UNL     1       5.454   2.956  12.273  0.00  0.00    +0.000 A 
ATOM     27  O   UNL     1       5.647   3.698  13.394  0.00  0.00    +0.000 OA
ENDBRANCH  22  23
ENDBRANCH  20  22
ENDBRANCH  17  18
ENDBRANCH   6  17
TORSDOF 5
ENDMDL
MODEL 5
REMARK VINA RESULT:      -7.0      2.195      2.617
REMARK  Name = 
REMARK  6 active torsions:
REMARK  status: ('A' for Active; 'I' for Inactive)
REMARK    1  A    between atoms: C_1  and  C_2
REMARK    2  A    between atoms: C_2  and  C_3
REMARK    3  A    between atoms: N_13  and  C_14
REMARK    4  A    between atoms: C_14  and  C_15
REMARK    5  A    between atoms: N_17  and  C_18
REMARK    6  A    between atoms: C_18  and  C_19
REMARK                            x       y       z     vdW  Elec       q    Type
REMARK                         _______ _______ _______ _____ _____    ______ ____
ROOT
ATOM      1  C   UNL     1       4.108   1.485  17.947  0.00  0.00    +0.000 C 
ATOM      2  C   UNL     1       4.206   2.900  18.504  0.00  0.00    +0.000 C 
ATOM      3  N   UNL     1       5.498   3.189  19.088  0.00  0.00    +0.000 N 
ATOM      4  C   UNL     1       5.914   4.465  18.798  0.00  0.00    +0.000 C 
ATOM      5  O   UNL     1       6.831   5.038  19.359  0.00  0.00    +0.000 OA
ATOM      6  N   UNL     1       5.193   4.917  17.745  0.00  0.00    +0.000 N 
ATOM      7  C   UNL     1       4.330   3.933  17.348  0.00  0.00    +0.000 C 
ATOM      8  O   UNL     1       3.728   3.892  16.283  0.00  0.00    +0.000 OA
ATOM      9  H   UNL     1       5.867   2.717  19.902  0.00  0.00    +0.000 HD
ENDROOT
BRANCH   2  10
ATOM     10  C   UNL     1       3.059   3.222  19.485  0.00  0.00    +0.000 A 
ATOM     11  C   UNL     1       1.985   4.038  19.067  0.00  0.00    +0.000 A 
ATOM     12  C   UNL     1       0.931   4.371  19.930  0.00  0.00    +0.000 A 
ATOM     13  C   UNL     1       0.911   3.890  21.234  0.00  0.00    +0.000 A 
ATOM     14  C   UNL     1       1.940   3.064  21.670  0.00  0.00    +0.000 A 
ATOM     15  C   UNL     1       2.994   2.720  20.808  0.00  0.00    +0.000 A 
ATOM     16 CL   UNL     1       4.170   1.640  21.481  0.00  0.00    +0.000 Cl
ENDBRANCH   2  10
BRANCH   6  17
ATOM     17  C   UNL     1       5.474   6.142  17.035  0.00  0.00    +0.000 C 
BRANCH  17  18
ATOM     18  C   UNL     1       6.489   5.917  15.918  0.00  0.00    +0.000 C 
ATOM     19  O   UNL     1       7.649   6.305  16.025  0.00  0.00    +0.000 OA
ATOM     20  N   UNL     1       6.059   5.189  14.822  0.00  0.00    +0.000 N 
ATOM     21  H   UNL     1       5.146   4.755  14.814  0.00  0.00    +0.000 HD
BRANCH  20  22
ATOM     22  C   UNL     1       7.003   4.887  13.772  0.00  0.00    +0.000 C 
BRANCH  22  23
ATOM     23  C   UNL     1       6.439   3.933  12.786  0.00  0.00    +0.000 A 
ATOM     24  C   UNL     1       7.010   3.022  11.917  0.00  0.00    +0.000 A 
ATOM     25  C   UNL     1       5.939   2.338  11.292  0.00  0.00    +0.000 A 
ATOM     26  C   UNL     1       4.786   2.871  11.820  0.00  0.00    +0.000 A 
ATOM     27  O   UNL     1       5.078   3.838  12.726  0.00  0.00    +0.000 OA
ENDBRANCH  22  23
ENDBRANCH  20  22
ENDBRANCH  17  18
ENDBRANCH   6  17
TORSDOF 5
ENDMDL
MODEL 6
REMARK VINA RESULT:      -7.0      3.558      5.501
REMARK  Name = 
REMARK  6 active torsions:
REMARK  status: ('A' for Active; 'I' for Inactive)
REMARK    1  A    between atoms: C_1  and  C_2
REMARK    2  A    between atoms: C_2  and  C_3
REMARK    3  A    between atoms: N_13  and  C_14
REMARK    4  A    between atoms: C_14  and  C_15
REMARK    5  A    between atoms: N_17  and  C_18
REMARK    6  A    between atoms: C_18  and  C_19
REMARK                            x       y       z     vdW  Elec       q    Type
REMARK                         _______ _______ _______ _____ _____    ______ ____
ROOT
ATOM      1  C   UNL     1       4.219   3.596  17.564  0.00  0.00    +0.000 C 
ATOM      2  C   UNL     1       4.827   4.875  18.128  0.00  0.00    +0.000 C 
ATOM      3  N   UNL     1       5.794   4.628  19.175  0.00  0.00    +0.000 N 
ATOM      4  C   UNL     1       6.872   5.472  19.084  0.00  0.00    +0.000 C 
ATOM      5  O   UNL     1       7.695   5.642  19.965  0.00  0.00    +0.000 OA
ATOM      6  N   UNL     1       6.894   5.998  17.836  0.00  0.00    +0.000 N 
ATOM      7  C   UNL     1       5.848   5.482  17.123  0.00  0.00    +0.000 C 
ATOM      8  O   UNL     1       5.717   5.525  15.907  0.00  0.00    +0.000 OA
ATOM      9  H   UNL     1       5.566   4.205  20.065  0.00  0.00    +0.000 HD
ENDROOT
BRANCH   2  10
ATOM     10  C   UNL     1       3.750   5.883  18.581  0.00  0.00    +0.000 A 
ATOM     11  C   UNL     1       3.537   7.065  17.839  0.00  0.00    +0.000 A 
ATOM     12  C   UNL     1       2.581   8.017  18.225  0.00  0.00    +0.000 A 
ATOM     13  C   UNL     1       1.802   7.812  19.357  0.00  0.00    +0.000 A 
ATOM     14  C   UNL     1       1.969   6.647  20.096  0.00  0.00    +0.000 A 
ATOM     15  C   UNL     1       2.918   5.686  19.711  0.00  0.00    +0.000 A 
ATOM     16 CL   UNL     1       2.969   4.265  20.702  0.00  0.00    +0.000 Cl
ENDBRANCH   2  10
BRANCH   6  17
ATOM     17  C   UNL     1       7.984   6.782  17.305  0.00  0.00    +0.000 C 
BRANCH  17  18
ATOM     18  C   UNL     1       7.914   8.228  17.786  0.00  0.00    +0.000 C 
ATOM     19  O   UNL     1       7.057   8.998  17.362  0.00  0.00    +0.000 OA
ATOM     20  N   UNL     1       8.807   8.601  18.775  0.00  0.00    +0.000 N 
ATOM     21  H   UNL     1       9.409   7.917  19.215  0.00  0.00    +0.000 HD
BRANCH  20  22
ATOM     22  C   UNL     1       8.732   9.939  19.315  0.00  0.00    +0.000 C 
BRANCH  22  23
ATOM     23  C   UNL     1       9.618  10.876  18.582  0.00  0.00    +0.000 A 
ATOM     24  C   UNL     1       9.399  11.789  17.568  0.00  0.00    +0.000 A 
ATOM     25  C   UNL     1      10.632  12.450  17.349  0.00  0.00    +0.000 A 
ATOM     26  C   UNL     1      11.523  11.902  18.242  0.00  0.00    +0.000 A 
ATOM     27  O   UNL     1      10.918  10.947  18.994  0.00  0.00    +0.000 OA
ENDBRANCH  22  23
ENDBRANCH  20  22
ENDBRANCH  17  18
ENDBRANCH   6  17
TORSDOF 5
ENDMDL
MODEL 7
REMARK VINA RESULT:      -6.9      2.310      2.920
REMARK  Name = 
REMARK  6 active torsions:
REMARK  status: ('A' for Active; 'I' for Inactive)
REMARK    1  A    between atoms: C_1  and  C_2
REMARK    2  A    between atoms: C_2  and  C_3
REMARK    3  A    between atoms: N_13  and  C_14
REMARK    4  A    between atoms: C_14  and  C_15
REMARK    5  A    between atoms: N_17  and  C_18
REMARK    6  A    between atoms: C_18  and  C_19
REMARK                            x       y       z     vdW  Elec       q    Type
REMARK                         _______ _______ _______ _____ _____    ______ ____
ROOT
ATOM      1  C   UNL     1       4.096   1.555  17.769  0.00  0.00    +0.000 C 
ATOM      2  C   UNL     1       4.136   2.892  18.499  0.00  0.00    +0.000 C 
ATOM      3  N   UNL     1       5.456   3.235  18.980  0.00  0.00    +0.000 N 
ATOM      4  C   UNL     1       5.725   4.572  18.824  0.00  0.00    +0.000 C 
ATOM      5  O   UNL     1       6.647   5.159  19.361  0.00  0.00    +0.000 OA
ATOM      6  N   UNL     1       4.851   5.077  17.922  0.00  0.00    +0.000 N 
ATOM      7  C   UNL     1       4.037   4.069  17.486  0.00  0.00    +0.000 C 
ATOM      8  O   UNL     1       3.322   4.101  16.493  0.00  0.00    +0.000 OA
ATOM      9  H   UNL     1       5.956   2.704  19.682  0.00  0.00    +0.000 HD
ENDROOT
BRANCH   2  10
ATOM     10  C   UNL     1       3.085   2.973  19.627  0.00  0.00    +0.000 A 
ATOM     11  C   UNL     1       1.857   3.631  19.398  0.00  0.00    +0.000 A 
ATOM     12  C   UNL     1       0.882   3.743  20.400  0.00  0.00    +0.000 A 
ATOM     13  C   UNL     1       1.098   3.193  21.657  0.00  0.00    +0.000 A 
ATOM     14  C   UNL     1       2.286   2.517  21.908  0.00  0.00    +0.000 A 
ATOM     15  C   UNL     1       3.263   2.393  20.907  0.00  0.00    +0.000 A 
ATOM     16 CL   UNL     1       4.664   1.477  21.357  0.00  0.00    +0.000 Cl
ENDBRANCH   2  10
BRANCH   6  17
ATOM     17  C   UNL     1       4.943   6.403  17.358  0.00  0.00    +0.000 C 
BRANCH  17  18
ATOM     18  C   UNL     1       5.584   6.376  15.975  0.00  0.00    +0.000 C 
ATOM     19  O   UNL     1       5.184   7.108  15.074  0.00  0.00    +0.000 OA
ATOM     20  N   UNL     1       6.681   5.549  15.811  0.00  0.00    +0.000 N 
ATOM     21  H   UNL     1       7.086   5.062  16.600  0.00  0.00    +0.000 HD
BRANCH  20  22
ATOM     22  C   UNL     1       7.367   5.543  14.540  0.00  0.00    +0.000 C 
BRANCH  22  23
ATOM     23  C   UNL     1       6.773   4.561  13.601  0.00  0.00    +0.000 A 
ATOM     24  C   UNL     1       5.623   3.796  13.634  0.00  0.00    +0.000 A 
ATOM     25  C   UNL     1       5.559   3.112  12.396  0.00  0.00    +0.000 A 
ATOM     26  C   UNL     1       6.670   3.503  11.686  0.00  0.00    +0.000 A 
ATOM     27  O   UNL     1       7.413   4.381  12.408  0.00  0.00    +0.000 OA
ENDBRANCH  22  23
ENDBRANCH  20  22
ENDBRANCH  17  18
ENDBRANCH   6  17
TORSDOF 5
ENDMDL
MODEL 8
REMARK VINA RESULT:      -6.7      1.393      1.822
REMARK  Name = 
REMARK  6 active torsions:
REMARK  status: ('A' for Active; 'I' for Inactive)
REMARK    1  A    between atoms: C_1  and  C_2
REMARK    2  A    between atoms: C_2  and  C_3
REMARK    3  A    between atoms: N_13  and  C_14
REMARK    4  A    between atoms: C_14  and  C_15
REMARK    5  A    between atoms: N_17  and  C_18
REMARK    6  A    between atoms: C_18  and  C_19
REMARK                            x       y       z     vdW  Elec       q    Type
REMARK                         _______ _______ _______ _____ _____    ______ ____
ROOT
ATOM      1  C   UNL     1       3.672   2.605  19.064  0.00  0.00    +0.000 C 
ATOM      2  C   UNL     1       4.393   3.932  18.860  0.00  0.00    +0.000 C 
ATOM      3  N   UNL     1       5.623   4.030  19.616  0.00  0.00    +0.000 N 
ATOM      4  C   UNL     1       6.615   4.649  18.899  0.00  0.00    +0.000 C 
ATOM      5  O   UNL     1       7.652   5.074  19.377  0.00  0.00    +0.000 OA
ATOM      6  N   UNL     1       6.273   4.621  17.590  0.00  0.00    +0.000 N 
ATOM      7  C   UNL     1       5.076   3.972  17.462  0.00  0.00    +0.000 C 
ATOM      8  O   UNL     1       4.603   3.534  16.422  0.00  0.00    +0.000 OA
ATOM      9  H   UNL     1       5.665   4.028  20.627  0.00  0.00    +0.000 HD
ENDROOT
BRANCH   2  10
ATOM     10  C   UNL     1       3.473   5.143  19.120  0.00  0.00    +0.000 A 
ATOM     11  C   UNL     1       3.481   6.238  18.228  0.00  0.00    +0.000 A 
ATOM     12  C   UNL     1       2.674   7.365  18.435  0.00  0.00    +0.000 A 
ATOM     13  C   UNL     1       1.827   7.431  19.534  0.00  0.00    +0.000 A 
ATOM     14  C   UNL     1       1.776   6.361  20.419  0.00  0.00    +0.000 A 
ATOM     15  C   UNL     1       2.574   5.224  20.212  0.00  0.00    +0.000 A 
ATOM     16 CL   UNL     1       2.358   3.954  21.371  0.00  0.00    +0.000 Cl
ENDBRANCH   2  10
BRANCH   6  17
ATOM     17  C   UNL     1       7.153   5.006  16.512  0.00  0.00    +0.000 C 
BRANCH  17  18
ATOM     18  C   UNL     1       6.395   5.136  15.195  0.00  0.00    +0.000 C 
ATOM     19  O   UNL     1       5.823   6.179  14.891  0.00  0.00    +0.000 OA
ATOM     20  N   UNL     1       6.450   4.055  14.333  0.00  0.00    +0.000 N 
ATOM     21  H   UNL     1       7.043   3.260  14.536  0.00  0.00    +0.000 HD
BRANCH  20  22
ATOM     22  C   UNL     1       5.809   4.157  13.043  0.00  0.00    +0.000 C 
BRANCH  22  23
ATOM     23  C   UNL     1       6.153   3.010  12.168  0.00  0.00    +0.000 A 
ATOM     24  C   UNL     1       5.401   2.014  11.574  0.00  0.00    +0.000 A 
ATOM     25  C   UNL     1       6.296   1.254  10.781  0.00  0.00    +0.000 A 
ATOM     26  C   UNL     1       7.533   1.834  10.939  0.00  0.00    +0.000 A 
ATOM     27  O   UNL     1       7.457   2.899  11.778  0.00  0.00    +0.000 OA
ENDBRANCH  22  23
ENDBRANCH  20  22
ENDBRANCH  17  18
ENDBRANCH   6  17
TORSDOF 5
ENDMDL
MODEL 9
REMARK VINA RESULT:      -6.7      1.507      1.908
REMARK  Name = 
REMARK  6 active torsions:
REMARK  status: ('A' for Active; 'I' for Inactive)
REMARK    1  A    between atoms: C_1  and  C_2
REMARK    2  A    between atoms: C_2  and  C_3
REMARK    3  A    between atoms: N_13  and  C_14
REMARK    4  A    between atoms: C_14  and  C_15
REMARK    5  A    between atoms: N_17  and  C_18
REMARK    6  A    between atoms: C_18  and  C_19
REMARK                            x       y       z     vdW  Elec       q    Type
REMARK                         _______ _______ _______ _____ _____    ______ ____
ROOT
ATOM      1  C   UNL     1       3.739   2.180  18.475  0.00  0.00    +0.000 C 
ATOM      2  C   UNL     1       4.221   3.621  18.598  0.00  0.00    +0.000 C 
ATOM      3  N   UNL     1       5.573   3.724  19.104  0.00  0.00    +0.000 N 
ATOM      4  C   UNL     1       6.283   4.710  18.466  0.00  0.00    +0.000 C 
ATOM      5  O   UNL     1       7.342   5.164  18.858  0.00  0.00    +0.000 OA
ATOM      6  N   UNL     1       5.647   5.008  17.308  0.00  0.00    +0.000 N 
ATOM      7  C   UNL     1       4.544   4.208  17.193  0.00  0.00    +0.000 C 
ATOM      8  O   UNL     1       3.897   4.018  16.172  0.00  0.00    +0.000 OA
ATOM      9  H   UNL     1       5.852   3.428  20.030  0.00  0.00    +0.000 HD
ENDROOT
BRANCH   2  10
ATOM     10  C   UNL     1       3.245   4.496  19.412  0.00  0.00    +0.000 A 
ATOM     11  C   UNL     1       2.884   5.776  18.936  0.00  0.00    +0.000 A 
ATOM     12  C   UNL     1       2.015   6.611  19.652  0.00  0.00    +0.000 A 
ATOM     13  C   UNL     1       1.471   6.191  20.859  0.00  0.00    +0.000 A 
ATOM     14  C   UNL     1       1.786   4.927  21.344  0.00  0.00    +0.000 A 
ATOM     15  C   UNL     1       2.649   4.082  20.628  0.00  0.00    +0.000 A 
ATOM     16 CL   UNL     1       2.901   2.520  21.335  0.00  0.00    +0.000 Cl
ENDBRANCH   2  10
BRANCH   6  17
ATOM     17  C   UNL     1       6.193   5.861  16.279  0.00  0.00    +0.000 C 
BRANCH  17  18
ATOM     18  C   UNL     1       6.914   5.048  15.209  0.00  0.00    +0.000 C 
ATOM     19  O   UNL     1       8.095   4.737  15.335  0.00  0.00    +0.000 OA
ATOM     20  N   UNL     1       6.155   4.617  14.135  0.00  0.00    +0.000 N 
ATOM     21  H   UNL     1       5.153   4.759  14.117  0.00  0.00    +0.000 HD
BRANCH  20  22
ATOM     22  C   UNL     1       6.774   3.783  13.132  0.00  0.00    +0.000 C 
BRANCH  22  23
ATOM     23  C   UNL     1       5.775   3.224  12.190  0.00  0.00    +0.000 A 
ATOM     24  C   UNL     1       5.719   2.057  11.451  0.00  0.00    +0.000 A 
ATOM     25  C   UNL     1       4.460   2.052  10.803  0.00  0.00    +0.000 A 
ATOM     26  C   UNL     1       3.827   3.210  11.188  0.00  0.00    +0.000 A 
ATOM     27  O   UNL     1       4.616   3.927  12.029  0.00  0.00    +0.000 OA
ENDBRANCH  22  23
ENDBRANCH  20  22
ENDBRANCH  17  18
ENDBRANCH   6  17
TORSDOF 5
ENDMDL
