MODEL 1
REMARK VINA RESULT:      -8.7      0.000      0.000
REMARK  Name = 
REMARK  4 active torsions:
REMARK  status: ('A' for Active; 'I' for Inactive)
REMARK    1  A    between atoms: N_3  and  C_4
REMARK    2  A    between atoms: C_4  and  C_5
REMARK    3  A    between atoms: N_23  and  C_24
REMARK    4  A    between atoms: C_24  and  C_25
REMARK                            x       y       z     vdW  Elec       q    Type
REMARK                         _______ _______ _______ _____ _____    ______ ____
ROOT
ATOM      1  O   UNL     1      -1.561  12.421  21.301  0.00  0.00    +0.000 OA
ATOM      2  C   UNL     1      -0.832  11.497  20.954  0.00  0.00    +0.000 A 
ATOM      3  N   UNL     1      -0.403  11.229  19.620  0.00  0.00    +0.000 N 
ATOM      4  C   UNL     1       0.460  10.142  19.382  0.00  0.00    +0.000 A 
ATOM      5  S   UNL     1       1.105   9.752  17.851  0.00  0.00    +0.000 S 
ATOM      6  C   UNL     1       1.867   8.342  18.462  0.00  0.00    +0.000 A 
ATOM      7  C   UNL     1       1.638   8.186  19.819  0.00  0.00    +0.000 A 
ATOM      8  C   UNL     1       0.898   9.258  20.335  0.00  0.00    +0.000 A 
ATOM      9  C   UNL     1       0.471   9.530  21.702  0.00  0.00    +0.000 A 
ATOM     10  N   UNL     1       0.750   8.894  22.814  0.00  0.00    +0.000 NA
ATOM     11  C   UNL     1       0.077   9.639  23.740  0.00  0.00    +0.000 A 
ATOM     12  N   UNL     1      -0.606  10.688  23.261  0.00  0.00    +0.000 NA
ATOM     13  N   UNL     1      -0.339  10.603  21.930  0.00  0.00    +0.000 N 
ATOM     14  C   UNL     1       2.088   6.958  20.530  0.00  0.00    +0.000 C 
ATOM     15  C   UNL     1       2.248   5.825  19.503  0.00  0.00    +0.000 C 
ATOM     16  N   UNL     1       3.211   6.260  18.470  0.00  0.00    +0.000 NA
ATOM     17  C   UNL     1       2.596   7.317  17.609  0.00  0.00    +0.000 C 
ENDROOT
BRANCH   3  18
ATOM     18  C   UNL     1      -0.907  12.142  18.597  0.00  0.00    +0.000 C 
BRANCH  18  19
ATOM     19  C   UNL     1      -2.190  11.699  17.918  0.00  0.00    +0.000 A 
ATOM     20  C   UNL     1      -3.439  11.911  18.522  0.00  0.00    +0.000 A 
ATOM     21  C   UNL     1      -4.627  11.634  17.840  0.00  0.00    +0.000 A 
ATOM     22  C   UNL     1      -4.580  11.133  16.540  0.00  0.00    +0.000 A 
ATOM     23  C   UNL     1      -3.348  10.881  15.940  0.00  0.00    +0.000 A 
ATOM     24  C   UNL     1      -2.163  11.156  16.625  0.00  0.00    +0.000 A 
ENDBRANCH  18  19
ENDBRANCH   3  18
BRANCH  16  25
ATOM     25  C   UNL     1       3.777   5.146  17.697  0.00  0.00    +0.000 C 
BRANCH  25  26
ATOM     26  C   UNL     1       5.266   5.359  17.308  0.00  0.00    +0.000 C 
ATOM     27  C   UNL     1       5.567   4.914  15.867  0.00  0.00    +0.000 C 
ATOM     28  C   UNL     1       7.050   5.065  15.555  0.00  0.00    +0.000 C 
ATOM     29  O   UNL     1       7.836   4.323  16.486  0.00  0.00    +0.000 OA
ATOM     30  C   UNL     1       7.668   4.791  17.823  0.00  0.00    +0.000 C 
ATOM     31  C   UNL     1       6.217   4.641  18.277  0.00  0.00    +0.000 C 
ENDBRANCH  25  26
ENDBRANCH  16  25
TORSDOF 4
ENDMDL
MODEL 2
REMARK VINA RESULT:      -8.5      1.668      2.787
REMARK  Name = 
REMARK  4 active torsions:
REMARK  status: ('A' for Active; 'I' for Inactive)
REMARK    1  A    between atoms: N_3  and  C_4
REMARK    2  A    between atoms: C_4  and  C_5
REMARK    3  A    between atoms: N_23  and  C_24
REMARK    4  A    between atoms: C_24  and  C_25
REMARK                            x       y       z     vdW  Elec       q    Type
REMARK                         _______ _______ _______ _____ _____    ______ ____
ROOT
ATOM      1  O   UNL     1      -1.248  12.647  21.187  0.00  0.00    +0.000 OA
ATOM      2  C   UNL     1      -0.568  11.676  20.872  0.00  0.00    +0.000 A 
ATOM      3  N   UNL     1      -0.041  11.414  19.572  0.00  0.00    +0.000 N 
ATOM      4  C   UNL     1       0.747  10.265  19.371  0.00  0.00    +0.000 A 
ATOM      5  S   UNL     1       1.498   9.869  17.890  0.00  0.00    +0.000 S 
ATOM      6  C   UNL     1       2.079   8.380  18.511  0.00  0.00    +0.000 A 
ATOM      7  C   UNL     1       1.712   8.201  19.834  0.00  0.00    +0.000 A 
ATOM      8  C   UNL     1       1.019   9.316  20.323  0.00  0.00    +0.000 A 
ATOM      9  C   UNL     1       0.490   9.580  21.655  0.00  0.00    +0.000 A 
ATOM     10  N   UNL     1       0.610   8.888  22.762  0.00  0.00    +0.000 NA
ATOM     11  C   UNL     1      -0.082   9.658  23.653  0.00  0.00    +0.000 A 
ATOM     12  N   UNL     1      -0.627  10.776  23.156  0.00  0.00    +0.000 NA
ATOM     13  N   UNL     1      -0.245  10.712  21.852  0.00  0.00    +0.000 N 
ATOM     14  C   UNL     1       1.991   6.917  20.533  0.00  0.00    +0.000 C 
ATOM     15  C   UNL     1       2.150   5.807  19.481  0.00  0.00    +0.000 C 
ATOM     16  N   UNL     1       3.239   6.191  18.557  0.00  0.00    +0.000 NA
ATOM     17  C   UNL     1       2.797   7.323  17.687  0.00  0.00    +0.000 C 
ENDROOT
BRANCH   3  18
ATOM     18  C   UNL     1      -0.369  12.399  18.545  0.00  0.00    +0.000 C 
BRANCH  18  19
ATOM     19  C   UNL     1       0.517  13.630  18.529  0.00  0.00    +0.000 A 
ATOM     20  C   UNL     1      -0.006  14.903  18.805  0.00  0.00    +0.000 A 
ATOM     21  C   UNL     1       0.831  16.015  18.931  0.00  0.00    +0.000 A 
ATOM     22  C   UNL     1       2.208  15.868  18.775  0.00  0.00    +0.000 A 
ATOM     23  C   UNL     1       2.740  14.619  18.464  0.00  0.00    +0.000 A 
ATOM     24  C   UNL     1       1.901  13.510  18.336  0.00  0.00    +0.000 A 
ENDBRANCH  18  19
ENDBRANCH   3  18
BRANCH  16  25
ATOM     25  C   UNL     1       3.780   5.057  17.795  0.00  0.00    +0.000 C 
BRANCH  25  26
ATOM     26  C   UNL     1       5.260   5.252  17.365  0.00  0.00    +0.000 C 
ATOM     27  C   UNL     1       5.631   4.410  16.133  0.00  0.00    +0.000 C 
ATOM     28  C   UNL     1       7.108   4.571  15.796  0.00  0.00    +0.000 C 
ATOM     29  O   UNL     1       7.919   4.213  16.914  0.00  0.00    +0.000 OA
ATOM     30  C   UNL     1       7.681   5.056  18.041  0.00  0.00    +0.000 C 
ATOM     31  C   UNL     1       6.233   4.943  18.513  0.00  0.00    +0.000 C 
ENDBRANCH  25  26
ENDBRANCH  16  25
TORSDOF 4
ENDMDL
MODEL 3
REMARK VINA RESULT:      -8.4      2.337      8.926
REMARK  Name = 
REMARK  4 active torsions:
REMARK  status: ('A' for Active; 'I' for Inactive)
REMARK    1  A    between atoms: N_3  and  C_4
REMARK    2  A    between atoms: C_4  and  C_5
REMARK    3  A    between atoms: N_23  and  C_24
REMARK    4  A    between atoms: C_24  and  C_25
REMARK                            x       y       z     vdW  Elec       q    Type
REMARK                         _______ _______ _______ _____ _____    ______ ____
ROOT
ATOM      1  O   UNL     1       5.123   2.787  19.111  0.00  0.00    +0.000 OA
ATOM      2  C   UNL     1       4.385   3.762  19.211  0.00  0.00    +0.000 A 
ATOM      3  N   UNL     1       4.473   4.958  18.437  0.00  0.00    +0.000 N 
ATOM      4  C   UNL     1       3.532   5.983  18.650  0.00  0.00    +0.000 A 
ATOM      5  S   UNL     1       3.477   7.431  17.748  0.00  0.00    +0.000 S 
ATOM      6  C   UNL     1       2.203   8.056  18.712  0.00  0.00    +0.000 A 
ATOM      7  C   UNL     1       1.823   7.160  19.697  0.00  0.00    +0.000 A 
ATOM      8  C   UNL     1       2.541   5.961  19.597  0.00  0.00    +0.000 A 
ATOM      9  C   UNL     1       2.439   4.740  20.387  0.00  0.00    +0.000 A 
ATOM     10  N   UNL     1       1.587   4.413  21.328  0.00  0.00    +0.000 NA
ATOM     11  C   UNL     1       1.998   3.153  21.655  0.00  0.00    +0.000 A 
ATOM     12  N   UNL     1       3.057   2.691  20.977  0.00  0.00    +0.000 NA
ATOM     13  N   UNL     1       3.333   3.737  20.153  0.00  0.00    +0.000 N 
ATOM     14  C   UNL     1       0.830   7.549  20.736  0.00  0.00    +0.000 C 
ATOM     15  C   UNL     1       0.812   9.083  20.851  0.00  0.00    +0.000 C 
ATOM     16  N   UNL     1       0.488   9.648  19.525  0.00  0.00    +0.000 NA
ATOM     17  C   UNL     1       1.642   9.464  18.593  0.00  0.00    +0.000 C 
ENDROOT
BRANCH   3  18
ATOM     18  C   UNL     1       5.558   5.001  17.460  0.00  0.00    +0.000 C 
BRANCH  18  19
ATOM     19  C   UNL     1       6.661   5.995  17.771  0.00  0.00    +0.000 A 
ATOM     20  C   UNL     1       6.798   7.181  17.031  0.00  0.00    +0.000 A 
ATOM     21  C   UNL     1       7.720   8.162  17.405  0.00  0.00    +0.000 A 
ATOM     22  C   UNL     1       8.527   7.966  18.524  0.00  0.00    +0.000 A 
ATOM     23  C   UNL     1       8.431   6.778  19.247  0.00  0.00    +0.000 A 
ATOM     24  C   UNL     1       7.510   5.799  18.870  0.00  0.00    +0.000 A 
ENDBRANCH  18  19
ENDBRANCH   3  18
BRANCH  16  25
ATOM     25  C   UNL     1       0.015  11.039  19.586  0.00  0.00    +0.000 C 
BRANCH  25  26
ATOM     26  C   UNL     1      -1.242  11.302  18.714  0.00  0.00    +0.000 C 
ATOM     27  C   UNL     1      -2.425  11.844  19.534  0.00  0.00    +0.000 C 
ATOM     28  C   UNL     1      -3.658  12.012  18.656  0.00  0.00    +0.000 C 
ATOM     29  O   UNL     1      -4.001  10.775  18.033  0.00  0.00    +0.000 OA
ATOM     30  C   UNL     1      -2.968  10.304  17.170  0.00  0.00    +0.000 C 
ATOM     31  C   UNL     1      -1.680  10.044  17.949  0.00  0.00    +0.000 C 
ENDBRANCH  25  26
ENDBRANCH  16  25
TORSDOF 4
ENDMDL
MODEL 4
REMARK VINA RESULT:      -8.4      2.439      9.181
REMARK  Name = 
REMARK  4 active torsions:
REMARK  status: ('A' for Active; 'I' for Inactive)
REMARK    1  A    between atoms: N_3  and  C_4
REMARK    2  A    between atoms: C_4  and  C_5
REMARK    3  A    between atoms: N_23  and  C_24
REMARK    4  A    between atoms: C_24  and  C_25
REMARK                            x       y       z     vdW  Elec       q    Type
REMARK                         _______ _______ _______ _____ _____    ______ ____
ROOT
ATOM      1  O   UNL     1       4.362   2.848  18.457  0.00  0.00    +0.000 OA
ATOM      2  C   UNL     1       3.733   3.846  18.794  0.00  0.00    +0.000 A 
ATOM      3  N   UNL     1       3.858   5.145  18.217  0.00  0.00    +0.000 N 
ATOM      4  C   UNL     1       3.044   6.188  18.695  0.00  0.00    +0.000 A 
ATOM      5  S   UNL     1       3.039   7.768  18.049  0.00  0.00    +0.000 S 
ATOM      6  C   UNL     1       1.929   8.318  19.237  0.00  0.00    +0.000 A 
ATOM      7  C   UNL     1       1.564   7.300  20.101  0.00  0.00    +0.000 A 
ATOM      8  C   UNL     1       2.151   6.084  19.731  0.00  0.00    +0.000 A 
ATOM      9  C   UNL     1       2.011   4.758  20.321  0.00  0.00    +0.000 A 
ATOM     10  N   UNL     1       1.228   4.343  21.286  0.00  0.00    +0.000 NA
ATOM     11  C   UNL     1       1.548   3.017  21.359  0.00  0.00    +0.000 A 
ATOM     12  N   UNL     1       2.487   2.596  20.502  0.00  0.00    +0.000 NA
ATOM     13  N   UNL     1       2.780   3.743  19.831  0.00  0.00    +0.000 N 
ATOM     14  C   UNL     1       0.717   7.583  21.293  0.00  0.00    +0.000 C 
ATOM     15  C   UNL     1       0.856   9.071  21.654  0.00  0.00    +0.000 C 
ATOM     16  N   UNL     1       0.460   9.877  20.480  0.00  0.00    +0.000 NA
ATOM     17  C   UNL     1       1.495   9.764  19.408  0.00  0.00    +0.000 C 
ENDROOT
BRANCH   3  18
ATOM     18  C   UNL     1       4.843   5.269  17.145  0.00  0.00    +0.000 C 
BRANCH  18  19
ATOM     19  C   UNL     1       6.126   5.980  17.532  0.00  0.00    +0.000 A 
ATOM     20  C   UNL     1       6.479   7.207  16.948  0.00  0.00    +0.000 A 
ATOM     21  C   UNL     1       7.583   7.931  17.404  0.00  0.00    +0.000 A 
ATOM     22  C   UNL     1       8.358   7.432  18.450  0.00  0.00    +0.000 A 
ATOM     23  C   UNL     1       8.043   6.198  19.015  0.00  0.00    +0.000 A 
ATOM     24  C   UNL     1       6.940   5.475  18.556  0.00  0.00    +0.000 A 
ENDBRANCH  18  19
ENDBRANCH   3  18
BRANCH  16  25
ATOM     25  C   UNL     1       0.129  11.269  20.816  0.00  0.00    +0.000 C 
BRANCH  25  26
ATOM     26  C   UNL     1      -1.313  11.446  21.365  0.00  0.00    +0.000 C 
ATOM     27  C   UNL     1      -2.097  12.540  20.621  0.00  0.00    +0.000 C 
ATOM     28  C   UNL     1      -3.473  12.734  21.242  0.00  0.00    +0.000 C 
ATOM     29  O   UNL     1      -3.357  13.051  22.628  0.00  0.00    +0.000 OA
ATOM     30  C   UNL     1      -2.739  12.001  23.369  0.00  0.00    +0.000 C 
ATOM     31  C   UNL     1      -1.318  11.744  22.872  0.00  0.00    +0.000 C 
ENDBRANCH  25  26
ENDBRANCH  16  25
TORSDOF 4
ENDMDL
MODEL 5
REMARK VINA RESULT:      -8.4      2.304      8.830
REMARK  Name = 
REMARK  4 active torsions:
REMARK  status: ('A' for Active; 'I' for Inactive)
REMARK    1  A    between atoms: N_3  and  C_4
REMARK    2  A    between atoms: C_4  and  C_5
REMARK    3  A    between atoms: N_23  and  C_24
REMARK    4  A    between atoms: C_24  and  C_25
REMARK                            x       y       z     vdW  Elec       q    Type
REMARK                         _______ _______ _______ _____ _____    ______ ____
ROOT
ATOM      1  O   UNL     1       5.278   2.561  19.716  0.00  0.00    +0.000 OA
ATOM      2  C   UNL     1       4.576   3.562  19.613  0.00  0.00    +0.000 A 
ATOM      3  N   UNL     1       4.890   4.727  18.853  0.00  0.00    +0.000 N 
ATOM      4  C   UNL     1       3.966   5.788  18.810  0.00  0.00    +0.000 A 
ATOM      5  S   UNL     1       4.182   7.206  17.885  0.00  0.00    +0.000 S 
ATOM      6  C   UNL     1       2.742   7.904  18.503  0.00  0.00    +0.000 A 
ATOM      7  C   UNL     1       2.106   7.055  19.393  0.00  0.00    +0.000 A 
ATOM      8  C   UNL     1       2.780   5.831  19.497  0.00  0.00    +0.000 A 
ATOM      9  C   UNL     1       2.447   4.641  20.270  0.00  0.00    +0.000 A 
ATOM     10  N   UNL     1       1.386   4.374  20.991  0.00  0.00    +0.000 NA
ATOM     11  C   UNL     1       1.658   3.112  21.438  0.00  0.00    +0.000 A 
ATOM     12  N   UNL     1       2.828   2.594  21.043  0.00  0.00    +0.000 NA
ATOM     13  N   UNL     1       3.331   3.603  20.281  0.00  0.00    +0.000 N 
ATOM     14  C   UNL     1       0.912   7.511  20.157  0.00  0.00    +0.000 C 
ATOM     15  C   UNL     1       0.928   9.046  20.226  0.00  0.00    +0.000 C 
ATOM     16  N   UNL     1       0.947   9.577  18.846  0.00  0.00    +0.000 NA
ATOM     17  C   UNL     1       2.281   9.324  18.219  0.00  0.00    +0.000 C 
ENDROOT
BRANCH   3  18
ATOM     18  C   UNL     1       6.176   4.703  18.159  0.00  0.00    +0.000 C 
BRANCH  18  19
ATOM     19  C   UNL     1       6.095   4.445  16.667  0.00  0.00    +0.000 A 
ATOM     20  C   UNL     1       4.936   3.906  16.086  0.00  0.00    +0.000 A 
ATOM     21  C   UNL     1       4.806   3.800  14.700  0.00  0.00    +0.000 A 
ATOM     22  C   UNL     1       5.842   4.226  13.870  0.00  0.00    +0.000 A 
ATOM     23  C   UNL     1       7.015   4.728  14.431  0.00  0.00    +0.000 A 
ATOM     24  C   UNL     1       7.143   4.831  15.818  0.00  0.00    +0.000 A 
ENDBRANCH  18  19
ENDBRANCH   3  18
BRANCH  16  25
ATOM     25  C   UNL     1       0.528  10.983  18.758  0.00  0.00    +0.000 C 
BRANCH  25  26
ATOM     26  C   UNL     1      -0.886  11.168  18.144  0.00  0.00    +0.000 C 
ATOM     27  C   UNL     1      -1.938  11.560  19.195  0.00  0.00    +0.000 C 
ATOM     28  C   UNL     1      -3.321  11.653  18.565  0.00  0.00    +0.000 C 
ATOM     29  O   UNL     1      -3.670  10.419  17.940  0.00  0.00    +0.000 OA
ATOM     30  C   UNL     1      -2.779  10.086  16.877  0.00  0.00    +0.000 C 
ATOM     31  C   UNL     1      -1.352   9.911  17.394  0.00  0.00    +0.000 C 
ENDBRANCH  25  26
ENDBRANCH  16  25
TORSDOF 4
ENDMDL
MODEL 6
REMARK VINA RESULT:      -8.3      2.195      8.983
REMARK  Name = 
REMARK  4 active torsions:
REMARK  status: ('A' for Active; 'I' for Inactive)
REMARK    1  A    between atoms: N_3  and  C_4
REMARK    2  A    between atoms: C_4  and  C_5
REMARK    3  A    between atoms: N_23  and  C_24
REMARK    4  A    between atoms: C_24  and  C_25
REMARK                            x       y       z     vdW  Elec       q    Type
REMARK                         _______ _______ _______ _____ _____    ______ ____
ROOT
ATOM      1  O   UNL     1       4.127   2.524  18.084  0.00  0.00    +0.000 OA
ATOM      2  C   UNL     1       3.555   3.541  18.462  0.00  0.00    +0.000 A 
ATOM      3  N   UNL     1       3.801   4.863  17.986  0.00  0.00    +0.000 N 
ATOM      4  C   UNL     1       3.040   5.930  18.501  0.00  0.00    +0.000 A 
ATOM      5  S   UNL     1       3.181   7.546  17.970  0.00  0.00    +0.000 S 
ATOM      6  C   UNL     1       2.056   8.095  19.143  0.00  0.00    +0.000 A 
ATOM      7  C   UNL     1       1.575   7.051  19.915  0.00  0.00    +0.000 A 
ATOM      8  C   UNL     1       2.092   5.822  19.486  0.00  0.00    +0.000 A 
ATOM      9  C   UNL     1       1.829   4.474  19.972  0.00  0.00    +0.000 A 
ATOM     10  N   UNL     1       0.971   4.054  20.870  0.00  0.00    +0.000 NA
ATOM     11  C   UNL     1       1.190   2.706  20.862  0.00  0.00    +0.000 A 
ATOM     12  N   UNL     1       2.139   2.275  20.020  0.00  0.00    +0.000 NA
ATOM     13  N   UNL     1       2.546   3.440  19.446  0.00  0.00    +0.000 N 
ATOM     14  C   UNL     1       0.693   7.315  21.085  0.00  0.00    +0.000 C 
ATOM     15  C   UNL     1       0.920   8.761  21.557  0.00  0.00    +0.000 C 
ATOM     16  N   UNL     1       0.641   9.672  20.427  0.00  0.00    +0.000 NA
ATOM     17  C   UNL     1       1.718   9.555  19.397  0.00  0.00    +0.000 C 
ENDROOT
BRANCH   3  18
ATOM     18  C   UNL     1       4.844   4.986  16.971  0.00  0.00    +0.000 C 
BRANCH  18  19
ATOM     19  C   UNL     1       6.089   5.730  17.418  0.00  0.00    +0.000 A 
ATOM     20  C   UNL     1       6.460   6.945  16.821  0.00  0.00    +0.000 A 
ATOM     21  C   UNL     1       7.522   7.701  17.324  0.00  0.00    +0.000 A 
ATOM     22  C   UNL     1       8.235   7.245  18.432  0.00  0.00    +0.000 A 
ATOM     23  C   UNL     1       7.904   6.023  19.013  0.00  0.00    +0.000 A 
ATOM     24  C   UNL     1       6.843   5.268  18.506  0.00  0.00    +0.000 A 
ENDBRANCH  18  19
ENDBRANCH   3  18
BRANCH  16  25
ATOM     25  C   UNL     1       0.394  11.059  20.846  0.00  0.00    +0.000 C 
BRANCH  25  26
ATOM     26  C   UNL     1      -0.749  11.749  20.053  0.00  0.00    +0.000 C 
ATOM     27  C   UNL     1      -1.834  12.333  20.973  0.00  0.00    +0.000 C 
ATOM     28  C   UNL     1      -2.972  12.928  20.154  0.00  0.00    +0.000 C 
ATOM     29  O   UNL     1      -3.527  11.946  19.281  0.00  0.00    +0.000 OA
ATOM     30  C   UNL     1      -2.572  11.469  18.334  0.00  0.00    +0.000 C 
ATOM     31  C   UNL     1      -1.395  10.796  19.037  0.00  0.00    +0.000 C 
ENDBRANCH  25  26
ENDBRANCH  16  25
TORSDOF 4
ENDMDL
MODEL 7
REMARK VINA RESULT:      -8.3      1.961      3.258
REMARK  Name = 
REMARK  4 active torsions:
REMARK  status: ('A' for Active; 'I' for Inactive)
REMARK    1  A    between atoms: N_3  and  C_4
REMARK    2  A    between atoms: C_4  and  C_5
REMARK    3  A    between atoms: N_23  and  C_24
REMARK    4  A    between atoms: C_24  and  C_25
REMARK                            x       y       z     vdW  Elec       q    Type
REMARK                         _______ _______ _______ _____ _____    ______ ____
ROOT
ATOM      1  O   UNL     1      -0.779  12.735  21.084  0.00  0.00    +0.000 OA
ATOM      2  C   UNL     1      -0.196  11.691  20.809  0.00  0.00    +0.000 A 
ATOM      3  N   UNL     1       0.378  11.364  19.544  0.00  0.00    +0.000 N 
ATOM      4  C   UNL     1       1.042  10.133  19.390  0.00  0.00    +0.000 A 
ATOM      5  S   UNL     1       1.834   9.648  17.958  0.00  0.00    +0.000 S 
ATOM      6  C   UNL     1       2.205   8.105  18.612  0.00  0.00    +0.000 A 
ATOM      7  C   UNL     1       1.739   7.977  19.909  0.00  0.00    +0.000 A 
ATOM      8  C   UNL     1       1.147   9.165  20.356  0.00  0.00    +0.000 A 
ATOM      9  C   UNL     1       0.570   9.494  21.653  0.00  0.00    +0.000 A 
ATOM     10  N   UNL     1       0.542   8.799  22.764  0.00  0.00    +0.000 NA
ATOM     11  C   UNL     1      -0.112   9.647  23.612  0.00  0.00    +0.000 A 
ATOM     12  N   UNL     1      -0.496  10.816  23.084  0.00  0.00    +0.000 NA
ATOM     13  N   UNL     1      -0.044  10.702  21.806  0.00  0.00    +0.000 N 
ATOM     14  C   UNL     1       1.827   6.673  20.622  0.00  0.00    +0.000 C 
ATOM     15  C   UNL     1       1.925   5.546  19.580  0.00  0.00    +0.000 C 
ATOM     16  N   UNL     1       3.105   5.800  18.726  0.00  0.00    +0.000 NA
ATOM     17  C   UNL     1       2.848   6.970  17.832  0.00  0.00    +0.000 C 
ENDROOT
BRANCH   3  18
ATOM     18  C   UNL     1       0.226  12.375  18.500  0.00  0.00    +0.000 C 
BRANCH  18  19
ATOM     19  C   UNL     1       1.233  13.508  18.553  0.00  0.00    +0.000 A 
ATOM     20  C   UNL     1       2.588  13.288  18.258  0.00  0.00    +0.000 A 
ATOM     21  C   UNL     1       3.489  14.352  18.168  0.00  0.00    +0.000 A 
ATOM     22  C   UNL     1       3.046  15.656  18.379  0.00  0.00    +0.000 A 
ATOM     23  C   UNL     1       1.712  15.889  18.710  0.00  0.00    +0.000 A 
ATOM     24  C   UNL     1       0.815  14.823  18.802  0.00  0.00    +0.000 A 
ENDBRANCH  18  19
ENDBRANCH   3  18
BRANCH  16  25
ATOM     25  C   UNL     1       3.561   4.608  17.997  0.00  0.00    +0.000 C 
BRANCH  25  26
ATOM     26  C   UNL     1       5.108   4.473  17.941  0.00  0.00    +0.000 C 
ATOM     27  C   UNL     1       5.820   5.473  18.868  0.00  0.00    +0.000 C 
ATOM     28  C   UNL     1       7.331   5.360  18.722  0.00  0.00    +0.000 C 
ATOM     29  O   UNL     1       7.720   5.566  17.365  0.00  0.00    +0.000 OA
ATOM     30  C   UNL     1       7.169   4.579  16.494  0.00  0.00    +0.000 C 
ATOM     31  C   UNL     1       5.643   4.627  16.510  0.00  0.00    +0.000 C 
ENDBRANCH  25  26
ENDBRANCH  16  25
TORSDOF 4
ENDMDL
MODEL 8
REMARK VINA RESULT:      -8.2      0.652      1.367
REMARK  Name = 
REMARK  4 active torsions:
REMARK  status: ('A' for Active; 'I' for Inactive)
REMARK    1  A    between atoms: N_3  and  C_4
REMARK    2  A    between atoms: C_4  and  C_5
REMARK    3  A    between atoms: N_23  and  C_24
REMARK    4  A    between atoms: C_24  and  C_25
REMARK                            x       y       z     vdW  Elec       q    Type
REMARK                         _______ _______ _______ _____ _____    ______ ____
ROOT
ATOM      1  O   UNL     1      -1.270  12.309  21.050  0.00  0.00    +0.000 OA
ATOM      2  C   UNL     1      -0.581  11.328  20.787  0.00  0.00    +0.000 A 
ATOM      3  N   UNL     1      -0.128  10.951  19.488  0.00  0.00    +0.000 N 
ATOM      4  C   UNL     1       0.681   9.808  19.349  0.00  0.00    +0.000 A 
ATOM      5  S   UNL     1       1.350   9.286  17.869  0.00  0.00    +0.000 S 
ATOM      6  C   UNL     1       2.016   7.881  18.593  0.00  0.00    +0.000 A 
ATOM      7  C   UNL     1       1.738   7.826  19.949  0.00  0.00    +0.000 A 
ATOM      8  C   UNL     1       1.042   8.966  20.370  0.00  0.00    +0.000 A 
ATOM      9  C   UNL     1       0.590   9.348  21.702  0.00  0.00    +0.000 A 
ATOM     10  N   UNL     1       0.800   8.774  22.861  0.00  0.00    +0.000 NA
ATOM     11  C   UNL     1       0.141   9.611  23.715  0.00  0.00    +0.000 A 
ATOM     12  N   UNL     1      -0.469  10.660  23.148  0.00  0.00    +0.000 NA
ATOM     13  N   UNL     1      -0.167  10.476  21.834  0.00  0.00    +0.000 N 
ATOM     14  C   UNL     1       2.100   6.625  20.751  0.00  0.00    +0.000 C 
ATOM     15  C   UNL     1       2.228   5.420  19.804  0.00  0.00    +0.000 C 
ATOM     16  N   UNL     1       3.244   5.737  18.778  0.00  0.00    +0.000 NA
ATOM     17  C   UNL     1       2.713   6.765  17.832  0.00  0.00    +0.000 C 
ENDROOT
BRANCH   3  18
ATOM     18  C   UNL     1      -0.551  11.820  18.393  0.00  0.00    +0.000 C 
BRANCH  18  19
ATOM     19  C   UNL     1      -1.875  11.447  17.753  0.00  0.00    +0.000 A 
ATOM     20  C   UNL     1      -1.942  10.475  16.742  0.00  0.00    +0.000 A 
ATOM     21  C   UNL     1      -3.172  10.028  16.252  0.00  0.00    +0.000 A 
ATOM     22  C   UNL     1      -4.356  10.555  16.763  0.00  0.00    +0.000 A 
ATOM     23  C   UNL     1      -4.307  11.548  17.740  0.00  0.00    +0.000 A 
ATOM     24  C   UNL     1      -3.076  11.995  18.226  0.00  0.00    +0.000 A 
ENDBRANCH  18  19
ENDBRANCH   3  18
BRANCH  16  25
ATOM     25  C   UNL     1       3.772   4.546  18.097  0.00  0.00    +0.000 C 
BRANCH  25  26
ATOM     26  C   UNL     1       5.283   4.651  17.753  0.00  0.00    +0.000 C 
ATOM     27  C   UNL     1       6.058   5.514  18.763  0.00  0.00    +0.000 C 
ATOM     28  C   UNL     1       7.515   5.655  18.344  0.00  0.00    +0.000 C 
ATOM     29  O   UNL     1       7.609   6.209  17.033  0.00  0.00    +0.000 OA
ATOM     30  C   UNL     1       7.000   5.370  16.052  0.00  0.00    +0.000 C 
ATOM     31  C   UNL     1       5.509   5.192  16.333  0.00  0.00    +0.000 C 
ENDBRANCH  25  26
ENDBRANCH  16  25
TORSDOF 4
ENDMDL
MODEL 9
REMARK VINA RESULT:      -8.2      1.599      2.273
REMARK  Name = 
REMARK  4 active torsions:
REMARK  status: ('A' for Active; 'I' for Inactive)
REMARK    1  A    between atoms: N_3  and  C_4
REMARK    2  A    between atoms: C_4  and  C_5
REMARK    3  A    between atoms: N_23  and  C_24
REMARK    4  A    between atoms: C_24  and  C_25
REMARK                            x       y       z     vdW  Elec       q    Type
REMARK                         _______ _______ _______ _____ _____    ______ ____
ROOT
ATOM      1  O   UNL     1      -2.004  12.591  21.032  0.00  0.00    +0.000 OA
ATOM      2  C   UNL     1      -1.198  11.705  20.768  0.00  0.00    +0.000 A 
ATOM      3  N   UNL     1      -0.653  11.430  19.478  0.00  0.00    +0.000 N 
ATOM      4  C   UNL     1       0.287  10.391  19.338  0.00  0.00    +0.000 A 
ATOM      5  S   UNL     1       1.070  10.003  17.872  0.00  0.00    +0.000 S 
ATOM      6  C   UNL     1       1.862   8.656  18.580  0.00  0.00    +0.000 A 
ATOM      7  C   UNL     1       1.538   8.520  19.919  0.00  0.00    +0.000 A 
ATOM      8  C   UNL     1       0.700   9.558  20.346  0.00  0.00    +0.000 A 
ATOM      9  C   UNL     1       0.155   9.837  21.669  0.00  0.00    +0.000 A 
ATOM     10  N   UNL     1       0.383   9.247  22.816  0.00  0.00    +0.000 NA
ATOM     11  C   UNL     1      -0.401   9.973  23.668  0.00  0.00    +0.000 A 
ATOM     12  N   UNL     1      -1.104  10.966  23.108  0.00  0.00    +0.000 NA
ATOM     13  N   UNL     1      -0.731  10.866  21.804  0.00  0.00    +0.000 N 
ATOM     14  C   UNL     1       2.003   7.339  20.697  0.00  0.00    +0.000 C 
ATOM     15  C   UNL     1       2.306   6.192  19.718  0.00  0.00    +0.000 C 
ATOM     16  N   UNL     1       3.319   6.659  18.749  0.00  0.00    +0.000 NA
ATOM     17  C   UNL     1       2.713   7.656  17.814  0.00  0.00    +0.000 C 
ENDROOT
BRANCH   3  18
ATOM     18  C   UNL     1      -1.128  12.286  18.394  0.00  0.00    +0.000 C 
BRANCH  18  19
ATOM     19  C   UNL     1      -2.298  11.729  17.604  0.00  0.00    +0.000 A 
ATOM     20  C   UNL     1      -2.104  11.124  16.352  0.00  0.00    +0.000 A 
ATOM     21  C   UNL     1      -3.155  10.486  15.689  0.00  0.00    +0.000 A 
ATOM     22  C   UNL     1      -4.423  10.452  16.269  0.00  0.00    +0.000 A 
ATOM     23  C   UNL     1      -4.641  11.081  17.493  0.00  0.00    +0.000 A 
ATOM     24  C   UNL     1      -3.589  11.720  18.152  0.00  0.00    +0.000 A 
ENDBRANCH  18  19
ENDBRANCH   3  18
BRANCH  16  25
ATOM     25  C   UNL     1       4.007   5.562  18.053  0.00  0.00    +0.000 C 
BRANCH  25  26
ATOM     26  C   UNL     1       3.525   4.153  18.494  0.00  0.00    +0.000 C 
ATOM     27  C   UNL     1       4.633   3.340  19.183  0.00  0.00    +0.000 C 
ATOM     28  C   UNL     1       4.141   1.941  19.526  0.00  0.00    +0.000 C 
ATOM     29  O   UNL     1       3.679   1.271  18.354  0.00  0.00    +0.000 OA
ATOM     30  C   UNL     1       2.570   1.939  17.757  0.00  0.00    +0.000 C 
ATOM     31  C   UNL     1       2.954   3.350  17.315  0.00  0.00    +0.000 C 
ENDBRANCH  25  26
ENDBRANCH  16  25
TORSDOF 4
ENDMDL
