MODEL 1
REMARK VINA RESULT:      -8.5      0.000      0.000
REMARK  Name = 
REMARK  6 active torsions:
REMARK  status: ('A' for Active; 'I' for Inactive)
REMARK    1  A    between atoms: C_1  and  C_2
REMARK    2  A    between atoms: C_7  and  N_8
REMARK    3  A    between atoms: C_9  and  C_11
REMARK    4  A    between atoms: C_12  and  N_13
REMARK    5  A    between atoms: N_13  and  C_14
REMARK    6  A    between atoms: C_19  and  C_20
REMARK                            x       y       z     vdW  Elec       q    Type
REMARK                         _______ _______ _______ _____ _____    ______ ____
ROOT
ATOM      1  C   UNL     1       3.181   3.564  19.973  0.00  0.00    +0.000 C 
ATOM      2  C   UNL     1       4.224   3.016  19.327  0.00  0.00    +0.000 C 
ATOM      3  O   UNL     1       4.899   1.981  19.971  0.00  0.00    +0.000 OA
ATOM      4  C   UNL     1       4.218   1.769  21.218  0.00  0.00    +0.000 C 
ATOM      5  C   UNL     1       3.112   2.774  21.191  0.00  0.00    +0.000 C 
ATOM      6  O   UNL     1       2.269   2.940  22.061  0.00  0.00    +0.000 OA
ENDROOT
BRANCH   1   8
ATOM      7  N   UNL     1       2.837   5.965  20.046  0.00  0.00    +0.000 N 
ATOM      8  C   UNL     1       2.392   4.737  19.569  0.00  0.00    +0.000 C 
ATOM      9  O   UNL     1       1.427   4.571  18.838  0.00  0.00    +0.000 OA
ATOM     10  H   UNL     1       3.621   5.961  20.692  0.00  0.00    +0.000 HD
BRANCH   7  17
ATOM     11  C   UNL     1       3.441   7.211  17.418  0.00  0.00    +0.000 C 
ATOM     12  C   UNL     1       2.567   7.844  18.467  0.00  0.00    +0.000 A 
ATOM     13  C   UNL     1       1.994   9.101  18.161  0.00  0.00    +0.000 A 
ATOM     14  C   UNL     1       1.155   9.755  19.059  0.00  0.00    +0.000 A 
ATOM     15  C   UNL     1       0.864   9.159  20.271  0.00  0.00    +0.000 A 
ATOM     16  C   UNL     1       1.416   7.920  20.585  0.00  0.00    +0.000 A 
ATOM     17  C   UNL     1       2.279   7.236  19.708  0.00  0.00    +0.000 A 
ENDBRANCH   7  17
ENDBRANCH   1   8
BRANCH   2  18
ATOM     18  N   UNL     1       4.764   3.416  18.126  0.00  0.00    +0.000 N 
ATOM     19  H   UNL     1       4.061   3.467  17.394  0.00  0.00    +0.000 HD
BRANCH  18  20
ATOM     20  C   UNL     1       5.679   4.498  17.966  0.00  0.00    +0.000 A 
ATOM     21  C   UNL     1       6.327   5.094  19.060  0.00  0.00    +0.000 A 
ATOM     22  C   UNL     1       7.284   6.098  18.882  0.00  0.00    +0.000 A 
ATOM     23  C   UNL     1       7.637   6.504  17.600  0.00  0.00    +0.000 A 
ATOM     24  C   UNL     1       7.015   5.923  16.498  0.00  0.00    +0.000 A 
ATOM     25  C   UNL     1       6.031   4.930  16.665  0.00  0.00    +0.000 A 
ATOM     26  C   UNL     1       5.397   4.339  15.435  0.00  0.00    +0.000 C 
ENDBRANCH  18  20
ENDBRANCH   2  18
TORSDOF 4
ENDMDL
MODEL 2
REMARK VINA RESULT:      -8.4      0.929      1.662
REMARK  Name = 
REMARK  6 active torsions:
REMARK  status: ('A' for Active; 'I' for Inactive)
REMARK    1  A    between atoms: C_1  and  C_2
REMARK    2  A    between atoms: C_7  and  N_8
REMARK    3  A    between atoms: C_9  and  C_11
REMARK    4  A    between atoms: C_12  and  N_13
REMARK    5  A    between atoms: N_13  and  C_14
REMARK    6  A    between atoms: C_19  and  C_20
REMARK                            x       y       z     vdW  Elec       q    Type
REMARK                         _______ _______ _______ _____ _____    ______ ____
ROOT
ATOM      1  C   UNL     1       3.200   4.094  19.533  0.00  0.00    +0.000 C 
ATOM      2  C   UNL     1       4.358   3.527  19.155  0.00  0.00    +0.000 C 
ATOM      3  O   UNL     1       4.826   2.465  19.925  0.00  0.00    +0.000 OA
ATOM      4  C   UNL     1       3.852   2.254  20.959  0.00  0.00    +0.000 C 
ATOM      5  C   UNL     1       2.811   3.289  20.678  0.00  0.00    +0.000 C 
ATOM      6  O   UNL     1       1.782   3.466  21.316  0.00  0.00    +0.000 OA
ENDROOT
BRANCH   1   8
ATOM      7  N   UNL     1       2.567   6.424  19.780  0.00  0.00    +0.000 N 
ATOM      8  C   UNL     1       2.564   5.294  18.969  0.00  0.00    +0.000 C 
ATOM      9  O   UNL     1       2.100   5.237  17.840  0.00  0.00    +0.000 OA
ATOM     10  H   UNL     1       2.937   6.325  20.721  0.00  0.00    +0.000 HD
BRANCH   7  17
ATOM     11  C   UNL     1       1.006   8.062  21.704  0.00  0.00    +0.000 C 
ATOM     12  C   UNL     1       1.336   8.500  20.303  0.00  0.00    +0.000 A 
ATOM     13  C   UNL     1       0.881   9.776  19.898  0.00  0.00    +0.000 A 
ATOM     14  C   UNL     1       1.156  10.277  18.628  0.00  0.00    +0.000 A 
ATOM     15  C   UNL     1       1.899   9.516  17.747  0.00  0.00    +0.000 A 
ATOM     16  C   UNL     1       2.358   8.259  18.131  0.00  0.00    +0.000 A 
ATOM     17  C   UNL     1       2.088   7.716  19.402  0.00  0.00    +0.000 A 
ENDBRANCH   7  17
ENDBRANCH   1   8
BRANCH   2  18
ATOM     18  N   UNL     1       5.188   3.928  18.134  0.00  0.00    +0.000 N 
ATOM     19  H   UNL     1       4.709   3.940  17.238  0.00  0.00    +0.000 HD
BRANCH  18  20
ATOM     20  C   UNL     1       6.076   5.042  18.199  0.00  0.00    +0.000 A 
ATOM     21  C   UNL     1       7.079   5.141  19.178  0.00  0.00    +0.000 A 
ATOM     22  C   UNL     1       7.994   6.198  19.179  0.00  0.00    +0.000 A 
ATOM     23  C   UNL     1       7.946   7.162  18.180  0.00  0.00    +0.000 A 
ATOM     24  C   UNL     1       6.967   7.083  17.192  0.00  0.00    +0.000 A 
ATOM     25  C   UNL     1       6.023   6.039  17.194  0.00  0.00    +0.000 A 
ATOM     26  C   UNL     1       4.991   6.006  16.099  0.00  0.00    +0.000 C 
ENDBRANCH  18  20
ENDBRANCH   2  18
TORSDOF 4
ENDMDL
MODEL 3
REMARK VINA RESULT:      -8.1      1.483      5.562
REMARK  Name = 
REMARK  6 active torsions:
REMARK  status: ('A' for Active; 'I' for Inactive)
REMARK    1  A    between atoms: C_1  and  C_2
REMARK    2  A    between atoms: C_7  and  N_8
REMARK    3  A    between atoms: C_9  and  C_11
REMARK    4  A    between atoms: C_12  and  N_13
REMARK    5  A    between atoms: N_13  and  C_14
REMARK    6  A    between atoms: C_19  and  C_20
REMARK                            x       y       z     vdW  Elec       q    Type
REMARK                         _______ _______ _______ _____ _____    ______ ____
ROOT
ATOM      1  C   UNL     1       2.867   3.985  19.448  0.00  0.00    +0.000 C 
ATOM      2  C   UNL     1       2.342   5.020  20.123  0.00  0.00    +0.000 C 
ATOM      3  O   UNL     1       1.099   4.825  20.723  0.00  0.00    +0.000 OA
ATOM      4  C   UNL     1       0.726   3.466  20.445  0.00  0.00    +0.000 C 
ATOM      5  C   UNL     1       1.877   2.940  19.649  0.00  0.00    +0.000 C 
ATOM      6  O   UNL     1       1.986   1.806  19.204  0.00  0.00    +0.000 OA
ENDROOT
BRANCH   1   8
ATOM      7  N   UNL     1       3.961   4.445  17.331  0.00  0.00    +0.000 N 
ATOM      8  C   UNL     1       4.091   3.974  18.633  0.00  0.00    +0.000 C 
ATOM      9  O   UNL     1       5.131   3.582  19.141  0.00  0.00    +0.000 OA
ATOM     10  H   UNL     1       3.028   4.691  17.013  0.00  0.00    +0.000 HD
BRANCH   7  17
ATOM     11  C   UNL     1       5.845   6.725  17.600  0.00  0.00    +0.000 C 
ATOM     12  C   UNL     1       5.926   5.693  16.508  0.00  0.00    +0.000 A 
ATOM     13  C   UNL     1       6.977   5.822  15.571  0.00  0.00    +0.000 A 
ATOM     14  C   UNL     1       7.148   4.903  14.539  0.00  0.00    +0.000 A 
ATOM     15  C   UNL     1       6.278   3.835  14.433  0.00  0.00    +0.000 A 
ATOM     16  C   UNL     1       5.241   3.692  15.350  0.00  0.00    +0.000 A 
ATOM     17  C   UNL     1       5.030   4.608  16.398  0.00  0.00    +0.000 A 
ENDBRANCH   7  17
ENDBRANCH   1   8
BRANCH   2  18
ATOM     18  N   UNL     1       2.853   6.294  20.226  0.00  0.00    +0.000 N 
ATOM     19  H   UNL     1       3.866   6.302  20.153  0.00  0.00    +0.000 HD
BRANCH  18  20
ATOM     20  C   UNL     1       2.330   7.436  19.551  0.00  0.00    +0.000 A 
ATOM     21  C   UNL     1       2.495   7.625  18.169  0.00  0.00    +0.000 A 
ATOM     22  C   UNL     1       1.906   8.707  17.506  0.00  0.00    +0.000 A 
ATOM     23  C   UNL     1       1.112   9.605  18.209  0.00  0.00    +0.000 A 
ATOM     24  C   UNL     1       0.926   9.436  19.578  0.00  0.00    +0.000 A 
ATOM     25  C   UNL     1       1.534   8.366  20.262  0.00  0.00    +0.000 A 
ATOM     26  C   UNL     1       1.293   8.235  21.742  0.00  0.00    +0.000 C 
ENDBRANCH  18  20
ENDBRANCH   2  18
TORSDOF 4
ENDMDL
MODEL 4
REMARK VINA RESULT:      -8.0      2.169      4.613
REMARK  Name = 
REMARK  6 active torsions:
REMARK  status: ('A' for Active; 'I' for Inactive)
REMARK    1  A    between atoms: C_1  and  C_2
REMARK    2  A    between atoms: C_7  and  N_8
REMARK    3  A    between atoms: C_9  and  C_11
REMARK    4  A    between atoms: C_12  and  N_13
REMARK    5  A    between atoms: N_13  and  C_14
REMARK    6  A    between atoms: C_19  and  C_20
REMARK                            x       y       z     vdW  Elec       q    Type
REMARK                         _______ _______ _______ _____ _____    ______ ____
ROOT
ATOM      1  C   UNL     1       4.877   5.203  17.005  0.00  0.00    +0.000 C 
ATOM      2  C   UNL     1       4.921   3.888  16.734  0.00  0.00    +0.000 C 
ATOM      3  O   UNL     1       5.388   3.512  15.476  0.00  0.00    +0.000 OA
ATOM      4  C   UNL     1       5.736   4.728  14.795  0.00  0.00    +0.000 C 
ATOM      5  C   UNL     1       5.424   5.794  15.795  0.00  0.00    +0.000 C 
ATOM      6  O   UNL     1       5.578   6.997  15.637  0.00  0.00    +0.000 OA
ENDROOT
BRANCH   1   8
ATOM      7  N   UNL     1       3.129   6.554  18.008  0.00  0.00    +0.000 N 
ATOM      8  C   UNL     1       4.316   5.854  18.197  0.00  0.00    +0.000 C 
ATOM      9  O   UNL     1       4.899   5.728  19.264  0.00  0.00    +0.000 OA
ATOM     10  H   UNL     1       2.775   6.628  17.059  0.00  0.00    +0.000 HD
BRANCH   7  17
ATOM     11  C   UNL     1       2.187   9.351  17.676  0.00  0.00    +0.000 C 
ATOM     12  C   UNL     1       1.921   8.515  18.898  0.00  0.00    +0.000 A 
ATOM     13  C   UNL     1       1.163   9.106  19.936  0.00  0.00    +0.000 A 
ATOM     14  C   UNL     1       0.846   8.403  21.096  0.00  0.00    +0.000 A 
ATOM     15  C   UNL     1       1.273   7.096  21.233  0.00  0.00    +0.000 A 
ATOM     16  C   UNL     1       2.016   6.499  20.220  0.00  0.00    +0.000 A 
ATOM     17  C   UNL     1       2.365   7.182  19.039  0.00  0.00    +0.000 A 
ENDBRANCH   7  17
ENDBRANCH   1   8
BRANCH   2  18
ATOM     18  N   UNL     1       4.477   2.857  17.530  0.00  0.00    +0.000 N 
ATOM     19  H   UNL     1       5.226   2.462  18.091  0.00  0.00    +0.000 HD
BRANCH  18  20
ATOM     20  C   UNL     1       3.283   2.890  18.310  0.00  0.00    +0.000 A 
ATOM     21  C   UNL     1       2.027   3.157  17.739  0.00  0.00    +0.000 A 
ATOM     22  C   UNL     1       0.855   3.104  18.501  0.00  0.00    +0.000 A 
ATOM     23  C   UNL     1       0.913   2.750  19.843  0.00  0.00    +0.000 A 
ATOM     24  C   UNL     1       2.144   2.472  20.431  0.00  0.00    +0.000 A 
ATOM     25  C   UNL     1       3.334   2.547  19.682  0.00  0.00    +0.000 A 
ATOM     26  C   UNL     1       4.634   2.233  20.373  0.00  0.00    +0.000 C 
ENDBRANCH  18  20
ENDBRANCH   2  18
TORSDOF 4
ENDMDL
MODEL 5
REMARK VINA RESULT:      -8.0      0.965      1.850
REMARK  Name = 
REMARK  6 active torsions:
REMARK  status: ('A' for Active; 'I' for Inactive)
REMARK    1  A    between atoms: C_1  and  C_2
REMARK    2  A    between atoms: C_7  and  N_8
REMARK    3  A    between atoms: C_9  and  C_11
REMARK    4  A    between atoms: C_12  and  N_13
REMARK    5  A    between atoms: N_13  and  C_14
REMARK    6  A    between atoms: C_19  and  C_20
REMARK                            x       y       z     vdW  Elec       q    Type
REMARK                         _______ _______ _______ _____ _____    ______ ____
ROOT
ATOM      1  C   UNL     1       3.092   4.106  20.088  0.00  0.00    +0.000 C 
ATOM      2  C   UNL     1       4.260   4.092  19.425  0.00  0.00    +0.000 C 
ATOM      3  O   UNL     1       5.087   2.988  19.617  0.00  0.00    +0.000 OA
ATOM      4  C   UNL     1       4.388   2.109  20.512  0.00  0.00    +0.000 C 
ATOM      5  C   UNL     1       3.107   2.830  20.784  0.00  0.00    +0.000 C 
ATOM      6  O   UNL     1       2.196   2.436  21.498  0.00  0.00    +0.000 OA
ENDROOT
BRANCH   1   8
ATOM      7  N   UNL     1       2.634   6.486  20.214  0.00  0.00    +0.000 N 
ATOM      8  C   UNL     1       2.110   5.199  20.152  0.00  0.00    +0.000 C 
ATOM      9  O   UNL     1       0.920   4.922  20.127  0.00  0.00    +0.000 OA
ATOM     10  H   UNL     1       3.643   6.578  20.284  0.00  0.00    +0.000 HD
BRANCH   7  17
ATOM     11  C   UNL     1       2.530   8.146  17.753  0.00  0.00    +0.000 C 
ATOM     12  C   UNL     1       1.821   8.496  19.033  0.00  0.00    +0.000 A 
ATOM     13  C   UNL     1       1.051   9.683  19.043  0.00  0.00    +0.000 A 
ATOM     14  C   UNL     1       0.341  10.078  20.174  0.00  0.00    +0.000 A 
ATOM     15  C   UNL     1       0.379   9.290  21.308  0.00  0.00    +0.000 A 
ATOM     16  C   UNL     1       1.130   8.117  21.312  0.00  0.00    +0.000 A 
ATOM     17  C   UNL     1       1.870   7.692  20.192  0.00  0.00    +0.000 A 
ENDBRANCH   7  17
ENDBRANCH   1   8
BRANCH   2  18
ATOM     18  N   UNL     1       4.782   5.090  18.633  0.00  0.00    +0.000 N 
ATOM     19  H   UNL     1       5.306   5.770  19.177  0.00  0.00    +0.000 HD
BRANCH  18  20
ATOM     20  C   UNL     1       5.449   4.876  17.391  0.00  0.00    +0.000 A 
ATOM     21  C   UNL     1       4.798   4.310  16.283  0.00  0.00    +0.000 A 
ATOM     22  C   UNL     1       5.441   4.182  15.047  0.00  0.00    +0.000 A 
ATOM     23  C   UNL     1       6.740   4.650  14.887  0.00  0.00    +0.000 A 
ATOM     24  C   UNL     1       7.404   5.223  15.968  0.00  0.00    +0.000 A 
ATOM     25  C   UNL     1       6.778   5.334  17.223  0.00  0.00    +0.000 A 
ATOM     26  C   UNL     1       7.547   5.965  18.352  0.00  0.00    +0.000 C 
ENDBRANCH  18  20
ENDBRANCH   2  18
TORSDOF 4
ENDMDL
MODEL 6
REMARK VINA RESULT:      -7.9      2.866      6.646
REMARK  Name = 
REMARK  6 active torsions:
REMARK  status: ('A' for Active; 'I' for Inactive)
REMARK    1  A    between atoms: C_1  and  C_2
REMARK    2  A    between atoms: C_7  and  N_8
REMARK    3  A    between atoms: C_9  and  C_11
REMARK    4  A    between atoms: C_12  and  N_13
REMARK    5  A    between atoms: N_13  and  C_14
REMARK    6  A    between atoms: C_19  and  C_20
REMARK                            x       y       z     vdW  Elec       q    Type
REMARK                         _______ _______ _______ _____ _____    ______ ____
ROOT
ATOM      1  C   UNL     1       6.428   5.247  17.551  0.00  0.00    +0.000 C 
ATOM      2  C   UNL     1       6.158   4.708  18.752  0.00  0.00    +0.000 C 
ATOM      3  O   UNL     1       6.851   5.217  19.847  0.00  0.00    +0.000 OA
ATOM      4  C   UNL     1       7.696   6.262  19.342  0.00  0.00    +0.000 C 
ATOM      5  C   UNL     1       7.396   6.281  17.877  0.00  0.00    +0.000 C 
ATOM      6  O   UNL     1       7.891   7.033  17.050  0.00  0.00    +0.000 OA
ENDROOT
BRANCH   1   8
ATOM      7  N   UNL     1       6.841   4.862  15.190  0.00  0.00    +0.000 N 
ATOM      8  C   UNL     1       5.929   4.808  16.239  0.00  0.00    +0.000 C 
ATOM      9  O   UNL     1       4.777   4.411  16.152  0.00  0.00    +0.000 OA
ATOM     10  H   UNL     1       7.753   5.265  15.383  0.00  0.00    +0.000 HD
BRANCH   7  17
ATOM     11  C   UNL     1       8.592   5.752  12.962  0.00  0.00    +0.000 C 
ATOM     12  C   UNL     1       7.418   4.826  12.790  0.00  0.00    +0.000 A 
ATOM     13  C   UNL     1       7.155   4.349  11.485  0.00  0.00    +0.000 A 
ATOM     14  C   UNL     1       6.105   3.471  11.230  0.00  0.00    +0.000 A 
ATOM     15  C   UNL     1       5.307   3.048  12.276  0.00  0.00    +0.000 A 
ATOM     16  C   UNL     1       5.555   3.506  13.566  0.00  0.00    +0.000 A 
ATOM     17  C   UNL     1       6.600   4.403  13.860  0.00  0.00    +0.000 A 
ENDBRANCH   7  17
ENDBRANCH   1   8
BRANCH   2  18
ATOM     18  N   UNL     1       5.327   3.644  19.020  0.00  0.00    +0.000 N 
ATOM     19  H   UNL     1       5.775   2.956  19.618  0.00  0.00    +0.000 HD
BRANCH  18  20
ATOM     20  C   UNL     1       3.955   3.759  19.393  0.00  0.00    +0.000 A 
ATOM     21  C   UNL     1       3.439   4.922  19.990  0.00  0.00    +0.000 A 
ATOM     22  C   UNL     1       2.076   5.051  20.275  0.00  0.00    +0.000 A 
ATOM     23  C   UNL     1       1.194   4.032  19.936  0.00  0.00    +0.000 A 
ATOM     24  C   UNL     1       1.679   2.873  19.336  0.00  0.00    +0.000 A 
ATOM     25  C   UNL     1       3.052   2.718  19.068  0.00  0.00    +0.000 A 
ATOM     26  C   UNL     1       3.514   1.444  18.415  0.00  0.00    +0.000 C 
ENDBRANCH  18  20
ENDBRANCH   2  18
TORSDOF 4
ENDMDL
MODEL 7
REMARK VINA RESULT:      -7.9      1.033      2.297
REMARK  Name = 
REMARK  6 active torsions:
REMARK  status: ('A' for Active; 'I' for Inactive)
REMARK    1  A    between atoms: C_1  and  C_2
REMARK    2  A    between atoms: C_7  and  N_8
REMARK    3  A    between atoms: C_9  and  C_11
REMARK    4  A    between atoms: C_12  and  N_13
REMARK    5  A    between atoms: N_13  and  C_14
REMARK    6  A    between atoms: C_19  and  C_20
REMARK                            x       y       z     vdW  Elec       q    Type
REMARK                         _______ _______ _______ _____ _____    ______ ____
ROOT
ATOM      1  C   UNL     1       3.251   4.205  19.410  0.00  0.00    +0.000 C 
ATOM      2  C   UNL     1       4.571   3.968  19.327  0.00  0.00    +0.000 C 
ATOM      3  O   UNL     1       5.055   2.834  19.975  0.00  0.00    +0.000 OA
ATOM      4  C   UNL     1       3.917   2.187  20.564  0.00  0.00    +0.000 C 
ATOM      5  C   UNL     1       2.771   3.065  20.174  0.00  0.00    +0.000 C 
ATOM      6  O   UNL     1       1.596   2.884  20.459  0.00  0.00    +0.000 OA
ENDROOT
BRANCH   1   8
ATOM      7  N   UNL     1       2.665   6.545  19.678  0.00  0.00    +0.000 N 
ATOM      8  C   UNL     1       2.519   5.385  18.925  0.00  0.00    +0.000 C 
ATOM      9  O   UNL     1       1.859   5.286  17.902  0.00  0.00    +0.000 OA
ATOM     10  H   UNL     1       3.199   6.480  20.540  0.00  0.00    +0.000 HD
BRANCH   7  17
ATOM     11  C   UNL     1       0.981   8.012  21.637  0.00  0.00    +0.000 C 
ATOM     12  C   UNL     1       1.311   8.525  20.262  0.00  0.00    +0.000 A 
ATOM     13  C   UNL     1       0.792   9.791  19.900  0.00  0.00    +0.000 A 
ATOM     14  C   UNL     1       1.061  10.359  18.658  0.00  0.00    +0.000 A 
ATOM     15  C   UNL     1       1.861   9.678  17.761  0.00  0.00    +0.000 A 
ATOM     16  C   UNL     1       2.382   8.433  18.103  0.00  0.00    +0.000 A 
ATOM     17  C   UNL     1       2.121   7.822  19.344  0.00  0.00    +0.000 A 
ENDBRANCH   7  17
ENDBRANCH   1   8
BRANCH   2  18
ATOM     18  N   UNL     1       5.526   4.767  18.740  0.00  0.00    +0.000 N 
ATOM     19  H   UNL     1       6.358   4.846  19.316  0.00  0.00    +0.000 HD
BRANCH  18  20
ATOM     20  C   UNL     1       5.915   4.694  17.370  0.00  0.00    +0.000 A 
ATOM     21  C   UNL     1       5.305   3.808  16.468  0.00  0.00    +0.000 A 
ATOM     22  C   UNL     1       5.640   3.805  15.110  0.00  0.00    +0.000 A 
ATOM     23  C   UNL     1       6.570   4.714  14.621  0.00  0.00    +0.000 A 
ATOM     24  C   UNL     1       7.184   5.609  15.493  0.00  0.00    +0.000 A 
ATOM     25  C   UNL     1       6.876   5.604  16.866  0.00  0.00    +0.000 A 
ATOM     26  C   UNL     1       7.570   6.597  17.759  0.00  0.00    +0.000 C 
ENDBRANCH  18  20
ENDBRANCH   2  18
TORSDOF 4
ENDMDL
MODEL 8
REMARK VINA RESULT:      -7.8      1.409      5.509
REMARK  Name = 
REMARK  6 active torsions:
REMARK  status: ('A' for Active; 'I' for Inactive)
REMARK    1  A    between atoms: C_1  and  C_2
REMARK    2  A    between atoms: C_7  and  N_8
REMARK    3  A    between atoms: C_9  and  C_11
REMARK    4  A    between atoms: C_12  and  N_13
REMARK    5  A    between atoms: N_13  and  C_14
REMARK    6  A    between atoms: C_19  and  C_20
REMARK                            x       y       z     vdW  Elec       q    Type
REMARK                         _______ _______ _______ _____ _____    ______ ____
ROOT
ATOM      1  C   UNL     1       2.935   3.987  19.446  0.00  0.00    +0.000 C 
ATOM      2  C   UNL     1       2.388   5.048  20.062  0.00  0.00    +0.000 C 
ATOM      3  O   UNL     1       1.158   4.854  20.688  0.00  0.00    +0.000 OA
ATOM      4  C   UNL     1       0.822   3.471  20.500  0.00  0.00    +0.000 C 
ATOM      5  C   UNL     1       1.979   2.929  19.724  0.00  0.00    +0.000 C 
ATOM      6  O   UNL     1       2.116   1.773  19.349  0.00  0.00    +0.000 OA
ENDROOT
BRANCH   1   8
ATOM      7  N   UNL     1       4.020   4.465  17.328  0.00  0.00    +0.000 N 
ATOM      8  C   UNL     1       4.150   3.961  18.617  0.00  0.00    +0.000 C 
ATOM      9  O   UNL     1       5.184   3.527  19.105  0.00  0.00    +0.000 OA
ATOM     10  H   UNL     1       3.092   4.745  17.025  0.00  0.00    +0.000 HD
BRANCH   7  17
ATOM     11  C   UNL     1       6.084   6.562  17.735  0.00  0.00    +0.000 C 
ATOM     12  C   UNL     1       6.065   5.618  16.563  0.00  0.00    +0.000 A 
ATOM     13  C   UNL     1       7.108   5.740  15.616  0.00  0.00    +0.000 A 
ATOM     14  C   UNL     1       7.189   4.898  14.511  0.00  0.00    +0.000 A 
ATOM     15  C   UNL     1       6.236   3.912  14.340  0.00  0.00    +0.000 A 
ATOM     16  C   UNL     1       5.205   3.777  15.265  0.00  0.00    +0.000 A 
ATOM     17  C   UNL     1       5.084   4.619  16.388  0.00  0.00    +0.000 A 
ENDBRANCH   7  17
ENDBRANCH   1   8
BRANCH   2  18
ATOM     18  N   UNL     1       2.862   6.339  20.079  0.00  0.00    +0.000 N 
ATOM     19  H   UNL     1       3.676   6.452  19.482  0.00  0.00    +0.000 HD
BRANCH  18  20
ATOM     20  C   UNL     1       2.047   7.506  19.975  0.00  0.00    +0.000 A 
ATOM     21  C   UNL     1       1.319   8.006  21.067  0.00  0.00    +0.000 A 
ATOM     22  C   UNL     1       0.590   9.196  20.972  0.00  0.00    +0.000 A 
ATOM     23  C   UNL     1       0.603   9.928  19.792  0.00  0.00    +0.000 A 
ATOM     24  C   UNL     1       1.325   9.459  18.697  0.00  0.00    +0.000 A 
ATOM     25  C   UNL     1       2.041   8.249  18.770  0.00  0.00    +0.000 A 
ATOM     26  C   UNL     1       2.803   7.795  17.555  0.00  0.00    +0.000 C 
ENDBRANCH  18  20
ENDBRANCH   2  18
TORSDOF 4
ENDMDL
MODEL 9
REMARK VINA RESULT:      -7.8      1.720      6.148
REMARK  Name = 
REMARK  6 active torsions:
REMARK  status: ('A' for Active; 'I' for Inactive)
REMARK    1  A    between atoms: C_1  and  C_2
REMARK    2  A    between atoms: C_7  and  N_8
REMARK    3  A    between atoms: C_9  and  C_11
REMARK    4  A    between atoms: C_12  and  N_13
REMARK    5  A    between atoms: N_13  and  C_14
REMARK    6  A    between atoms: C_19  and  C_20
REMARK                            x       y       z     vdW  Elec       q    Type
REMARK                         _______ _______ _______ _____ _____    ______ ____
ROOT
ATOM      1  C   UNL     1       2.720   5.111  19.067  0.00  0.00    +0.000 C 
ATOM      2  C   UNL     1       2.199   5.933  19.992  0.00  0.00    +0.000 C 
ATOM      3  O   UNL     1       1.215   5.409  20.828  0.00  0.00    +0.000 OA
ATOM      4  C   UNL     1       1.050   4.035  20.445  0.00  0.00    +0.000 C 
ATOM      5  C   UNL     1       2.035   3.857  19.335  0.00  0.00    +0.000 C 
ATOM      6  O   UNL     1       2.241   2.824  18.714  0.00  0.00    +0.000 OA
ENDROOT
BRANCH   1   8
ATOM      7  N   UNL     1       4.447   4.404  17.515  0.00  0.00    +0.000 N 
ATOM      8  C   UNL     1       3.670   5.451  17.998  0.00  0.00    +0.000 C 
ATOM      9  O   UNL     1       3.707   6.603  17.590  0.00  0.00    +0.000 OA
ATOM     10  H   UNL     1       4.359   3.503  17.978  0.00  0.00    +0.000 HD
BRANCH   7  17
ATOM     11  C   UNL     1       7.269   5.198  17.991  0.00  0.00    +0.000 C 
ATOM     12  C   UNL     1       6.705   4.874  16.634  0.00  0.00    +0.000 A 
ATOM     13  C   UNL     1       7.589   4.943  15.532  0.00  0.00    +0.000 A 
ATOM     14  C   UNL     1       7.165   4.639  14.241  0.00  0.00    +0.000 A 
ATOM     15  C   UNL     1       5.855   4.252  14.032  0.00  0.00    +0.000 A 
ATOM     16  C   UNL     1       4.974   4.176  15.107  0.00  0.00    +0.000 A 
ATOM     17  C   UNL     1       5.364   4.487  16.424  0.00  0.00    +0.000 A 
ENDBRANCH   7  17
ENDBRANCH   1   8
BRANCH   2  18
ATOM     18  N   UNL     1       2.465   7.273  20.162  0.00  0.00    +0.000 N 
ATOM     19  H   UNL     1       3.080   7.631  19.437  0.00  0.00    +0.000 HD
BRANCH  18  20
ATOM     20  C   UNL     1       1.486   8.263  20.469  0.00  0.00    +0.000 A 
ATOM     21  C   UNL     1       0.987   8.440  21.770  0.00  0.00    +0.000 A 
ATOM     22  C   UNL     1       0.089   9.469  22.073  0.00  0.00    +0.000 A 
ATOM     23  C   UNL     1      -0.303  10.363  21.085  0.00  0.00    +0.000 A 
ATOM     24  C   UNL     1       0.183  10.215  19.788  0.00  0.00    +0.000 A 
ATOM     25  C   UNL     1       1.067   9.168  19.464  0.00  0.00    +0.000 A 
ATOM     26  C   UNL     1       1.560   9.062  18.047  0.00  0.00    +0.000 C 
ENDBRANCH  18  20
ENDBRANCH   2  18
TORSDOF 4
ENDMDL
