MODEL 1
REMARK VINA RESULT:      -7.8      0.000      0.000
REMARK  Name = 
REMARK  12 active torsions:
REMARK  status: ('A' for Active; 'I' for Inactive)
REMARK    1  A    between atoms: C_1  and  C_2
REMARK    2  A    between atoms: C_2  and  O_3
REMARK    3  A    between atoms: O_3  and  C_4
REMARK    4  A    between atoms: C_4  and  C_6
REMARK    5  A    between atoms: C_10  and  O_11
REMARK    6  A    between atoms: O_11  and  C_12
REMARK    7  A    between atoms: C_17  and  N_18
REMARK    8  A    between atoms: N_21  and  C_22
REMARK    9  A    between atoms: C_25  and  O_26
REMARK   10  A    between atoms: O_26  and  C_27
REMARK   11  A    between atoms: C_29  and  O_30
REMARK   12  A    between atoms: O_30  and  C_31
REMARK                            x       y       z     vdW  Elec       q    Type
REMARK                         _______ _______ _______ _____ _____    ______ ____
ROOT
ATOM      1  C   UNL     1      -0.984  11.583  20.479  0.00  0.00    +0.000 A 
ATOM      2  C   UNL     1      -2.065  12.423  20.654  0.00  0.00    +0.000 A 
ATOM      3  N   UNL     1      -3.133  12.485  19.823  0.00  0.00    +0.000 NA
ATOM      4  C   UNL     1      -3.179  11.672  18.749  0.00  0.00    +0.000 A 
ATOM      5  C   UNL     1      -4.266  11.769  17.844  0.00  0.00    +0.000 A 
ATOM      6  C   UNL     1      -4.344  10.966  16.702  0.00  0.00    +0.000 A 
ATOM      7  C   UNL     1      -3.409   9.978  16.497  0.00  0.00    +0.000 A 
ATOM      8  C   UNL     1      -2.377   9.830  17.416  0.00  0.00    +0.000 A 
ATOM      9  C   UNL     1      -2.159  10.717  18.510  0.00  0.00    +0.000 A 
ATOM     10  C   UNL     1      -0.993  10.687  19.381  0.00  0.00    +0.000 A 
ENDROOT
BRANCH  10  11
ATOM     11  N   UNL     1       0.130   9.875  19.158  0.00  0.00    +0.000 N 
ATOM     12  C   UNL     1       0.723   9.709  17.814  0.00  0.00    +0.000 C 
ATOM     13  C   UNL     1       2.181   9.243  17.886  0.00  0.00    +0.000 C 
ATOM     14  N   UNL     1       2.214   7.973  18.641  0.00  0.00    +0.000 N 
ATOM     15  C   UNL     1       1.745   8.148  20.028  0.00  0.00    +0.000 C 
ATOM     16  C   UNL     1       0.274   8.669  20.016  0.00  0.00    +0.000 C 
BRANCH  14  17
ATOM     17  C   UNL     1       3.036   6.936  18.236  0.00  0.00    +0.000 A 
ATOM     18  C   UNL     1       4.217   7.231  17.519  0.00  0.00    +0.000 A 
ATOM     19  C   UNL     1       5.046   6.246  16.980  0.00  0.00    +0.000 A 
ATOM     20  C   UNL     1       4.732   4.906  17.144  0.00  0.00    +0.000 A 
ATOM     21  C   UNL     1       3.600   4.572  17.882  0.00  0.00    +0.000 A 
ATOM     22  C   UNL     1       2.761   5.563  18.429  0.00  0.00    +0.000 A 
BRANCH  20  23
ATOM     23  O   UNL     1       5.608   4.032  16.567  0.00  0.00    +0.000 OA
ATOM     24  C   UNL     1       6.832   4.584  16.095  0.00  0.00    +0.000 C 
ENDBRANCH  20  23
BRANCH  22  25
ATOM     25  O   UNL     1       1.759   5.026  19.200  0.00  0.00    +0.000 OA
ATOM     26  C   UNL     1       1.431   3.666  18.964  0.00  0.00    +0.000 C 
ENDBRANCH  22  25
ENDBRANCH  14  17
ENDBRANCH  10  11
BRANCH   1  27
ATOM     27  C   UNL     1       0.175  11.750  21.407  0.00  0.00    +0.000 C 
ATOM     28  O   UNL     1       1.337  11.894  21.068  0.00  0.00    +0.000 OA
BRANCH  27  29
ATOM     29  O   UNL     1      -0.257  11.654  22.696  0.00  0.00    +0.000 OA
BRANCH  29  31
ATOM     30  C   UNL     1       0.167   9.397  23.476  0.00  0.00    +0.000 C 
ATOM     31  C   UNL     1      -0.882  10.405  23.049  0.00  0.00    +0.000 C 
ENDBRANCH  29  31
ENDBRANCH  27  29
ENDBRANCH   1  27
BRANCH   5  32
ATOM     32  O   UNL     1      -5.236  12.708  18.143  0.00  0.00    +0.000 OA
ATOM     33  C   UNL     1      -6.571  12.401  17.759  0.00  0.00    +0.000 C 
ENDBRANCH   5  32
TORSDOF 8
ENDMDL
MODEL 2
REMARK VINA RESULT:      -7.6      3.068      9.305
REMARK  Name = 
REMARK  12 active torsions:
REMARK  status: ('A' for Active; 'I' for Inactive)
REMARK    1  A    between atoms: C_1  and  C_2
REMARK    2  A    between atoms: C_2  and  O_3
REMARK    3  A    between atoms: O_3  and  C_4
REMARK    4  A    between atoms: C_4  and  C_6
REMARK    5  A    between atoms: C_10  and  O_11
REMARK    6  A    between atoms: O_11  and  C_12
REMARK    7  A    between atoms: C_17  and  N_18
REMARK    8  A    between atoms: N_21  and  C_22
REMARK    9  A    between atoms: C_25  and  O_26
REMARK   10  A    between atoms: O_26  and  C_27
REMARK   11  A    between atoms: C_29  and  O_30
REMARK   12  A    between atoms: O_30  and  C_31
REMARK                            x       y       z     vdW  Elec       q    Type
REMARK                         _______ _______ _______ _____ _____    ______ ____
ROOT
ATOM      1  C   UNL     1       3.099   4.438  17.574  0.00  0.00    +0.000 A 
ATOM      2  C   UNL     1       3.935   3.610  16.852  0.00  0.00    +0.000 A 
ATOM      3  N   UNL     1       5.184   3.943  16.447  0.00  0.00    +0.000 NA
ATOM      4  C   UNL     1       5.679   5.156  16.767  0.00  0.00    +0.000 A 
ATOM      5  C   UNL     1       6.962   5.533  16.300  0.00  0.00    +0.000 A 
ATOM      6  C   UNL     1       7.506   6.790  16.584  0.00  0.00    +0.000 A 
ATOM      7  C   UNL     1       6.838   7.647  17.427  0.00  0.00    +0.000 A 
ATOM      8  C   UNL     1       5.609   7.258  17.945  0.00  0.00    +0.000 A 
ATOM      9  C   UNL     1       4.937   6.060  17.568  0.00  0.00    +0.000 A 
ATOM     10  C   UNL     1       3.578   5.713  17.961  0.00  0.00    +0.000 A 
ENDROOT
BRANCH  10  11
ATOM     11  N   UNL     1       2.712   6.586  18.639  0.00  0.00    +0.000 N 
ATOM     12  C   UNL     1       2.430   7.951  18.144  0.00  0.00    +0.000 C 
ATOM     13  C   UNL     1       1.115   8.502  18.706  0.00  0.00    +0.000 C 
ATOM     14  N   UNL     1       1.209   8.481  20.181  0.00  0.00    +0.000 N 
ATOM     15  C   UNL     1       1.362   7.109  20.700  0.00  0.00    +0.000 C 
ATOM     16  C   UNL     1       2.666   6.478  20.121  0.00  0.00    +0.000 C 
BRANCH  14  17
ATOM     17  C   UNL     1       0.714   9.532  20.932  0.00  0.00    +0.000 A 
ATOM     18  C   UNL     1       0.073   9.261  22.161  0.00  0.00    +0.000 A 
ATOM     19  C   UNL     1      -0.549  10.247  22.930  0.00  0.00    +0.000 A 
ATOM     20  C   UNL     1      -0.549  11.565  22.501  0.00  0.00    +0.000 A 
ATOM     21  C   UNL     1       0.110  11.882  21.316  0.00  0.00    +0.000 A 
ATOM     22  C   UNL     1       0.740  10.890  20.539  0.00  0.00    +0.000 A 
BRANCH  20  23
ATOM     23  O   UNL     1      -1.194  12.441  23.327  0.00  0.00    +0.000 OA
ATOM     24  C   UNL     1      -2.614  12.461  23.240  0.00  0.00    +0.000 C 
ENDBRANCH  20  23
BRANCH  22  25
ATOM     25  O   UNL     1       1.412  11.422  19.465  0.00  0.00    +0.000 OA
ATOM     26  C   UNL     1       0.882  12.614  18.908  0.00  0.00    +0.000 C 
ENDBRANCH  22  25
ENDBRANCH  14  17
ENDBRANCH  10  11
BRANCH   1  27
ATOM     27  C   UNL     1       1.700   3.967  17.808  0.00  0.00    +0.000 C 
ATOM     28  O   UNL     1       0.708   4.385  17.236  0.00  0.00    +0.000 OA
BRANCH  27  29
ATOM     29  O   UNL     1       1.694   3.039  18.808  0.00  0.00    +0.000 OA
BRANCH  29  31
ATOM     30  C   UNL     1       1.634   3.146  21.230  0.00  0.00    +0.000 C 
ATOM     31  C   UNL     1       0.863   3.355  19.941  0.00  0.00    +0.000 C 
ENDBRANCH  29  31
ENDBRANCH  27  29
ENDBRANCH   1  27
BRANCH   5  32
ATOM     32  O   UNL     1       7.642   4.600  15.539  0.00  0.00    +0.000 OA
ATOM     33  C   UNL     1       7.475   4.673  14.127  0.00  0.00    +0.000 C 
ENDBRANCH   5  32
TORSDOF 8
ENDMDL
MODEL 3
REMARK VINA RESULT:      -7.4      0.943      1.552
REMARK  Name = 
REMARK  12 active torsions:
REMARK  status: ('A' for Active; 'I' for Inactive)
REMARK    1  A    between atoms: C_1  and  C_2
REMARK    2  A    between atoms: C_2  and  O_3
REMARK    3  A    between atoms: O_3  and  C_4
REMARK    4  A    between atoms: C_4  and  C_6
REMARK    5  A    between atoms: C_10  and  O_11
REMARK    6  A    between atoms: O_11  and  C_12
REMARK    7  A    between atoms: C_17  and  N_18
REMARK    8  A    between atoms: N_21  and  C_22
REMARK    9  A    between atoms: C_25  and  O_26
REMARK   10  A    between atoms: O_26  and  C_27
REMARK   11  A    between atoms: C_29  and  O_30
REMARK   12  A    between atoms: O_30  and  C_31
REMARK                            x       y       z     vdW  Elec       q    Type
REMARK                         _______ _______ _______ _____ _____    ______ ____
ROOT
ATOM      1  C   UNL     1      -0.701  11.371  20.497  0.00  0.00    +0.000 A 
ATOM      2  C   UNL     1      -1.772  12.215  20.708  0.00  0.00    +0.000 A 
ATOM      3  N   UNL     1      -2.848  12.312  19.890  0.00  0.00    +0.000 NA
ATOM      4  C   UNL     1      -2.912  11.531  18.792  0.00  0.00    +0.000 A 
ATOM      5  C   UNL     1      -4.007  11.666  17.902  0.00  0.00    +0.000 A 
ATOM      6  C   UNL     1      -4.104  10.898  16.737  0.00  0.00    +0.000 A 
ATOM      7  C   UNL     1      -3.180   9.908  16.494  0.00  0.00    +0.000 A 
ATOM      8  C   UNL     1      -2.141   9.723  17.397  0.00  0.00    +0.000 A 
ATOM      9  C   UNL     1      -1.904  10.575  18.515  0.00  0.00    +0.000 A 
ATOM     10  C   UNL     1      -0.730  10.508  19.373  0.00  0.00    +0.000 A 
ENDROOT
BRANCH  10  11
ATOM     11  N   UNL     1       0.384   9.693  19.115  0.00  0.00    +0.000 N 
ATOM     12  C   UNL     1       0.993   9.601  17.771  0.00  0.00    +0.000 C 
ATOM     13  C   UNL     1       2.443   9.107  17.833  0.00  0.00    +0.000 C 
ATOM     14  N   UNL     1       2.444   7.792  18.508  0.00  0.00    +0.000 N 
ATOM     15  C   UNL     1       1.958   7.888  19.897  0.00  0.00    +0.000 C 
ATOM     16  C   UNL     1       0.496   8.434  19.897  0.00  0.00    +0.000 C 
BRANCH  14  17
ATOM     17  C   UNL     1       3.255   6.768  18.050  0.00  0.00    +0.000 A 
ATOM     18  C   UNL     1       4.545   7.075  17.563  0.00  0.00    +0.000 A 
ATOM     19  C   UNL     1       5.387   6.123  16.984  0.00  0.00    +0.000 A 
ATOM     20  C   UNL     1       4.973   4.806  16.873  0.00  0.00    +0.000 A 
ATOM     21  C   UNL     1       3.726   4.452  17.381  0.00  0.00    +0.000 A 
ATOM     22  C   UNL     1       2.874   5.410  17.967  0.00  0.00    +0.000 A 
BRANCH  20  23
ATOM     23  O   UNL     1       5.873   3.965  16.282  0.00  0.00    +0.000 OA
ATOM     24  C   UNL     1       5.961   4.031  14.864  0.00  0.00    +0.000 C 
ENDBRANCH  20  23
BRANCH  22  25
ATOM     25  O   UNL     1       1.738   4.841  18.490  0.00  0.00    +0.000 OA
ATOM     26  C   UNL     1       1.890   4.097  19.688  0.00  0.00    +0.000 C 
ENDBRANCH  22  25
ENDBRANCH  14  17
ENDBRANCH  10  11
BRANCH   1  27
ATOM     27  C   UNL     1       0.469  11.500  21.418  0.00  0.00    +0.000 C 
ATOM     28  O   UNL     1       0.819  10.665  22.235  0.00  0.00    +0.000 OA
BRANCH  27  29
ATOM     29  O   UNL     1       1.047  12.722  21.250  0.00  0.00    +0.000 OA
BRANCH  29  31
ATOM     30  C   UNL     1       2.101  14.298  19.738  0.00  0.00    +0.000 C 
ATOM     31  C   UNL     1       1.928  12.840  20.117  0.00  0.00    +0.000 C 
ENDBRANCH  29  31
ENDBRANCH  27  29
ENDBRANCH   1  27
BRANCH   5  32
ATOM     32  O   UNL     1      -4.965  12.605  18.239  0.00  0.00    +0.000 OA
ATOM     33  C   UNL     1      -6.198  12.550  17.531  0.00  0.00    +0.000 C 
ENDBRANCH   5  32
TORSDOF 8
ENDMDL
MODEL 4
REMARK VINA RESULT:      -6.9      2.036      4.100
REMARK  Name = 
REMARK  12 active torsions:
REMARK  status: ('A' for Active; 'I' for Inactive)
REMARK    1  A    between atoms: C_1  and  C_2
REMARK    2  A    between atoms: C_2  and  O_3
REMARK    3  A    between atoms: O_3  and  C_4
REMARK    4  A    between atoms: C_4  and  C_6
REMARK    5  A    between atoms: C_10  and  O_11
REMARK    6  A    between atoms: O_11  and  C_12
REMARK    7  A    between atoms: C_17  and  N_18
REMARK    8  A    between atoms: N_21  and  C_22
REMARK    9  A    between atoms: C_25  and  O_26
REMARK   10  A    between atoms: O_26  and  C_27
REMARK   11  A    between atoms: C_29  and  O_30
REMARK   12  A    between atoms: O_30  and  C_31
REMARK                            x       y       z     vdW  Elec       q    Type
REMARK                         _______ _______ _______ _____ _____    ______ ____
ROOT
ATOM      1  C   UNL     1      -2.670  11.445  18.935  0.00  0.00    +0.000 A 
ATOM      2  C   UNL     1      -3.787  12.221  19.170  0.00  0.00    +0.000 A 
ATOM      3  N   UNL     1      -3.946  13.037  20.239  0.00  0.00    +0.000 NA
ATOM      4  C   UNL     1      -2.955  13.130  21.149  0.00  0.00    +0.000 A 
ATOM      5  C   UNL     1      -3.135  13.937  22.299  0.00  0.00    +0.000 A 
ATOM      6  C   UNL     1      -2.146  14.044  23.283  0.00  0.00    +0.000 A 
ATOM      7  C   UNL     1      -0.924  13.445  23.089  0.00  0.00    +0.000 A 
ATOM      8  C   UNL     1      -0.714  12.706  21.932  0.00  0.00    +0.000 A 
ATOM      9  C   UNL     1      -1.732  12.434  20.972  0.00  0.00    +0.000 A 
ATOM     10  C   UNL     1      -1.586  11.525  19.844  0.00  0.00    +0.000 A 
ENDROOT
BRANCH  10  11
ATOM     11  N   UNL     1      -0.473  10.692  19.649  0.00  0.00    +0.000 N 
ATOM     12  C   UNL     1       0.173  10.544  18.328  0.00  0.00    +0.000 C 
ATOM     13  C   UNL     1       1.616  10.041  18.450  0.00  0.00    +0.000 C 
ATOM     14  N   UNL     1       1.586   8.752  19.173  0.00  0.00    +0.000 N 
ATOM     15  C   UNL     1       1.061   8.905  20.543  0.00  0.00    +0.000 C 
ATOM     16  C   UNL     1      -0.395   9.462  20.481  0.00  0.00    +0.000 C 
BRANCH  14  17
ATOM     17  C   UNL     1       2.400   7.706  18.777  0.00  0.00    +0.000 A 
ATOM     18  C   UNL     1       3.286   7.893  17.692  0.00  0.00    +0.000 A 
ATOM     19  C   UNL     1       4.063   6.863  17.158  0.00  0.00    +0.000 A 
ATOM     20  C   UNL     1       3.994   5.589  17.697  0.00  0.00    +0.000 A 
ATOM     21  C   UNL     1       3.166   5.373  18.796  0.00  0.00    +0.000 A 
ATOM     22  C   UNL     1       2.381   6.409  19.338  0.00  0.00    +0.000 A 
BRANCH  20  23
ATOM     23  O   UNL     1       4.791   4.661  17.089  0.00  0.00    +0.000 OA
ATOM     24  C   UNL     1       5.571   5.120  15.992  0.00  0.00    +0.000 C 
ENDBRANCH  20  23
BRANCH  22  25
ATOM     25  O   UNL     1       1.714   6.014  20.472  0.00  0.00    +0.000 OA
ATOM     26  C   UNL     1       2.111   4.781  21.050  0.00  0.00    +0.000 C 
ENDBRANCH  22  25
ENDBRANCH  14  17
ENDBRANCH  10  11
BRANCH   1  27
ATOM     27  C   UNL     1      -2.724  10.491  17.786  0.00  0.00    +0.000 C 
ATOM     28  O   UNL     1      -2.983   9.302  17.866  0.00  0.00    +0.000 OA
BRANCH  27  29
ATOM     29  O   UNL     1      -2.376  11.141  16.639  0.00  0.00    +0.000 OA
BRANCH  29  31
ATOM     30  C   UNL     1      -2.982  10.104  14.533  0.00  0.00    +0.000 C 
ATOM     31  C   UNL     1      -3.363  11.120  15.591  0.00  0.00    +0.000 C 
ENDBRANCH  29  31
ENDBRANCH  27  29
ENDBRANCH   1  27
BRANCH   5  32
ATOM     32  O   UNL     1      -4.343  14.603  22.404  0.00  0.00    +0.000 OA
ATOM     33  C   UNL     1      -4.837  14.841  23.717  0.00  0.00    +0.000 C 
ENDBRANCH   5  32
TORSDOF 8
ENDMDL
MODEL 5
REMARK VINA RESULT:      -6.8      2.521      9.289
REMARK  Name = 
REMARK  12 active torsions:
REMARK  status: ('A' for Active; 'I' for Inactive)
REMARK    1  A    between atoms: C_1  and  C_2
REMARK    2  A    between atoms: C_2  and  O_3
REMARK    3  A    between atoms: O_3  and  C_4
REMARK    4  A    between atoms: C_4  and  C_6
REMARK    5  A    between atoms: C_10  and  O_11
REMARK    6  A    between atoms: O_11  and  C_12
REMARK    7  A    between atoms: C_17  and  N_18
REMARK    8  A    between atoms: N_21  and  C_22
REMARK    9  A    between atoms: C_25  and  O_26
REMARK   10  A    between atoms: O_26  and  C_27
REMARK   11  A    between atoms: C_29  and  O_30
REMARK   12  A    between atoms: O_30  and  C_31
REMARK                            x       y       z     vdW  Elec       q    Type
REMARK                         _______ _______ _______ _____ _____    ______ ____
ROOT
ATOM      1  C   UNL     1       4.504   5.803  17.888  0.00  0.00    +0.000 A 
ATOM      2  C   UNL     1       5.245   4.640  17.820  0.00  0.00    +0.000 A 
ATOM      3  N   UNL     1       5.049   3.557  18.610  0.00  0.00    +0.000 NA
ATOM      4  C   UNL     1       4.061   3.581  19.528  0.00  0.00    +0.000 A 
ATOM      5  C   UNL     1       3.886   2.475  20.396  0.00  0.00    +0.000 A 
ATOM      6  C   UNL     1       2.893   2.464  21.380  0.00  0.00    +0.000 A 
ATOM      7  C   UNL     1       1.987   3.498  21.446  0.00  0.00    +0.000 A 
ATOM      8  C   UNL     1       2.110   4.555  20.554  0.00  0.00    +0.000 A 
ATOM      9  C   UNL     1       3.191   4.694  19.636  0.00  0.00    +0.000 A 
ATOM     10  C   UNL     1       3.435   5.871  18.815  0.00  0.00    +0.000 A 
ENDROOT
BRANCH  10  11
ATOM     11  N   UNL     1       2.718   7.073  18.936  0.00  0.00    +0.000 N 
ATOM     12  C   UNL     1       2.044   7.460  20.194  0.00  0.00    +0.000 C 
ATOM     13  C   UNL     1       1.797   8.971  20.268  0.00  0.00    +0.000 C 
ATOM     14  N   UNL     1       0.989   9.356  19.092  0.00  0.00    +0.000 N 
ATOM     15  C   UNL     1       1.701   9.094  17.828  0.00  0.00    +0.000 C 
ATOM     16  C   UNL     1       2.022   7.570  17.720  0.00  0.00    +0.000 C 
BRANCH  14  17
ATOM     17  C   UNL     1      -0.038  10.276  19.216  0.00  0.00    +0.000 A 
ATOM     18  C   UNL     1      -0.033  11.171  20.309  0.00  0.00    +0.000 A 
ATOM     19  C   UNL     1      -1.080  12.057  20.571  0.00  0.00    +0.000 A 
ATOM     20  C   UNL     1      -2.186  12.093  19.737  0.00  0.00    +0.000 A 
ATOM     21  C   UNL     1      -2.210  11.257  18.623  0.00  0.00    +0.000 A 
ATOM     22  C   UNL     1      -1.155  10.363  18.355  0.00  0.00    +0.000 A 
BRANCH  20  23
ATOM     23  O   UNL     1      -3.151  12.990  20.095  0.00  0.00    +0.000 OA
ATOM     24  C   UNL     1      -4.497  12.604  19.842  0.00  0.00    +0.000 C 
ENDBRANCH  20  23
BRANCH  22  25
ATOM     25  O   UNL     1      -1.326   9.702  17.162  0.00  0.00    +0.000 OA
ATOM     26  C   UNL     1      -2.510   9.993  16.436  0.00  0.00    +0.000 C 
ENDBRANCH  22  25
ENDBRANCH  14  17
ENDBRANCH  10  11
BRANCH   1  27
ATOM     27  C   UNL     1       4.950   6.952  17.044  0.00  0.00    +0.000 C 
ATOM     28  O   UNL     1       4.578   7.179  15.905  0.00  0.00    +0.000 OA
BRANCH  27  29
ATOM     29  O   UNL     1       5.888   7.675  17.719  0.00  0.00    +0.000 OA
BRANCH  29  31
ATOM     30  C   UNL     1       8.123   7.160  18.507  0.00  0.00    +0.000 C 
ATOM     31  C   UNL     1       7.251   7.464  17.305  0.00  0.00    +0.000 C 
ENDBRANCH  29  31
ENDBRANCH  27  29
ENDBRANCH   1  27
BRANCH   5  32
ATOM     32  O   UNL     1       4.757   1.413  20.227  0.00  0.00    +0.000 OA
ATOM     33  C   UNL     1       5.462   0.968  21.380  0.00  0.00    +0.000 C 
ENDBRANCH   5  32
TORSDOF 8
ENDMDL
MODEL 6
REMARK VINA RESULT:      -6.7      2.720      9.149
REMARK  Name = 
REMARK  12 active torsions:
REMARK  status: ('A' for Active; 'I' for Inactive)
REMARK    1  A    between atoms: C_1  and  C_2
REMARK    2  A    between atoms: C_2  and  O_3
REMARK    3  A    between atoms: O_3  and  C_4
REMARK    4  A    between atoms: C_4  and  C_6
REMARK    5  A    between atoms: C_10  and  O_11
REMARK    6  A    between atoms: O_11  and  C_12
REMARK    7  A    between atoms: C_17  and  N_18
REMARK    8  A    between atoms: N_21  and  C_22
REMARK    9  A    between atoms: C_25  and  O_26
REMARK   10  A    between atoms: O_26  and  C_27
REMARK   11  A    between atoms: C_29  and  O_30
REMARK   12  A    between atoms: O_30  and  C_31
REMARK                            x       y       z     vdW  Elec       q    Type
REMARK                         _______ _______ _______ _____ _____    ______ ____
ROOT
ATOM      1  C   UNL     1       2.933   4.852  17.711  0.00  0.00    +0.000 A 
ATOM      2  C   UNL     1       3.772   3.891  17.184  0.00  0.00    +0.000 A 
ATOM      3  N   UNL     1       5.059   4.110  16.821  0.00  0.00    +0.000 NA
ATOM      4  C   UNL     1       5.589   5.338  16.985  0.00  0.00    +0.000 A 
ATOM      5  C   UNL     1       6.916   5.590  16.555  0.00  0.00    +0.000 A 
ATOM      6  C   UNL     1       7.500   6.855  16.680  0.00  0.00    +0.000 A 
ATOM      7  C   UNL     1       6.822   7.858  17.333  0.00  0.00    +0.000 A 
ATOM      8  C   UNL     1       5.546   7.600  17.818  0.00  0.00    +0.000 A 
ATOM      9  C   UNL     1       4.842   6.384  17.584  0.00  0.00    +0.000 A 
ATOM     10  C   UNL     1       3.447   6.153  17.931  0.00  0.00    +0.000 A 
ENDROOT
BRANCH  10  11
ATOM     11  N   UNL     1       2.583   7.153  18.405  0.00  0.00    +0.000 N 
ATOM     12  C   UNL     1       2.297   8.377  17.625  0.00  0.00    +0.000 C 
ATOM     13  C   UNL     1       0.984   9.037  18.058  0.00  0.00    +0.000 C 
ATOM     14  N   UNL     1       1.084   9.339  19.502  0.00  0.00    +0.000 N 
ATOM     15  C   UNL     1       1.240   8.114  20.308  0.00  0.00    +0.000 C 
ATOM     16  C   UNL     1       2.543   7.372  19.875  0.00  0.00    +0.000 C 
BRANCH  14  17
ATOM     17  C   UNL     1       0.591  10.529  20.007  0.00  0.00    +0.000 A 
ATOM     18  C   UNL     1       0.228  11.560  19.111  0.00  0.00    +0.000 A 
ATOM     19  C   UNL     1      -0.176  12.828  19.534  0.00  0.00    +0.000 A 
ATOM     20  C   UNL     1      -0.243  13.121  20.887  0.00  0.00    +0.000 A 
ATOM     21  C   UNL     1       0.064  12.119  21.803  0.00  0.00    +0.000 A 
ATOM     22  C   UNL     1       0.470  10.838  21.380  0.00  0.00    +0.000 A 
BRANCH  20  23
ATOM     23  O   UNL     1      -0.640  14.394  21.183  0.00  0.00    +0.000 OA
ATOM     24  C   UNL     1      -0.280  14.884  22.469  0.00  0.00    +0.000 C 
ENDBRANCH  20  23
BRANCH  22  25
ATOM     25  O   UNL     1       0.631   9.971  22.434  0.00  0.00    +0.000 OA
ATOM     26  C   UNL     1      -0.486   9.796  23.292  0.00  0.00    +0.000 C 
ENDBRANCH  22  25
ENDBRANCH  14  17
ENDBRANCH  10  11
BRANCH   1  27
ATOM     27  C   UNL     1       1.501   4.476  17.918  0.00  0.00    +0.000 C 
ATOM     28  O   UNL     1       0.656   4.403  17.042  0.00  0.00    +0.000 OA
BRANCH  27  29
ATOM     29  O   UNL     1       1.268   4.288  19.248  0.00  0.00    +0.000 OA
BRANCH  29  31
ATOM     30  C   UNL     1       1.341   2.809  21.168  0.00  0.00    +0.000 C 
ATOM     31  C   UNL     1       1.150   2.915  19.668  0.00  0.00    +0.000 C 
ENDBRANCH  29  31
ENDBRANCH  27  29
ENDBRANCH   1  27
BRANCH   5  32
ATOM     32  O   UNL     1       7.597   4.524  15.995  0.00  0.00    +0.000 OA
ATOM     33  C   UNL     1       7.357   4.258  14.618  0.00  0.00    +0.000 C 
ENDBRANCH   5  32
TORSDOF 8
ENDMDL
MODEL 7
REMARK VINA RESULT:      -6.6      2.378      9.138
REMARK  Name = 
REMARK  12 active torsions:
REMARK  status: ('A' for Active; 'I' for Inactive)
REMARK    1  A    between atoms: C_1  and  C_2
REMARK    2  A    between atoms: C_2  and  O_3
REMARK    3  A    between atoms: O_3  and  C_4
REMARK    4  A    between atoms: C_4  and  C_6
REMARK    5  A    between atoms: C_10  and  O_11
REMARK    6  A    between atoms: O_11  and  C_12
REMARK    7  A    between atoms: C_17  and  N_18
REMARK    8  A    between atoms: N_21  and  C_22
REMARK    9  A    between atoms: C_25  and  O_26
REMARK   10  A    between atoms: O_26  and  C_27
REMARK   11  A    between atoms: C_29  and  O_30
REMARK   12  A    between atoms: O_30  and  C_31
REMARK                            x       y       z     vdW  Elec       q    Type
REMARK                         _______ _______ _______ _____ _____    ______ ____
ROOT
ATOM      1  C   UNL     1       4.352   5.702  17.406  0.00  0.00    +0.000 A 
ATOM      2  C   UNL     1       4.927   4.470  17.161  0.00  0.00    +0.000 A 
ATOM      3  N   UNL     1       4.478   3.298  17.669  0.00  0.00    +0.000 NA
ATOM      4  C   UNL     1       3.387   3.299  18.462  0.00  0.00    +0.000 A 
ATOM      5  C   UNL     1       2.944   2.084  19.043  0.00  0.00    +0.000 A 
ATOM      6  C   UNL     1       1.834   2.040  19.892  0.00  0.00    +0.000 A 
ATOM      7  C   UNL     1       1.080   3.173  20.090  0.00  0.00    +0.000 A 
ATOM      8  C   UNL     1       1.468   4.354  19.470  0.00  0.00    +0.000 A 
ATOM      9  C   UNL     1       2.673   4.495  18.722  0.00  0.00    +0.000 A 
ATOM     10  C   UNL     1       3.187   5.757  18.209  0.00  0.00    +0.000 A 
ENDROOT
BRANCH  10  11
ATOM     11  N   UNL     1       2.634   7.011  18.517  0.00  0.00    +0.000 N 
ATOM     12  C   UNL     1       1.984   7.283  19.816  0.00  0.00    +0.000 C 
ATOM     13  C   UNL     1       1.939   8.783  20.130  0.00  0.00    +0.000 C 
ATOM     14  N   UNL     1       1.221   9.454  19.026  0.00  0.00    +0.000 N 
ATOM     15  C   UNL     1       1.925   9.300  17.740  0.00  0.00    +0.000 C 
ATOM     16  C   UNL     1       2.043   7.783  17.392  0.00  0.00    +0.000 C 
BRANCH  14  17
ATOM     17  C   UNL     1       0.323  10.474  19.290  0.00  0.00    +0.000 A 
ATOM     18  C   UNL     1       0.594  11.376  20.343  0.00  0.00    +0.000 A 
ATOM     19  C   UNL     1      -0.305  12.365  20.747  0.00  0.00    +0.000 A 
ATOM     20  C   UNL     1      -1.523  12.503  20.103  0.00  0.00    +0.000 A 
ATOM     21  C   UNL     1      -1.810  11.663  19.030  0.00  0.00    +0.000 A 
ATOM     22  C   UNL     1      -0.906  10.664  18.618  0.00  0.00    +0.000 A 
BRANCH  20  23
ATOM     23  O   UNL     1      -2.325  13.497  20.588  0.00  0.00    +0.000 OA
ATOM     24  C   UNL     1      -1.738  14.789  20.686  0.00  0.00    +0.000 C 
ENDBRANCH  20  23
BRANCH  22  25
ATOM     25  O   UNL     1      -1.334  10.012  17.487  0.00  0.00    +0.000 OA
ATOM     26  C   UNL     1      -2.420  10.597  16.786  0.00  0.00    +0.000 C 
ENDBRANCH  22  25
ENDBRANCH  14  17
ENDBRANCH  10  11
BRANCH   1  27
ATOM     27  C   UNL     1       5.064   6.908  16.886  0.00  0.00    +0.000 C 
ATOM     28  O   UNL     1       4.937   7.377  15.768  0.00  0.00    +0.000 OA
BRANCH  27  29
ATOM     29  O   UNL     1       5.928   7.370  17.834  0.00  0.00    +0.000 OA
BRANCH  29  31
ATOM     30  C   UNL     1       8.013   8.608  17.850  0.00  0.00    +0.000 C 
ATOM     31  C   UNL     1       7.324   7.309  17.483  0.00  0.00    +0.000 C 
ENDBRANCH  29  31
ENDBRANCH  27  29
ENDBRANCH   1  27
BRANCH   5  32
ATOM     32  O   UNL     1       3.674   0.950  18.736  0.00  0.00    +0.000 OA
ATOM     33  C   UNL     1       4.768   0.637  19.589  0.00  0.00    +0.000 C 
ENDBRANCH   5  32
TORSDOF 8
ENDMDL
MODEL 8
REMARK VINA RESULT:      -6.6      1.699      2.725
REMARK  Name = 
REMARK  12 active torsions:
REMARK  status: ('A' for Active; 'I' for Inactive)
REMARK    1  A    between atoms: C_1  and  C_2
REMARK    2  A    between atoms: C_2  and  O_3
REMARK    3  A    between atoms: O_3  and  C_4
REMARK    4  A    between atoms: C_4  and  C_6
REMARK    5  A    between atoms: C_10  and  O_11
REMARK    6  A    between atoms: O_11  and  C_12
REMARK    7  A    between atoms: C_17  and  N_18
REMARK    8  A    between atoms: N_21  and  C_22
REMARK    9  A    between atoms: C_25  and  O_26
REMARK   10  A    between atoms: O_26  and  C_27
REMARK   11  A    between atoms: C_29  and  O_30
REMARK   12  A    between atoms: O_30  and  C_31
REMARK                            x       y       z     vdW  Elec       q    Type
REMARK                         _______ _______ _______ _____ _____    ______ ____
ROOT
ATOM      1  C   UNL     1      -0.127  12.080  20.003  0.00  0.00    +0.000 A 
ATOM      2  C   UNL     1      -1.054  13.084  20.200  0.00  0.00    +0.000 A 
ATOM      3  N   UNL     1      -2.335  13.044  19.761  0.00  0.00    +0.000 NA
ATOM      4  C   UNL     1      -2.768  11.956  19.094  0.00  0.00    +0.000 A 
ATOM      5  C   UNL     1      -4.090  11.930  18.583  0.00  0.00    +0.000 A 
ATOM      6  C   UNL     1      -4.576  10.835  17.862  0.00  0.00    +0.000 A 
ATOM      7  C   UNL     1      -3.803   9.705  17.734  0.00  0.00    +0.000 A 
ATOM      8  C   UNL     1      -2.530   9.696  18.290  0.00  0.00    +0.000 A 
ATOM      9  C   UNL     1      -1.925  10.834  18.898  0.00  0.00    +0.000 A 
ATOM     10  C   UNL     1      -0.537  10.901  19.333  0.00  0.00    +0.000 A 
ENDROOT
BRANCH  10  11
ATOM     11  N   UNL     1       0.415   9.903  19.071  0.00  0.00    +0.000 N 
ATOM     12  C   UNL     1       0.745   9.476  17.695  0.00  0.00    +0.000 C 
ATOM     13  C   UNL     1       2.120   8.803  17.619  0.00  0.00    +0.000 C 
ATOM     14  N   UNL     1       2.110   7.650  18.544  0.00  0.00    +0.000 N 
ATOM     15  C   UNL     1       1.910   8.072  19.943  0.00  0.00    +0.000 C 
ATOM     16  C   UNL     1       0.540   8.809  20.070  0.00  0.00    +0.000 C 
BRANCH  14  17
ATOM     17  C   UNL     1       2.707   6.455  18.184  0.00  0.00    +0.000 A 
ATOM     18  C   UNL     1       1.927   5.277  18.154  0.00  0.00    +0.000 A 
ATOM     19  C   UNL     1       2.468   4.013  17.907  0.00  0.00    +0.000 A 
ATOM     20  C   UNL     1       3.825   3.872  17.667  0.00  0.00    +0.000 A 
ATOM     21  C   UNL     1       4.621   5.014  17.643  0.00  0.00    +0.000 A 
ATOM     22  C   UNL     1       4.080   6.291  17.891  0.00  0.00    +0.000 A 
BRANCH  20  23
ATOM     23  O   UNL     1       4.243   2.590  17.447  0.00  0.00    +0.000 OA
ATOM     24  C   UNL     1       3.614   1.579  18.225  0.00  0.00    +0.000 C 
ENDBRANCH  20  23
BRANCH  22  25
ATOM     25  O   UNL     1       5.009   7.289  17.725  0.00  0.00    +0.000 OA
ATOM     26  C   UNL     1       6.257   6.912  17.165  0.00  0.00    +0.000 C 
ENDBRANCH  22  25
ENDBRANCH  14  17
ENDBRANCH  10  11
BRANCH   1  27
ATOM     27  C   UNL     1       1.281  12.352  20.424  0.00  0.00    +0.000 C 
ATOM     28  O   UNL     1       1.800  11.956  21.454  0.00  0.00    +0.000 OA
BRANCH  27  29
ATOM     29  O   UNL     1       1.880  13.165  19.509  0.00  0.00    +0.000 OA
BRANCH  29  31
ATOM     30  C   UNL     1       3.263  15.103  19.045  0.00  0.00    +0.000 C 
ATOM     31  C   UNL     1       2.959  13.976  20.013  0.00  0.00    +0.000 C 
ENDBRANCH  29  31
ENDBRANCH  27  29
ENDBRANCH   1  27
BRANCH   5  32
ATOM     32  O   UNL     1      -4.867  13.049  18.823  0.00  0.00    +0.000 OA
ATOM     33  C   UNL     1      -6.019  12.871  19.639  0.00  0.00    +0.000 C 
ENDBRANCH   5  32
TORSDOF 8
ENDMDL
MODEL 9
REMARK VINA RESULT:      -6.5      3.092      4.950
REMARK  Name = 
REMARK  12 active torsions:
REMARK  status: ('A' for Active; 'I' for Inactive)
REMARK    1  A    between atoms: C_1  and  C_2
REMARK    2  A    between atoms: C_2  and  O_3
REMARK    3  A    between atoms: O_3  and  C_4
REMARK    4  A    between atoms: C_4  and  C_6
REMARK    5  A    between atoms: C_10  and  O_11
REMARK    6  A    between atoms: O_11  and  C_12
REMARK    7  A    between atoms: C_17  and  N_18
REMARK    8  A    between atoms: N_21  and  C_22
REMARK    9  A    between atoms: C_25  and  O_26
REMARK   10  A    between atoms: O_26  and  C_27
REMARK   11  A    between atoms: C_29  and  O_30
REMARK   12  A    between atoms: O_30  and  C_31
REMARK                            x       y       z     vdW  Elec       q    Type
REMARK                         _______ _______ _______ _____ _____    ______ ____
ROOT
ATOM      1  C   UNL     1      -0.597  12.858  19.446  0.00  0.00    +0.000 A 
ATOM      2  C   UNL     1      -0.834  14.217  19.493  0.00  0.00    +0.000 A 
ATOM      3  N   UNL     1       0.101  15.169  19.256  0.00  0.00    +0.000 NA
ATOM      4  C   UNL     1       1.356  14.794  18.936  0.00  0.00    +0.000 A 
ATOM      5  C   UNL     1       2.353  15.782  18.742  0.00  0.00    +0.000 A 
ATOM      6  C   UNL     1       3.674  15.441  18.434  0.00  0.00    +0.000 A 
ATOM      7  C   UNL     1       4.002  14.125  18.203  0.00  0.00    +0.000 A 
ATOM      8  C   UNL     1       3.015  13.155  18.325  0.00  0.00    +0.000 A 
ATOM      9  C   UNL     1       1.695  13.425  18.786  0.00  0.00    +0.000 A 
ATOM     10  C   UNL     1       0.697  12.408  19.086  0.00  0.00    +0.000 A 
ENDROOT
BRANCH  10  11
ATOM     11  N   UNL     1       0.964  11.030  19.098  0.00  0.00    +0.000 N 
ATOM     12  C   UNL     1       1.399  10.327  20.324  0.00  0.00    +0.000 C 
ATOM     13  C   UNL     1       1.123   8.821  20.248  0.00  0.00    +0.000 C 
ATOM     14  N   UNL     1       1.821   8.292  19.057  0.00  0.00    +0.000 N 
ATOM     15  C   UNL     1       1.307   8.892  17.811  0.00  0.00    +0.000 C 
ATOM     16  C   UNL     1       1.520  10.437  17.854  0.00  0.00    +0.000 C 
BRANCH  14  17
ATOM     17  C   UNL     1       2.473   7.073  19.107  0.00  0.00    +0.000 A 
ATOM     18  C   UNL     1       2.076   6.118  20.070  0.00  0.00    +0.000 A 
ATOM     19  C   UNL     1       2.746   4.908  20.264  0.00  0.00    +0.000 A 
ATOM     20  C   UNL     1       3.849   4.593  19.488  0.00  0.00    +0.000 A 
ATOM     21  C   UNL     1       4.246   5.488  18.497  0.00  0.00    +0.000 A 
ATOM     22  C   UNL     1       3.572   6.709  18.298  0.00  0.00    +0.000 A 
BRANCH  20  23
ATOM     23  O   UNL     1       4.430   3.390  19.771  0.00  0.00    +0.000 OA
ATOM     24  C   UNL     1       3.636   2.463  20.502  0.00  0.00    +0.000 C 
ENDBRANCH  20  23
BRANCH  22  25
ATOM     25  O   UNL     1       4.058   7.398  17.214  0.00  0.00    +0.000 OA
ATOM     26  C   UNL     1       4.983   6.713  16.384  0.00  0.00    +0.000 C 
ENDBRANCH  22  25
ENDBRANCH  14  17
ENDBRANCH  10  11
BRANCH   1  27
ATOM     27  C   UNL     1      -1.704  11.952  19.880  0.00  0.00    +0.000 C 
ATOM     28  O   UNL     1      -1.866  11.526  21.011  0.00  0.00    +0.000 OA
BRANCH  27  29
ATOM     29  O   UNL     1      -2.470  11.621  18.802  0.00  0.00    +0.000 OA
BRANCH  29  31
ATOM     30  C   UNL     1      -2.010  10.266  16.844  0.00  0.00    +0.000 C 
ATOM     31  C   UNL     1      -2.322  10.269  18.328  0.00  0.00    +0.000 C 
ENDBRANCH  29  31
ENDBRANCH  27  29
ENDBRANCH   1  27
BRANCH   5  32
ATOM     32  O   UNL     1       1.954  17.099  18.885  0.00  0.00    +0.000 OA
ATOM     33  C   UNL     1       2.422  17.793  20.035  0.00  0.00    +0.000 C 
ENDBRANCH   5  32
TORSDOF 8
ENDMDL
