MODEL 1
REMARK VINA RESULT:      -7.4      0.000      0.000
REMARK  Name = 
REMARK  5 active torsions:
REMARK  status: ('A' for Active; 'I' for Inactive)
REMARK    1  A    between atoms: C_1  and  C_2
REMARK    2  A    between atoms: C_2  and  N_3
REMARK    3  A    between atoms: C_6  and  C_7
REMARK    4  A    between atoms: N_9  and  C_10
REMARK    5  A    between atoms: C_10  and  C_11
REMARK                            x       y       z     vdW  Elec       q    Type
REMARK                         _______ _______ _______ _____ _____    ______ ____
ROOT
ATOM      1  C   UNL     1       6.967   5.290  16.324  0.00  0.00    +0.000 C 
ATOM      2  O   UNL     1       7.488   6.337  16.696  0.00  0.00    +0.000 OA
ATOM      3  N   UNL     1       6.346   4.400  17.166  0.00  0.00    +0.000 N 
ATOM      4  H   UNL     1       5.828   3.649  16.721  0.00  0.00    +0.000 HD
ENDROOT
BRANCH   1   8
ATOM      5  N   UNL     1       6.477   3.832  13.054  0.00  0.00    +0.000 N 
ATOM      6  C   UNL     1       7.413   4.801  12.826  0.00  0.00    +0.000 A 
ATOM      7  N   UNL     1       7.731   5.435  13.933  0.00  0.00    +0.000 NA
ATOM      8  C   UNL     1       6.946   4.860  14.924  0.00  0.00    +0.000 A 
ATOM      9  C   UNL     1       6.161   3.859  14.381  0.00  0.00    +0.000 A 
BRANCH   5  11
ATOM     10  C   UNL     1       4.477   3.355  11.690  0.00  0.00    +0.000 C 
ATOM     11  C   UNL     1       5.896   2.955  12.057  0.00  0.00    +0.000 C 
ENDBRANCH   5  11
ENDBRANCH   1   8
BRANCH   3  12
ATOM     12  C   UNL     1       6.198   4.663  18.576  0.00  0.00    +0.000 C 
BRANCH  12  13
ATOM     13  C   UNL     1       4.808   4.385  19.098  0.00  0.00    +0.000 A 
ATOM     14  C   UNL     1       4.344   3.077  19.324  0.00  0.00    +0.000 A 
ATOM     15  C   UNL     1       3.071   2.855  19.854  0.00  0.00    +0.000 A 
ATOM     16  C   UNL     1       2.265   3.937  20.181  0.00  0.00    +0.000 A 
ATOM     17  F   UNL     1       1.047   3.723  20.696  0.00  0.00    +0.000 F 
ATOM     18  C   UNL     1       2.709   5.240  19.992  0.00  0.00    +0.000 A 
ATOM     19  C   UNL     1       3.979   5.464  19.456  0.00  0.00    +0.000 A 
ENDBRANCH  12  13
ENDBRANCH   3  12
TORSDOF 4
ENDMDL
MODEL 2
REMARK VINA RESULT:      -7.2      1.379      1.676
REMARK  Name = 
REMARK  5 active torsions:
REMARK  status: ('A' for Active; 'I' for Inactive)
REMARK    1  A    between atoms: C_1  and  C_2
REMARK    2  A    between atoms: C_2  and  N_3
REMARK    3  A    between atoms: C_6  and  C_7
REMARK    4  A    between atoms: N_9  and  C_10
REMARK    5  A    between atoms: C_10  and  C_11
REMARK                            x       y       z     vdW  Elec       q    Type
REMARK                         _______ _______ _______ _____ _____    ______ ____
ROOT
ATOM      1  C   UNL     1       6.092   5.453  16.508  0.00  0.00    +0.000 C 
ATOM      2  O   UNL     1       6.879   5.448  17.450  0.00  0.00    +0.000 OA
ATOM      3  N   UNL     1       4.790   5.881  16.599  0.00  0.00    +0.000 N 
ATOM      4  H   UNL     1       4.287   5.973  15.722  0.00  0.00    +0.000 HD
ENDROOT
BRANCH   1   8
ATOM      5  N   UNL     1       6.461   3.984  13.228  0.00  0.00    +0.000 N 
ATOM      6  C   UNL     1       7.522   4.842  13.305  0.00  0.00    +0.000 A 
ATOM      7  N   UNL     1       7.556   5.463  14.464  0.00  0.00    +0.000 NA
ATOM      8  C   UNL     1       6.451   4.996  15.164  0.00  0.00    +0.000 A 
ATOM      9  C   UNL     1       5.763   4.074  14.397  0.00  0.00    +0.000 A 
BRANCH   5  11
ATOM     10  C   UNL     1       4.657   3.280  11.700  0.00  0.00    +0.000 C 
ATOM     11  C   UNL     1       6.119   3.152  12.092  0.00  0.00    +0.000 C 
ENDBRANCH   5  11
ENDBRANCH   1   8
BRANCH   3  12
ATOM     12  C   UNL     1       4.252   6.430  17.819  0.00  0.00    +0.000 C 
BRANCH  12  13
ATOM     13  C   UNL     1       3.232   5.534  18.483  0.00  0.00    +0.000 A 
ATOM     14  C   UNL     1       2.835   5.722  19.819  0.00  0.00    +0.000 A 
ATOM     15  C   UNL     1       1.853   4.909  20.390  0.00  0.00    +0.000 A 
ATOM     16  C   UNL     1       1.250   3.920  19.625  0.00  0.00    +0.000 A 
ATOM     17  F   UNL     1       0.303   3.145  20.171  0.00  0.00    +0.000 F 
ATOM     18  C   UNL     1       1.606   3.732  18.295  0.00  0.00    +0.000 A 
ATOM     19  C   UNL     1       2.591   4.539  17.724  0.00  0.00    +0.000 A 
ENDBRANCH  12  13
ENDBRANCH   3  12
TORSDOF 4
ENDMDL
MODEL 3
REMARK VINA RESULT:      -7.2      0.784      1.243
REMARK  Name = 
REMARK  5 active torsions:
REMARK  status: ('A' for Active; 'I' for Inactive)
REMARK    1  A    between atoms: C_1  and  C_2
REMARK    2  A    between atoms: C_2  and  N_3
REMARK    3  A    between atoms: C_6  and  C_7
REMARK    4  A    between atoms: N_9  and  C_10
REMARK    5  A    between atoms: C_10  and  C_11
REMARK                            x       y       z     vdW  Elec       q    Type
REMARK                         _______ _______ _______ _____ _____    ______ ____
ROOT
ATOM      1  C   UNL     1       6.520   5.277  16.306  0.00  0.00    +0.000 C 
ATOM      2  O   UNL     1       6.774   6.407  16.712  0.00  0.00    +0.000 OA
ATOM      3  N   UNL     1       6.035   4.268  17.102  0.00  0.00    +0.000 N 
ATOM      4  H   UNL     1       5.729   3.427  16.622  0.00  0.00    +0.000 HD
ENDROOT
BRANCH   1   8
ATOM      5  N   UNL     1       6.509   3.878  12.975  0.00  0.00    +0.000 N 
ATOM      6  C   UNL     1       7.500   4.817  12.914  0.00  0.00    +0.000 A 
ATOM      7  N   UNL     1       7.658   5.426  14.069  0.00  0.00    +0.000 NA
ATOM      8  C   UNL     1       6.708   4.865  14.914  0.00  0.00    +0.000 A 
ATOM      9  C   UNL     1       5.988   3.899  14.236  0.00  0.00    +0.000 A 
BRANCH   5  11
ATOM     10  C   UNL     1       4.587   3.203  11.584  0.00  0.00    +0.000 C 
ATOM     11  C   UNL     1       6.067   3.035  11.883  0.00  0.00    +0.000 C 
ENDBRANCH   5  11
ENDBRANCH   1   8
BRANCH   3  12
ATOM     12  C   UNL     1       5.719   4.479  18.493  0.00  0.00    +0.000 C 
BRANCH  12  13
ATOM     13  C   UNL     1       4.290   4.135  18.844  0.00  0.00    +0.000 A 
ATOM     14  C   UNL     1       3.198   4.763  18.219  0.00  0.00    +0.000 A 
ATOM     15  C   UNL     1       1.889   4.387  18.529  0.00  0.00    +0.000 A 
ATOM     16  C   UNL     1       1.665   3.369  19.447  0.00  0.00    +0.000 A 
ATOM     17  F   UNL     1       0.409   3.005  19.739  0.00  0.00    +0.000 F 
ATOM     18  C   UNL     1       2.728   2.715  20.058  0.00  0.00    +0.000 A 
ATOM     19  C   UNL     1       4.037   3.093  19.754  0.00  0.00    +0.000 A 
ENDBRANCH  12  13
ENDBRANCH   3  12
TORSDOF 4
ENDMDL
MODEL 4
REMARK VINA RESULT:      -7.2      1.083      1.238
REMARK  Name = 
REMARK  5 active torsions:
REMARK  status: ('A' for Active; 'I' for Inactive)
REMARK    1  A    between atoms: C_1  and  C_2
REMARK    2  A    between atoms: C_2  and  N_3
REMARK    3  A    between atoms: C_6  and  C_7
REMARK    4  A    between atoms: N_9  and  C_10
REMARK    5  A    between atoms: C_10  and  C_11
REMARK                            x       y       z     vdW  Elec       q    Type
REMARK                         _______ _______ _______ _____ _____    ______ ____
ROOT
ATOM      1  C   UNL     1       6.684   4.676  17.249  0.00  0.00    +0.000 C 
ATOM      2  O   UNL     1       7.623   4.381  17.982  0.00  0.00    +0.000 OA
ATOM      3  N   UNL     1       5.473   5.138  17.703  0.00  0.00    +0.000 N 
ATOM      4  H   UNL     1       4.832   5.485  16.996  0.00  0.00    +0.000 HD
ENDROOT
BRANCH   1   8
ATOM      5  N   UNL     1       6.368   4.002  13.713  0.00  0.00    +0.000 N 
ATOM      6  C   UNL     1       7.344   4.958  13.762  0.00  0.00    +0.000 A 
ATOM      7  N   UNL     1       7.607   5.316  14.999  0.00  0.00    +0.000 NA
ATOM      8  C   UNL     1       6.743   4.569  15.790  0.00  0.00    +0.000 A 
ATOM      9  C   UNL     1       5.967   3.748  14.993  0.00  0.00    +0.000 A 
BRANCH   5  11
ATOM     10  C   UNL     1       6.914   2.818  11.620  0.00  0.00    +0.000 C 
ATOM     11  C   UNL     1       5.830   3.394  12.514  0.00  0.00    +0.000 C 
ENDBRANCH   5  11
ENDBRANCH   1   8
BRANCH   3  12
ATOM     12  C   UNL     1       5.225   5.378  19.103  0.00  0.00    +0.000 C 
BRANCH  12  13
ATOM     13  C   UNL     1       4.014   4.647  19.634  0.00  0.00    +0.000 A 
ATOM     14  C   UNL     1       3.978   3.245  19.740  0.00  0.00    +0.000 A 
ATOM     15  C   UNL     1       2.863   2.601  20.281  0.00  0.00    +0.000 A 
ATOM     16  C   UNL     1       1.790   3.355  20.739  0.00  0.00    +0.000 A 
ATOM     17  F   UNL     1       0.724   2.737  21.265  0.00  0.00    +0.000 F 
ATOM     18  C   UNL     1       1.812   4.742  20.671  0.00  0.00    +0.000 A 
ATOM     19  C   UNL     1       2.923   5.387  20.124  0.00  0.00    +0.000 A 
ENDBRANCH  12  13
ENDBRANCH   3  12
TORSDOF 4
ENDMDL
MODEL 5
REMARK VINA RESULT:      -7.1      0.880      1.507
REMARK  Name = 
REMARK  5 active torsions:
REMARK  status: ('A' for Active; 'I' for Inactive)
REMARK    1  A    between atoms: C_1  and  C_2
REMARK    2  A    between atoms: C_2  and  N_3
REMARK    3  A    between atoms: C_6  and  C_7
REMARK    4  A    between atoms: N_9  and  C_10
REMARK    5  A    between atoms: C_10  and  C_11
REMARK                            x       y       z     vdW  Elec       q    Type
REMARK                         _______ _______ _______ _____ _____    ______ ____
ROOT
ATOM      1  C   UNL     1       6.907   4.687  16.959  0.00  0.00    +0.000 C 
ATOM      2  O   UNL     1       7.913   4.467  17.628  0.00  0.00    +0.000 OA
ATOM      3  N   UNL     1       5.703   5.079  17.492  0.00  0.00    +0.000 N 
ATOM      4  H   UNL     1       4.993   5.370  16.826  0.00  0.00    +0.000 HD
ENDROOT
BRANCH   1   8
ATOM      5  N   UNL     1       6.364   3.945  13.465  0.00  0.00    +0.000 N 
ATOM      6  C   UNL     1       7.330   4.911  13.432  0.00  0.00    +0.000 A 
ATOM      7  N   UNL     1       7.671   5.294  14.642  0.00  0.00    +0.000 NA
ATOM      8  C   UNL     1       6.870   4.553  15.502  0.00  0.00    +0.000 A 
ATOM      9  C   UNL     1       6.052   3.710  14.772  0.00  0.00    +0.000 A 
BRANCH   5  11
ATOM     10  C   UNL     1       6.732   2.437  11.548  0.00  0.00    +0.000 C 
ATOM     11  C   UNL     1       5.754   3.310  12.315  0.00  0.00    +0.000 C 
ENDBRANCH   5  11
ENDBRANCH   1   8
BRANCH   3  12
ATOM     12  C   UNL     1       5.539   5.332  18.902  0.00  0.00    +0.000 C 
BRANCH  12  13
ATOM     13  C   UNL     1       4.285   4.719  19.481  0.00  0.00    +0.000 A 
ATOM     14  C   UNL     1       3.193   5.505  19.888  0.00  0.00    +0.000 A 
ATOM     15  C   UNL     1       2.027   4.907  20.373  0.00  0.00    +0.000 A 
ATOM     16  C   UNL     1       1.940   3.522  20.434  0.00  0.00    +0.000 A 
ATOM     17  F   UNL     1       0.820   2.949  20.893  0.00  0.00    +0.000 F 
ATOM     18  C   UNL     1       2.996   2.723  20.013  0.00  0.00    +0.000 A 
ATOM     19  C   UNL     1       4.164   3.319  19.534  0.00  0.00    +0.000 A 
ENDBRANCH  12  13
ENDBRANCH   3  12
TORSDOF 4
ENDMDL
MODEL 6
REMARK VINA RESULT:      -7.0      1.429      1.590
REMARK  Name = 
REMARK  5 active torsions:
REMARK  status: ('A' for Active; 'I' for Inactive)
REMARK    1  A    between atoms: C_1  and  C_2
REMARK    2  A    between atoms: C_2  and  N_3
REMARK    3  A    between atoms: C_6  and  C_7
REMARK    4  A    between atoms: N_9  and  C_10
REMARK    5  A    between atoms: C_10  and  C_11
REMARK                            x       y       z     vdW  Elec       q    Type
REMARK                         _______ _______ _______ _____ _____    ______ ____
ROOT
ATOM      1  C   UNL     1       5.702   5.800  16.731  0.00  0.00    +0.000 C 
ATOM      2  O   UNL     1       6.450   6.156  17.637  0.00  0.00    +0.000 OA
ATOM      3  N   UNL     1       4.332   5.878  16.793  0.00  0.00    +0.000 N 
ATOM      4  H   UNL     1       3.834   5.690  15.928  0.00  0.00    +0.000 HD
ENDROOT
BRANCH   1   8
ATOM      5  N   UNL     1       6.355   4.117  13.601  0.00  0.00    +0.000 N 
ATOM      6  C   UNL     1       7.460   4.903  13.768  0.00  0.00    +0.000 A 
ATOM      7  N   UNL     1       7.400   5.587  14.889  0.00  0.00    +0.000 NA
ATOM      8  C   UNL     1       6.185   5.241  15.467  0.00  0.00    +0.000 A 
ATOM      9  C   UNL     1       5.528   4.324  14.667  0.00  0.00    +0.000 A 
BRANCH   5  11
ATOM     10  C   UNL     1       4.678   3.400  11.941  0.00  0.00    +0.000 C 
ATOM     11  C   UNL     1       6.091   3.245  12.475  0.00  0.00    +0.000 C 
ENDBRANCH   5  11
ENDBRANCH   1   8
BRANCH   3  12
ATOM     12  C   UNL     1       3.652   6.458  17.924  0.00  0.00    +0.000 C 
BRANCH  12  13
ATOM     13  C   UNL     1       2.801   5.469  18.686  0.00  0.00    +0.000 A 
ATOM     14  C   UNL     1       2.632   4.142  18.252  0.00  0.00    +0.000 A 
ATOM     15  C   UNL     1       1.879   3.237  19.004  0.00  0.00    +0.000 A 
ATOM     16  C   UNL     1       1.310   3.647  20.202  0.00  0.00    +0.000 A 
ATOM     17  F   UNL     1       0.594   2.777  20.927  0.00  0.00    +0.000 F 
ATOM     18  C   UNL     1       1.484   4.945  20.667  0.00  0.00    +0.000 A 
ATOM     19  C   UNL     1       2.231   5.853  19.913  0.00  0.00    +0.000 A 
ENDBRANCH  12  13
ENDBRANCH   3  12
TORSDOF 4
ENDMDL
MODEL 7
REMARK VINA RESULT:      -6.9      1.361      1.671
REMARK  Name = 
REMARK  5 active torsions:
REMARK  status: ('A' for Active; 'I' for Inactive)
REMARK    1  A    between atoms: C_1  and  C_2
REMARK    2  A    between atoms: C_2  and  N_3
REMARK    3  A    between atoms: C_6  and  C_7
REMARK    4  A    between atoms: N_9  and  C_10
REMARK    5  A    between atoms: C_10  and  C_11
REMARK                            x       y       z     vdW  Elec       q    Type
REMARK                         _______ _______ _______ _____ _____    ______ ____
ROOT
ATOM      1  C   UNL     1       5.359   5.862  16.410  0.00  0.00    +0.000 C 
ATOM      2  O   UNL     1       4.798   6.953  16.384  0.00  0.00    +0.000 OA
ATOM      3  N   UNL     1       5.447   5.071  17.529  0.00  0.00    +0.000 N 
ATOM      4  H   UNL     1       5.806   4.132  17.387  0.00  0.00    +0.000 HD
ENDROOT
BRANCH   1   8
ATOM      5  N   UNL     1       6.417   4.119  13.426  0.00  0.00    +0.000 N 
ATOM      6  C   UNL     1       7.518   4.855  13.764  0.00  0.00    +0.000 A 
ATOM      7  N   UNL     1       7.314   5.553  14.860  0.00  0.00    +0.000 NA
ATOM      8  C   UNL     1       6.009   5.269  15.239  0.00  0.00    +0.000 A 
ATOM      9  C   UNL     1       5.443   4.375  14.348  0.00  0.00    +0.000 A 
BRANCH   5  11
ATOM     10  C   UNL     1       4.871   3.187  11.746  0.00  0.00    +0.000 C 
ATOM     11  C   UNL     1       6.294   3.250  12.274  0.00  0.00    +0.000 C 
ENDBRANCH   5  11
ENDBRANCH   1   8
BRANCH   3  12
ATOM     12  C   UNL     1       4.819   5.439  18.774  0.00  0.00    +0.000 C 
BRANCH  12  13
ATOM     13  C   UNL     1       3.544   4.677  19.053  0.00  0.00    +0.000 A 
ATOM     14  C   UNL     1       2.836   4.829  20.258  0.00  0.00    +0.000 A 
ATOM     15  C   UNL     1       1.633   4.148  20.466  0.00  0.00    +0.000 A 
ATOM     16  C   UNL     1       1.124   3.332  19.465  0.00  0.00    +0.000 A 
ATOM     17  F   UNL     1      -0.033   2.685  19.663  0.00  0.00    +0.000 F 
ATOM     18  C   UNL     1       1.791   3.186  18.255  0.00  0.00    +0.000 A 
ATOM     19  C   UNL     1       2.997   3.860  18.048  0.00  0.00    +0.000 A 
ENDBRANCH  12  13
ENDBRANCH   3  12
TORSDOF 4
ENDMDL
MODEL 8
REMARK VINA RESULT:      -6.9      0.975      1.147
REMARK  Name = 
REMARK  5 active torsions:
REMARK  status: ('A' for Active; 'I' for Inactive)
REMARK    1  A    between atoms: C_1  and  C_2
REMARK    2  A    between atoms: C_2  and  N_3
REMARK    3  A    between atoms: C_6  and  C_7
REMARK    4  A    between atoms: N_9  and  C_10
REMARK    5  A    between atoms: C_10  and  C_11
REMARK                            x       y       z     vdW  Elec       q    Type
REMARK                         _______ _______ _______ _____ _____    ______ ____
ROOT
ATOM      1  C   UNL     1       6.820   5.169  15.977  0.00  0.00    +0.000 C 
ATOM      2  O   UNL     1       7.390   6.156  16.432  0.00  0.00    +0.000 OA
ATOM      3  N   UNL     1       6.034   4.325  16.724  0.00  0.00    +0.000 N 
ATOM      4  H   UNL     1       5.502   3.632  16.205  0.00  0.00    +0.000 HD
ENDROOT
BRANCH   1   8
ATOM      5  N   UNL     1       6.606   3.770  12.653  0.00  0.00    +0.000 N 
ATOM      6  C   UNL     1       7.529   4.768  12.512  0.00  0.00    +0.000 A 
ATOM      7  N   UNL     1       7.749   5.386  13.651  0.00  0.00    +0.000 NA
ATOM      8  C   UNL     1       6.912   4.769  14.572  0.00  0.00    +0.000 A 
ATOM      9  C   UNL     1       6.196   3.760  13.954  0.00  0.00    +0.000 A 
BRANCH   5  11
ATOM     10  C   UNL     1       7.145   1.847  11.204  0.00  0.00    +0.000 C 
ATOM     11  C   UNL     1       6.124   2.900  11.600  0.00  0.00    +0.000 C 
ENDBRANCH   5  11
ENDBRANCH   1   8
BRANCH   3  12
ATOM     12  C   UNL     1       5.760   4.573  18.117  0.00  0.00    +0.000 C 
BRANCH  12  13
ATOM     13  C   UNL     1       4.367   4.164  18.539  0.00  0.00    +0.000 A 
ATOM     14  C   UNL     1       4.134   3.397  19.693  0.00  0.00    +0.000 A 
ATOM     15  C   UNL     1       2.831   3.077  20.084  0.00  0.00    +0.000 A 
ATOM     16  C   UNL     1       1.757   3.541  19.336  0.00  0.00    +0.000 A 
ATOM     17  F   UNL     1       0.508   3.240  19.716  0.00  0.00    +0.000 F 
ATOM     18  C   UNL     1       1.960   4.323  18.206  0.00  0.00    +0.000 A 
ATOM     19  C   UNL     1       3.261   4.638  17.810  0.00  0.00    +0.000 A 
ENDBRANCH  12  13
ENDBRANCH   3  12
TORSDOF 4
ENDMDL
MODEL 9
REMARK VINA RESULT:      -6.8      1.499      1.898
REMARK  Name = 
REMARK  5 active torsions:
REMARK  status: ('A' for Active; 'I' for Inactive)
REMARK    1  A    between atoms: C_1  and  C_2
REMARK    2  A    between atoms: C_2  and  N_3
REMARK    3  A    between atoms: C_6  and  C_7
REMARK    4  A    between atoms: N_9  and  C_10
REMARK    5  A    between atoms: C_10  and  C_11
REMARK                            x       y       z     vdW  Elec       q    Type
REMARK                         _______ _______ _______ _____ _____    ______ ____
ROOT
ATOM      1  C   UNL     1       6.855   5.168  15.557  0.00  0.00    +0.000 C 
ATOM      2  O   UNL     1       7.636   4.752  16.408  0.00  0.00    +0.000 OA
ATOM      3  N   UNL     1       5.949   6.177  15.775  0.00  0.00    +0.000 N 
ATOM      4  H   UNL     1       5.463   6.527  14.955  0.00  0.00    +0.000 HD
ENDROOT
BRANCH   1   8
ATOM      5  N   UNL     1       6.273   3.456  12.428  0.00  0.00    +0.000 N 
ATOM      6  C   UNL     1       7.191   4.411  12.094  0.00  0.00    +0.000 A 
ATOM      7  N   UNL     1       7.539   5.132  13.138  0.00  0.00    +0.000 NA
ATOM      8  C   UNL     1       6.793   4.630  14.197  0.00  0.00    +0.000 A 
ATOM      9  C   UNL     1       6.001   3.584  13.760  0.00  0.00    +0.000 A 
BRANCH   5  11
ATOM     10  C   UNL     1       6.630   1.391  11.127  0.00  0.00    +0.000 C 
ATOM     11  C   UNL     1       5.670   2.500  11.523  0.00  0.00    +0.000 C 
ENDBRANCH   5  11
ENDBRANCH   1   8
BRANCH   3  12
ATOM     12  C   UNL     1       5.888   6.888  17.028  0.00  0.00    +0.000 C 
BRANCH  12  13
ATOM     13  C   UNL     1       4.716   6.483  17.892  0.00  0.00    +0.000 A 
ATOM     14  C   UNL     1       4.820   5.471  18.862  0.00  0.00    +0.000 A 
ATOM     15  C   UNL     1       3.733   5.154  19.680  0.00  0.00    +0.000 A 
ATOM     16  C   UNL     1       2.545   5.861  19.547  0.00  0.00    +0.000 A 
ATOM     17  F   UNL     1       1.505   5.561  20.337  0.00  0.00    +0.000 F 
ATOM     18  C   UNL     1       2.424   6.883  18.614  0.00  0.00    +0.000 A 
ATOM     19  C   UNL     1       3.508   7.197  17.792  0.00  0.00    +0.000 A 
ENDBRANCH  12  13
ENDBRANCH   3  12
TORSDOF 4
ENDMDL
