MODEL 1
REMARK VINA RESULT:      -7.0      0.000      0.000
REMARK  Name = 
REMARK  10 active torsions:
REMARK  status: ('A' for Active; 'I' for Inactive)
REMARK    1  A    between atoms: C_1  and  C_2
REMARK    2  A    between atoms: C_2  and  N_3
REMARK    3  A    between atoms: N_3  and  C_4
REMARK    4  A    between atoms: C_4  and  C_5
REMARK    5  A    between atoms: C_5  and  N_6
REMARK    6  A    between atoms: N_9  and  C_10
REMARK    7  A    between atoms: C_10  and  C_11
REMARK    8  A    between atoms: C_11  and  C_12
REMARK    9  A    between atoms: C_12  and  N_13
REMARK   10  A    between atoms: C_24  and  C_25
REMARK                            x       y       z     vdW  Elec       q    Type
REMARK                         _______ _______ _______ _____ _____    ______ ____
ROOT
ATOM      1  N   UNL     1       1.270  11.671  19.569  0.00  0.00    +0.000 N 
ATOM      2  C   UNL     1       0.595  11.143  20.699  0.00  0.00    +0.000 A 
ATOM      3  C   UNL     1       1.086  10.012  21.376  0.00  0.00    +0.000 A 
ATOM      4  C   UNL     1       0.458   9.515  22.519  0.00  0.00    +0.000 A 
ATOM      5  C   UNL     1      -0.680  10.137  23.014  0.00  0.00    +0.000 A 
ATOM      6  C   UNL     1      -1.189  11.259  22.364  0.00  0.00    +0.000 A 
ATOM      7  C   UNL     1      -0.555  11.769  21.223  0.00  0.00    +0.000 A 
ATOM      8  S   UNL     1      -1.294  13.193  20.439  0.00  0.00    +0.000 S 
ATOM      9  C   UNL     1       0.128  13.853  19.585  0.00  0.00    +0.000 A 
ATOM     10  C   UNL     1       0.132  15.230  19.314  0.00  0.00    +0.000 A 
ATOM     11  C   UNL     1       1.223  15.825  18.685  0.00  0.00    +0.000 A 
ATOM     12  C   UNL     1       2.317  15.047  18.301  0.00  0.00    +0.000 A 
ATOM     13  C   UNL     1       2.289  13.660  18.543  0.00  0.00    +0.000 A 
ATOM     14  C   UNL     1       1.209  13.035  19.196  0.00  0.00    +0.000 A 
ENDROOT
BRANCH  12  15
ATOM     15  C   UNL     1       3.541  15.670  17.678  0.00  0.00    +0.000 C 
ATOM     16  F   UNL     1       4.585  14.805  17.540  0.00  0.00    +0.000 F 
ATOM     17  F   UNL     1       3.296  16.154  16.427  0.00  0.00    +0.000 F 
ATOM     18  F   UNL     1       4.018  16.722  18.397  0.00  0.00    +0.000 F 
ENDBRANCH  12  15
BRANCH   1  19
ATOM     19  C   UNL     1       1.854  10.709  18.610  0.00  0.00    +0.000 C 
BRANCH  19  20
ATOM     20  C   UNL     1       0.864   9.607  18.195  0.00  0.00    +0.000 C 
BRANCH  20  21
ATOM     21  C   UNL     1       1.547   8.288  17.814  0.00  0.00    +0.000 C 
BRANCH  21  25
ATOM     22  N   UNL     1       2.988   4.903  18.686  0.00  0.00    +0.000 NA
ATOM     23  C   UNL     1       1.874   5.599  19.361  0.00  0.00    +0.000 C 
ATOM     24  C   UNL     1       2.219   7.032  19.817  0.00  0.00    +0.000 C 
ATOM     25  N   UNL     1       2.650   7.915  18.718  0.00  0.00    +0.000 NA
ATOM     26  C   UNL     1       3.743   7.252  17.968  0.00  0.00    +0.000 C 
ATOM     27  C   UNL     1       3.480   5.770  17.586  0.00  0.00    +0.000 C 
BRANCH  22  28
ATOM     28  C   UNL     1       4.089   4.563  19.615  0.00  0.00    +0.000 C 
BRANCH  28  29
ATOM     29  C   UNL     1       5.466   4.424  18.918  0.00  0.00    +0.000 C 
BRANCH  29  30
ATOM     30  N   UNL     1       6.561   5.174  19.551  0.00  0.00    +0.000 NA
ATOM     31  H   UNL     1       6.172   6.043  19.921  0.00  0.00    +0.000 HD
BRANCH  30  33
ATOM     32  C   UNL     1       7.504   4.636  17.360  0.00  0.00    +0.000 C 
ATOM     33  C   UNL     1       7.632   5.497  18.607  0.00  0.00    +0.000 C 
ENDBRANCH  30  33
ENDBRANCH  29  30
ENDBRANCH  28  29
ENDBRANCH  22  28
ENDBRANCH  21  25
ENDBRANCH  20  21
ENDBRANCH  19  20
ENDBRANCH   1  19
TORSDOF 9
ENDMDL
MODEL 2
REMARK VINA RESULT:      -6.9      1.484      2.288
REMARK  Name = 
REMARK  10 active torsions:
REMARK  status: ('A' for Active; 'I' for Inactive)
REMARK    1  A    between atoms: C_1  and  C_2
REMARK    2  A    between atoms: C_2  and  N_3
REMARK    3  A    between atoms: N_3  and  C_4
REMARK    4  A    between atoms: C_4  and  C_5
REMARK    5  A    between atoms: C_5  and  N_6
REMARK    6  A    between atoms: N_9  and  C_10
REMARK    7  A    between atoms: C_10  and  C_11
REMARK    8  A    between atoms: C_11  and  C_12
REMARK    9  A    between atoms: C_12  and  N_13
REMARK   10  A    between atoms: C_24  and  C_25
REMARK                            x       y       z     vdW  Elec       q    Type
REMARK                         _______ _______ _______ _____ _____    ______ ____
ROOT
ATOM      1  N   UNL     1       1.007  11.227  19.587  0.00  0.00    +0.000 N 
ATOM      2  C   UNL     1       0.466  10.589  20.731  0.00  0.00    +0.000 A 
ATOM      3  C   UNL     1       0.683   9.220  20.973  0.00  0.00    +0.000 A 
ATOM      4  C   UNL     1       0.197   8.595  22.122  0.00  0.00    +0.000 A 
ATOM      5  C   UNL     1      -0.522   9.324  23.060  0.00  0.00    +0.000 A 
ATOM      6  C   UNL     1      -0.753  10.681  22.848  0.00  0.00    +0.000 A 
ATOM      7  C   UNL     1      -0.257  11.316  21.701  0.00  0.00    +0.000 A 
ATOM      8  S   UNL     1      -0.625  13.051  21.497  0.00  0.00    +0.000 S 
ATOM      9  C   UNL     1       0.706  13.529  20.408  0.00  0.00    +0.000 A 
ATOM     10  C   UNL     1       1.115  14.870  20.444  0.00  0.00    +0.000 A 
ATOM     11  C   UNL     1       2.172  15.310  19.652  0.00  0.00    +0.000 A 
ATOM     12  C   UNL     1       2.823  14.417  18.797  0.00  0.00    +0.000 A 
ATOM     13  C   UNL     1       2.382  13.081  18.740  0.00  0.00    +0.000 A 
ATOM     14  C   UNL     1       1.330  12.604  19.545  0.00  0.00    +0.000 A 
ENDROOT
BRANCH  12  15
ATOM     15  C   UNL     1       4.012  14.846  17.975  0.00  0.00    +0.000 C 
ATOM     16  F   UNL     1       3.679  15.350  16.754  0.00  0.00    +0.000 F 
ATOM     17  F   UNL     1       4.743  15.818  18.590  0.00  0.00    +0.000 F 
ATOM     18  F   UNL     1       4.879  13.824  17.735  0.00  0.00    +0.000 F 
ENDBRANCH  12  15
BRANCH   1  19
ATOM     19  C   UNL     1       1.000  10.471  18.316  0.00  0.00    +0.000 C 
BRANCH  19  20
ATOM     20  C   UNL     1       2.334   9.757  18.040  0.00  0.00    +0.000 C 
BRANCH  20  21
ATOM     21  C   UNL     1       2.176   8.256  17.771  0.00  0.00    +0.000 C 
BRANCH  21  25
ATOM     22  N   UNL     1       3.373   4.685  17.435  0.00  0.00    +0.000 NA
ATOM     23  C   UNL     1       2.081   5.146  17.985  0.00  0.00    +0.000 C 
ATOM     24  C   UNL     1       2.221   6.194  19.109  0.00  0.00    +0.000 C 
ATOM     25  N   UNL     1       2.950   7.408  18.696  0.00  0.00    +0.000 NA
ATOM     26  C   UNL     1       4.243   7.012  18.091  0.00  0.00    +0.000 C 
ATOM     27  C   UNL     1       4.160   5.878  17.033  0.00  0.00    +0.000 C 
BRANCH  22  28
ATOM     28  C   UNL     1       4.135   3.856  18.395  0.00  0.00    +0.000 C 
BRANCH  28  29
ATOM     29  C   UNL     1       3.668   2.379  18.445  0.00  0.00    +0.000 C 
BRANCH  29  30
ATOM     30  N   UNL     1       2.634   2.089  19.451  0.00  0.00    +0.000 NA
ATOM     31  H   UNL     1       1.739   2.412  19.081  0.00  0.00    +0.000 HD
BRANCH  30  33
ATOM     32  C   UNL     1       1.651   2.719  21.599  0.00  0.00    +0.000 C 
ATOM     33  C   UNL     1       2.894   2.763  20.724  0.00  0.00    +0.000 C 
ENDBRANCH  30  33
ENDBRANCH  29  30
ENDBRANCH  28  29
ENDBRANCH  22  28
ENDBRANCH  21  25
ENDBRANCH  20  21
ENDBRANCH  19  20
ENDBRANCH   1  19
TORSDOF 9
ENDMDL
MODEL 3
REMARK VINA RESULT:      -6.8      1.000      1.249
REMARK  Name = 
REMARK  10 active torsions:
REMARK  status: ('A' for Active; 'I' for Inactive)
REMARK    1  A    between atoms: C_1  and  C_2
REMARK    2  A    between atoms: C_2  and  N_3
REMARK    3  A    between atoms: N_3  and  C_4
REMARK    4  A    between atoms: C_4  and  C_5
REMARK    5  A    between atoms: C_5  and  N_6
REMARK    6  A    between atoms: N_9  and  C_10
REMARK    7  A    between atoms: C_10  and  C_11
REMARK    8  A    between atoms: C_11  and  C_12
REMARK    9  A    between atoms: C_12  and  N_13
REMARK   10  A    between atoms: C_24  and  C_25
REMARK                            x       y       z     vdW  Elec       q    Type
REMARK                         _______ _______ _______ _____ _____    ______ ____
ROOT
ATOM      1  N   UNL     1       0.872  11.319  19.643  0.00  0.00    +0.000 N 
ATOM      2  C   UNL     1       0.353  10.674  20.794  0.00  0.00    +0.000 A 
ATOM      3  C   UNL     1       0.525   9.292  20.993  0.00  0.00    +0.000 A 
ATOM      4  C   UNL     1       0.063   8.657  22.146  0.00  0.00    +0.000 A 
ATOM      5  C   UNL     1      -0.586   9.389  23.131  0.00  0.00    +0.000 A 
ATOM      6  C   UNL     1      -0.771  10.759  22.962  0.00  0.00    +0.000 A 
ATOM      7  C   UNL     1      -0.298  11.403  21.811  0.00  0.00    +0.000 A 
ATOM      8  S   UNL     1      -0.604  13.156  21.665  0.00  0.00    +0.000 S 
ATOM      9  C   UNL     1       0.699  13.609  20.532  0.00  0.00    +0.000 A 
ATOM     10  C   UNL     1       1.163  14.932  20.582  0.00  0.00    +0.000 A 
ATOM     11  C   UNL     1       2.203  15.350  19.756  0.00  0.00    +0.000 A 
ATOM     12  C   UNL     1       2.781  14.455  18.854  0.00  0.00    +0.000 A 
ATOM     13  C   UNL     1       2.284  13.139  18.783  0.00  0.00    +0.000 A 
ATOM     14  C   UNL     1       1.248  12.683  19.621  0.00  0.00    +0.000 A 
ENDROOT
BRANCH  12  15
ATOM     15  C   UNL     1       3.951  14.857  17.992  0.00  0.00    +0.000 C 
ATOM     16  F   UNL     1       3.588  15.395  16.794  0.00  0.00    +0.000 F 
ATOM     17  F   UNL     1       4.740  15.792  18.593  0.00  0.00    +0.000 F 
ATOM     18  F   UNL     1       4.771  13.811  17.700  0.00  0.00    +0.000 F 
ENDBRANCH  12  15
BRANCH   1  19
ATOM     19  C   UNL     1       0.782  10.597  18.356  0.00  0.00    +0.000 C 
BRANCH  19  20
ATOM     20  C   UNL     1       2.088   9.874  17.986  0.00  0.00    +0.000 C 
BRANCH  20  21
ATOM     21  C   UNL     1       1.929   8.354  17.867  0.00  0.00    +0.000 C 
BRANCH  21  25
ATOM     22  N   UNL     1       3.569   4.976  17.421  0.00  0.00    +0.000 NA
ATOM     23  C   UNL     1       2.245   5.254  18.016  0.00  0.00    +0.000 C 
ATOM     24  C   UNL     1       2.281   6.292  19.158  0.00  0.00    +0.000 C 
ATOM     25  N   UNL     1       2.833   7.597  18.753  0.00  0.00    +0.000 NA
ATOM     26  C   UNL     1       4.148   7.385  18.104  0.00  0.00    +0.000 C 
ATOM     27  C   UNL     1       4.182   6.269  17.024  0.00  0.00    +0.000 C 
BRANCH  22  28
ATOM     28  C   UNL     1       4.460   4.237  18.343  0.00  0.00    +0.000 C 
BRANCH  28  29
ATOM     29  C   UNL     1       5.960   4.579  18.160  0.00  0.00    +0.000 C 
BRANCH  29  30
ATOM     30  N   UNL     1       6.683   4.884  19.405  0.00  0.00    +0.000 NA
ATOM     31  H   UNL     1       6.018   5.300  20.059  0.00  0.00    +0.000 HD
BRANCH  30  33
ATOM     32  C   UNL     1       7.648   6.486  17.830  0.00  0.00    +0.000 C 
ATOM     33  C   UNL     1       7.787   5.821  19.190  0.00  0.00    +0.000 C 
ENDBRANCH  30  33
ENDBRANCH  29  30
ENDBRANCH  28  29
ENDBRANCH  22  28
ENDBRANCH  21  25
ENDBRANCH  20  21
ENDBRANCH  19  20
ENDBRANCH   1  19
TORSDOF 9
ENDMDL
MODEL 4
REMARK VINA RESULT:      -6.8      1.122      1.683
REMARK  Name = 
REMARK  10 active torsions:
REMARK  status: ('A' for Active; 'I' for Inactive)
REMARK    1  A    between atoms: C_1  and  C_2
REMARK    2  A    between atoms: C_2  and  N_3
REMARK    3  A    between atoms: N_3  and  C_4
REMARK    4  A    between atoms: C_4  and  C_5
REMARK    5  A    between atoms: C_5  and  N_6
REMARK    6  A    between atoms: N_9  and  C_10
REMARK    7  A    between atoms: C_10  and  C_11
REMARK    8  A    between atoms: C_11  and  C_12
REMARK    9  A    between atoms: C_12  and  N_13
REMARK   10  A    between atoms: C_24  and  C_25
REMARK                            x       y       z     vdW  Elec       q    Type
REMARK                         _______ _______ _______ _____ _____    ______ ____
ROOT
ATOM      1  N   UNL     1       1.212  11.765  19.614  0.00  0.00    +0.000 N 
ATOM      2  C   UNL     1       0.547  11.218  20.740  0.00  0.00    +0.000 A 
ATOM      3  C   UNL     1       1.033  10.067  21.385  0.00  0.00    +0.000 A 
ATOM      4  C   UNL     1       0.413   9.551  22.524  0.00  0.00    +0.000 A 
ATOM      5  C   UNL     1      -0.711  10.175  23.048  0.00  0.00    +0.000 A 
ATOM      6  C   UNL     1      -1.215  11.317  22.431  0.00  0.00    +0.000 A 
ATOM      7  C   UNL     1      -0.590  11.845  21.293  0.00  0.00    +0.000 A 
ATOM      8  S   UNL     1      -1.321  13.295  20.551  0.00  0.00    +0.000 S 
ATOM      9  C   UNL     1       0.097  13.958  19.694  0.00  0.00    +0.000 A 
ATOM     10  C   UNL     1       0.114  15.341  19.453  0.00  0.00    +0.000 A 
ATOM     11  C   UNL     1       1.203  15.937  18.824  0.00  0.00    +0.000 A 
ATOM     12  C   UNL     1       2.283  15.156  18.409  0.00  0.00    +0.000 A 
ATOM     13  C   UNL     1       2.242  13.764  18.620  0.00  0.00    +0.000 A 
ATOM     14  C   UNL     1       1.163  13.137  19.272  0.00  0.00    +0.000 A 
ENDROOT
BRANCH  12  15
ATOM     15  C   UNL     1       3.506  15.779  17.784  0.00  0.00    +0.000 C 
ATOM     16  F   UNL     1       4.665  15.128  18.083  0.00  0.00    +0.000 F 
ATOM     17  F   UNL     1       3.437  15.803  16.423  0.00  0.00    +0.000 F 
ATOM     18  F   UNL     1       3.691  17.071  18.170  0.00  0.00    +0.000 F 
ENDBRANCH  12  15
BRANCH   1  19
ATOM     19  C   UNL     1       1.773  10.817  18.626  0.00  0.00    +0.000 C 
BRANCH  19  20
ATOM     20  C   UNL     1       0.775   9.719  18.222  0.00  0.00    +0.000 C 
BRANCH  20  21
ATOM     21  C   UNL     1       1.449   8.394  17.845  0.00  0.00    +0.000 C 
BRANCH  21  25
ATOM     22  N   UNL     1       3.255   5.117  18.388  0.00  0.00    +0.000 NA
ATOM     23  C   UNL     1       2.093   5.631  19.141  0.00  0.00    +0.000 C 
ATOM     24  C   UNL     1       2.301   7.048  19.717  0.00  0.00    +0.000 C 
ATOM     25  N   UNL     1       2.609   8.062  18.692  0.00  0.00    +0.000 NA
ATOM     26  C   UNL     1       3.744   7.586  17.867  0.00  0.00    +0.000 C 
ATOM     27  C   UNL     1       3.625   6.122  17.360  0.00  0.00    +0.000 C 
BRANCH  22  28
ATOM     28  C   UNL     1       4.410   4.816  19.263  0.00  0.00    +0.000 C 
BRANCH  28  29
ATOM     29  C   UNL     1       4.756   3.307  19.334  0.00  0.00    +0.000 C 
BRANCH  29  30
ATOM     30  N   UNL     1       4.357   2.523  18.155  0.00  0.00    +0.000 NA
ATOM     31  H   UNL     1       3.853   3.145  17.521  0.00  0.00    +0.000 HD
BRANCH  30  33
ATOM     32  C   UNL     1       2.162   1.909  19.040  0.00  0.00    +0.000 C 
ATOM     33  C   UNL     1       3.489   1.397  18.504  0.00  0.00    +0.000 C 
ENDBRANCH  30  33
ENDBRANCH  29  30
ENDBRANCH  28  29
ENDBRANCH  22  28
ENDBRANCH  21  25
ENDBRANCH  20  21
ENDBRANCH  19  20
ENDBRANCH   1  19
TORSDOF 9
ENDMDL
MODEL 5
REMARK VINA RESULT:      -6.7      5.104     10.081
REMARK  Name = 
REMARK  10 active torsions:
REMARK  status: ('A' for Active; 'I' for Inactive)
REMARK    1  A    between atoms: C_1  and  C_2
REMARK    2  A    between atoms: C_2  and  N_3
REMARK    3  A    between atoms: N_3  and  C_4
REMARK    4  A    between atoms: C_4  and  C_5
REMARK    5  A    between atoms: C_5  and  N_6
REMARK    6  A    between atoms: N_9  and  C_10
REMARK    7  A    between atoms: C_10  and  C_11
REMARK    8  A    between atoms: C_11  and  C_12
REMARK    9  A    between atoms: C_12  and  N_13
REMARK   10  A    between atoms: C_24  and  C_25
REMARK                            x       y       z     vdW  Elec       q    Type
REMARK                         _______ _______ _______ _____ _____    ______ ____
ROOT
ATOM      1  N   UNL     1       3.851   6.229  17.715  0.00  0.00    +0.000 N 
ATOM      2  C   UNL     1       5.199   6.538  17.403  0.00  0.00    +0.000 A 
ATOM      3  C   UNL     1       5.790   7.739  17.837  0.00  0.00    +0.000 A 
ATOM      4  C   UNL     1       7.130   8.028  17.579  0.00  0.00    +0.000 A 
ATOM      5  C   UNL     1       7.915   7.124  16.876  0.00  0.00    +0.000 A 
ATOM      6  C   UNL     1       7.357   5.927  16.433  0.00  0.00    +0.000 A 
ATOM      7  C   UNL     1       6.015   5.626  16.700  0.00  0.00    +0.000 A 
ATOM      8  S   UNL     1       5.377   4.083  16.069  0.00  0.00    +0.000 S 
ATOM      9  C   UNL     1       4.008   3.829  17.187  0.00  0.00    +0.000 A 
ATOM     10  C   UNL     1       3.592   2.507  17.403  0.00  0.00    +0.000 A 
ATOM     11  C   UNL     1       2.557   2.226  18.290  0.00  0.00    +0.000 A 
ATOM     12  C   UNL     1       1.909   3.267  18.959  0.00  0.00    +0.000 A 
ATOM     13  C   UNL     1       2.307   4.594  18.708  0.00  0.00    +0.000 A 
ATOM     14  C   UNL     1       3.365   4.905  17.833  0.00  0.00    +0.000 A 
ENDROOT
BRANCH  12  15
ATOM     15  C   UNL     1       0.828   2.992  19.974  0.00  0.00    +0.000 C 
ATOM     16  F   UNL     1       1.259   2.278  21.052  0.00  0.00    +0.000 F 
ATOM     17  F   UNL     1       0.291   4.137  20.481  0.00  0.00    +0.000 F 
ATOM     18  F   UNL     1      -0.215   2.291  19.452  0.00  0.00    +0.000 F 
ENDBRANCH  12  15
BRANCH   1  19
ATOM     19  C   UNL     1       2.869   7.334  17.670  0.00  0.00    +0.000 C 
BRANCH  19  20
ATOM     20  C   UNL     1       2.334   7.712  19.061  0.00  0.00    +0.000 C 
BRANCH  20  21
ATOM     21  C   UNL     1       1.626   9.072  19.091  0.00  0.00    +0.000 C 
BRANCH  21  25
ATOM     22  N   UNL     1       0.533  10.709  22.320  0.00  0.00    +0.000 NA
ATOM     23  C   UNL     1       1.154   9.378  22.159  0.00  0.00    +0.000 C 
ATOM     24  C   UNL     1       0.424   8.468  21.148  0.00  0.00    +0.000 C 
ATOM     25  N   UNL     1       0.331   9.045  19.795  0.00  0.00    +0.000 NA
ATOM     26  C   UNL     1      -0.246  10.407  19.889  0.00  0.00    +0.000 C 
ATOM     27  C   UNL     1       0.388  11.320  20.974  0.00  0.00    +0.000 C 
BRANCH  22  28
ATOM     28  C   UNL     1      -0.775  10.646  23.008  0.00  0.00    +0.000 C 
BRANCH  28  29
ATOM     29  C   UNL     1      -1.600  11.952  22.892  0.00  0.00    +0.000 C 
BRANCH  29  30
ATOM     30  N   UNL     1      -3.033  11.810  23.190  0.00  0.00    +0.000 NA
ATOM     31  H   UNL     1      -3.537  11.781  22.302  0.00  0.00    +0.000 HD
BRANCH  30  33
ATOM     32  C   UNL     1      -4.637  12.429  24.930  0.00  0.00    +0.000 C 
ATOM     33  C   UNL     1      -3.546  12.922  23.991  0.00  0.00    +0.000 C 
ENDBRANCH  30  33
ENDBRANCH  29  30
ENDBRANCH  28  29
ENDBRANCH  22  28
ENDBRANCH  21  25
ENDBRANCH  20  21
ENDBRANCH  19  20
ENDBRANCH   1  19
TORSDOF 9
ENDMDL
MODEL 6
REMARK VINA RESULT:      -6.7      5.255      7.154
REMARK  Name = 
REMARK  10 active torsions:
REMARK  status: ('A' for Active; 'I' for Inactive)
REMARK    1  A    between atoms: C_1  and  C_2
REMARK    2  A    between atoms: C_2  and  N_3
REMARK    3  A    between atoms: N_3  and  C_4
REMARK    4  A    between atoms: C_4  and  C_5
REMARK    5  A    between atoms: C_5  and  N_6
REMARK    6  A    between atoms: N_9  and  C_10
REMARK    7  A    between atoms: C_10  and  C_11
REMARK    8  A    between atoms: C_11  and  C_12
REMARK    9  A    between atoms: C_12  and  N_13
REMARK   10  A    between atoms: C_24  and  C_25
REMARK                            x       y       z     vdW  Elec       q    Type
REMARK                         _______ _______ _______ _____ _____    ______ ____
ROOT
ATOM      1  N   UNL     1      -3.422  12.409  19.669  0.00  0.00    +0.000 N 
ATOM      2  C   UNL     1      -3.176  11.635  18.507  0.00  0.00    +0.000 A 
ATOM      3  C   UNL     1      -1.927  11.024  18.291  0.00  0.00    +0.000 A 
ATOM      4  C   UNL     1      -1.692  10.219  17.176  0.00  0.00    +0.000 A 
ATOM      5  C   UNL     1      -2.700  10.005  16.246  0.00  0.00    +0.000 A 
ATOM      6  C   UNL     1      -3.947  10.597  16.434  0.00  0.00    +0.000 A 
ATOM      7  C   UNL     1      -4.192  11.397  17.558  0.00  0.00    +0.000 A 
ATOM      8  S   UNL     1      -5.810  12.138  17.702  0.00  0.00    +0.000 S 
ATOM      9  C   UNL     1      -5.876  12.405  19.466  0.00  0.00    +0.000 A 
ATOM     10  C   UNL     1      -7.146  12.446  20.062  0.00  0.00    +0.000 A 
ATOM     11  C   UNL     1      -7.277  12.611  21.438  0.00  0.00    +0.000 A 
ATOM     12  C   UNL     1      -6.140  12.758  22.236  0.00  0.00    +0.000 A 
ATOM     13  C   UNL     1      -4.871  12.754  21.625  0.00  0.00    +0.000 A 
ATOM     14  C   UNL     1      -4.708  12.567  20.239  0.00  0.00    +0.000 A 
ENDROOT
BRANCH  12  15
ATOM     15  C   UNL     1      -6.245  12.875  23.735  0.00  0.00    +0.000 C 
ATOM     16  F   UNL     1      -6.581  14.123  24.165  0.00  0.00    +0.000 F 
ATOM     17  F   UNL     1      -7.188  12.039  24.255  0.00  0.00    +0.000 F 
ATOM     18  F   UNL     1      -5.081  12.561  24.368  0.00  0.00    +0.000 F 
ENDBRANCH  12  15
BRANCH   1  19
ATOM     19  C   UNL     1      -2.330  13.281  20.153  0.00  0.00    +0.000 C 
BRANCH  19  20
ATOM     20  C   UNL     1      -1.062  12.495  20.525  0.00  0.00    +0.000 C 
BRANCH  20  21
ATOM     21  C   UNL     1      -1.214  11.664  21.804  0.00  0.00    +0.000 C 
BRANCH  21  25
ATOM     22  N   UNL     1       0.406   8.433  20.694  0.00  0.00    +0.000 NA
ATOM     23  C   UNL     1      -0.582   8.610  21.779  0.00  0.00    +0.000 C 
ATOM     24  C   UNL     1      -0.181   9.678  22.818  0.00  0.00    +0.000 C 
ATOM     25  N   UNL     1       0.036  11.015  22.237  0.00  0.00    +0.000 NA
ATOM     26  C   UNL     1       0.989  10.902  21.108  0.00  0.00    +0.000 C 
ATOM     27  C   UNL     1       0.683   9.763  20.096  0.00  0.00    +0.000 C 
BRANCH  22  28
ATOM     28  C   UNL     1       1.659   7.801  21.165  0.00  0.00    +0.000 C 
BRANCH  28  29
ATOM     29  C   UNL     1       2.079   6.565  20.331  0.00  0.00    +0.000 C 
BRANCH  29  30
ATOM     30  N   UNL     1       2.325   5.343  21.113  0.00  0.00    +0.000 NA
ATOM     31  H   UNL     1       3.284   5.381  21.461  0.00  0.00    +0.000 HD
BRANCH  30  33
ATOM     32  C   UNL     1       1.329   3.110  21.081  0.00  0.00    +0.000 C 
ATOM     33  C   UNL     1       2.157   4.129  20.313  0.00  0.00    +0.000 C 
ENDBRANCH  30  33
ENDBRANCH  29  30
ENDBRANCH  28  29
ENDBRANCH  22  28
ENDBRANCH  21  25
ENDBRANCH  20  21
ENDBRANCH  19  20
ENDBRANCH   1  19
TORSDOF 9
ENDMDL
MODEL 7
REMARK VINA RESULT:      -6.5      0.917      1.176
REMARK  Name = 
REMARK  10 active torsions:
REMARK  status: ('A' for Active; 'I' for Inactive)
REMARK    1  A    between atoms: C_1  and  C_2
REMARK    2  A    between atoms: C_2  and  N_3
REMARK    3  A    between atoms: N_3  and  C_4
REMARK    4  A    between atoms: C_4  and  C_5
REMARK    5  A    between atoms: C_5  and  N_6
REMARK    6  A    between atoms: N_9  and  C_10
REMARK    7  A    between atoms: C_10  and  C_11
REMARK    8  A    between atoms: C_11  and  C_12
REMARK    9  A    between atoms: C_12  and  N_13
REMARK   10  A    between atoms: C_24  and  C_25
REMARK                            x       y       z     vdW  Elec       q    Type
REMARK                         _______ _______ _______ _____ _____    ______ ____
ROOT
ATOM      1  N   UNL     1       0.799  11.441  19.662  0.00  0.00    +0.000 N 
ATOM      2  C   UNL     1       0.261  10.833  20.825  0.00  0.00    +0.000 A 
ATOM      3  C   UNL     1       0.419   9.457  21.066  0.00  0.00    +0.000 A 
ATOM      4  C   UNL     1      -0.063   8.860  22.232  0.00  0.00    +0.000 A 
ATOM      5  C   UNL     1      -0.718   9.625  23.187  0.00  0.00    +0.000 A 
ATOM      6  C   UNL     1      -0.890  10.991  22.975  0.00  0.00    +0.000 A 
ATOM      7  C   UNL     1      -0.398  11.598  21.812  0.00  0.00    +0.000 A 
ATOM      8  S   UNL     1      -0.688  13.348  21.611  0.00  0.00    +0.000 S 
ATOM      9  C   UNL     1       0.633  13.757  20.481  0.00  0.00    +0.000 A 
ATOM     10  C   UNL     1       1.107  15.078  20.499  0.00  0.00    +0.000 A 
ATOM     11  C   UNL     1       2.160  15.463  19.674  0.00  0.00    +0.000 A 
ATOM     12  C   UNL     1       2.742  14.537  18.805  0.00  0.00    +0.000 A 
ATOM     13  C   UNL     1       2.236  13.224  18.767  0.00  0.00    +0.000 A 
ATOM     14  C   UNL     1       1.186  12.801  19.605  0.00  0.00    +0.000 A 
ENDROOT
BRANCH  12  15
ATOM     15  C   UNL     1       3.926  14.905  17.947  0.00  0.00    +0.000 C 
ATOM     16  F   UNL     1       4.737  15.845  18.508  0.00  0.00    +0.000 F 
ATOM     17  F   UNL     1       4.728  13.835  17.685  0.00  0.00    +0.000 F 
ATOM     18  F   UNL     1       3.560  15.402  16.734  0.00  0.00    +0.000 F 
ENDBRANCH  12  15
BRANCH   1  19
ATOM     19  C   UNL     1       0.718  10.682  18.395  0.00  0.00    +0.000 C 
BRANCH  19  20
ATOM     20  C   UNL     1       2.031   9.960  18.050  0.00  0.00    +0.000 C 
BRANCH  20  21
ATOM     21  C   UNL     1       1.895   8.433  18.015  0.00  0.00    +0.000 C 
BRANCH  21  25
ATOM     22  N   UNL     1       2.324   4.797  18.960  0.00  0.00    +0.000 NA
ATOM     23  C   UNL     1       1.760   5.877  19.796  0.00  0.00    +0.000 C 
ATOM     24  C   UNL     1       2.681   7.108  19.930  0.00  0.00    +0.000 C 
ATOM     25  N   UNL     1       3.029   7.727  18.638  0.00  0.00    +0.000 NA
ATOM     26  C   UNL     1       3.562   6.684  17.731  0.00  0.00    +0.000 C 
ATOM     27  C   UNL     1       2.721   5.380  17.653  0.00  0.00    +0.000 C 
BRANCH  22  28
ATOM     28  C   UNL     1       3.475   4.124  19.603  0.00  0.00    +0.000 C 
BRANCH  28  29
ATOM     29  C   UNL     1       4.485   3.526  18.592  0.00  0.00    +0.000 C 
BRANCH  29  30
ATOM     30  N   UNL     1       5.901   3.747  18.925  0.00  0.00    +0.000 NA
ATOM     31  H   UNL     1       5.940   4.206  19.836  0.00  0.00    +0.000 HD
BRANCH  30  33
ATOM     32  C   UNL     1       7.298   5.732  18.635  0.00  0.00    +0.000 C 
ATOM     33  C   UNL     1       6.578   4.589  17.938  0.00  0.00    +0.000 C 
ENDBRANCH  30  33
ENDBRANCH  29  30
ENDBRANCH  28  29
ENDBRANCH  22  28
ENDBRANCH  21  25
ENDBRANCH  20  21
ENDBRANCH  19  20
ENDBRANCH   1  19
TORSDOF 9
ENDMDL
MODEL 8
REMARK VINA RESULT:      -6.5      4.936      9.956
REMARK  Name = 
REMARK  10 active torsions:
REMARK  status: ('A' for Active; 'I' for Inactive)
REMARK    1  A    between atoms: C_1  and  C_2
REMARK    2  A    between atoms: C_2  and  N_3
REMARK    3  A    between atoms: N_3  and  C_4
REMARK    4  A    between atoms: C_4  and  C_5
REMARK    5  A    between atoms: C_5  and  N_6
REMARK    6  A    between atoms: N_9  and  C_10
REMARK    7  A    between atoms: C_10  and  C_11
REMARK    8  A    between atoms: C_11  and  C_12
REMARK    9  A    between atoms: C_12  and  N_13
REMARK   10  A    between atoms: C_24  and  C_25
REMARK                            x       y       z     vdW  Elec       q    Type
REMARK                         _______ _______ _______ _____ _____    ______ ____
ROOT
ATOM      1  N   UNL     1       3.834   6.264  17.587  0.00  0.00    +0.000 N 
ATOM      2  C   UNL     1       5.186   6.618  17.349  0.00  0.00    +0.000 A 
ATOM      3  C   UNL     1       5.681   7.884  17.711  0.00  0.00    +0.000 A 
ATOM      4  C   UNL     1       7.022   8.223  17.527  0.00  0.00    +0.000 A 
ATOM      5  C   UNL     1       7.903   7.304  16.974  0.00  0.00    +0.000 A 
ATOM      6  C   UNL     1       7.442   6.043  16.606  0.00  0.00    +0.000 A 
ATOM      7  C   UNL     1       6.098   5.693  16.799  0.00  0.00    +0.000 A 
ATOM      8  S   UNL     1       5.588   4.065  16.272  0.00  0.00    +0.000 S 
ATOM      9  C   UNL     1       4.148   3.838  17.303  0.00  0.00    +0.000 A 
ATOM     10  C   UNL     1       3.781   2.520  17.612  0.00  0.00    +0.000 A 
ATOM     11  C   UNL     1       2.693   2.264  18.442  0.00  0.00    +0.000 A 
ATOM     12  C   UNL     1       1.944   3.323  18.959  0.00  0.00    +0.000 A 
ATOM     13  C   UNL     1       2.297   4.642  18.613  0.00  0.00    +0.000 A 
ATOM     14  C   UNL     1       3.405   4.931  17.794  0.00  0.00    +0.000 A 
ENDROOT
BRANCH  12  15
ATOM     15  C   UNL     1       0.801   3.083  19.912  0.00  0.00    +0.000 C 
ATOM     16  F   UNL     1      -0.238   2.397  19.357  0.00  0.00    +0.000 F 
ATOM     17  F   UNL     1       1.179   2.360  21.003  0.00  0.00    +0.000 F 
ATOM     18  F   UNL     1       0.270   4.239  20.397  0.00  0.00    +0.000 F 
ENDBRANCH  12  15
BRANCH   1  19
ATOM     19  C   UNL     1       2.806   7.304  17.364  0.00  0.00    +0.000 C 
BRANCH  19  20
ATOM     20  C   UNL     1       2.395   8.022  18.661  0.00  0.00    +0.000 C 
BRANCH  20  21
ATOM     21  C   UNL     1       1.647   9.338  18.415  0.00  0.00    +0.000 C 
BRANCH  21  25
ATOM     22  N   UNL     1       0.095  12.500  19.789  0.00  0.00    +0.000 NA
ATOM     23  C   UNL     1       1.188  11.709  20.389  0.00  0.00    +0.000 C 
ATOM     24  C   UNL     1       0.849  10.214  20.569  0.00  0.00    +0.000 C 
ATOM     25  N   UNL     1       0.493   9.534  19.310  0.00  0.00    +0.000 NA
ATOM     26  C   UNL     1      -0.575  10.306  18.631  0.00  0.00    +0.000 C 
ATOM     27  C   UNL     1      -0.324  11.835  18.529  0.00  0.00    +0.000 C 
BRANCH  22  28
ATOM     28  C   UNL     1      -1.059  12.660  20.703  0.00  0.00    +0.000 C 
BRANCH  28  29
ATOM     29  C   UNL     1      -0.710  13.406  22.015  0.00  0.00    +0.000 C 
BRANCH  29  30
ATOM     30  N   UNL     1      -1.005  12.662  23.249  0.00  0.00    +0.000 NA
ATOM     31  H   UNL     1      -0.179  12.109  23.486  0.00  0.00    +0.000 HD
BRANCH  30  33
ATOM     32  C   UNL     1      -3.396  12.402  23.689  0.00  0.00    +0.000 C 
ATOM     33  C   UNL     1      -2.150  11.764  23.095  0.00  0.00    +0.000 C 
ENDBRANCH  30  33
ENDBRANCH  29  30
ENDBRANCH  28  29
ENDBRANCH  22  28
ENDBRANCH  21  25
ENDBRANCH  20  21
ENDBRANCH  19  20
ENDBRANCH   1  19
TORSDOF 9
ENDMDL
MODEL 9
REMARK VINA RESULT:      -6.5      5.103     10.090
REMARK  Name = 
REMARK  10 active torsions:
REMARK  status: ('A' for Active; 'I' for Inactive)
REMARK    1  A    between atoms: C_1  and  C_2
REMARK    2  A    between atoms: C_2  and  N_3
REMARK    3  A    between atoms: N_3  and  C_4
REMARK    4  A    between atoms: C_4  and  C_5
REMARK    5  A    between atoms: C_5  and  N_6
REMARK    6  A    between atoms: N_9  and  C_10
REMARK    7  A    between atoms: C_10  and  C_11
REMARK    8  A    between atoms: C_11  and  C_12
REMARK    9  A    between atoms: C_12  and  N_13
REMARK   10  A    between atoms: C_24  and  C_25
REMARK                            x       y       z     vdW  Elec       q    Type
REMARK                         _______ _______ _______ _____ _____    ______ ____
ROOT
ATOM      1  N   UNL     1       4.358   5.354  18.040  0.00  0.00    +0.000 N 
ATOM      2  C   UNL     1       5.283   5.253  16.970  0.00  0.00    +0.000 A 
ATOM      3  C   UNL     1       6.475   5.999  16.967  0.00  0.00    +0.000 A 
ATOM      4  C   UNL     1       7.415   5.869  15.944  0.00  0.00    +0.000 A 
ATOM      5  C   UNL     1       7.186   4.989  14.895  0.00  0.00    +0.000 A 
ATOM      6  C   UNL     1       6.014   4.237  14.872  0.00  0.00    +0.000 A 
ATOM      7  C   UNL     1       5.072   4.355  15.902  0.00  0.00    +0.000 A 
ATOM      8  S   UNL     1       3.586   3.374  15.775  0.00  0.00    +0.000 S 
ATOM      9  C   UNL     1       3.109   3.303  17.494  0.00  0.00    +0.000 A 
ATOM     10  C   UNL     1       2.341   2.202  17.902  0.00  0.00    +0.000 A 
ATOM     11  C   UNL     1       1.963   2.056  19.234  0.00  0.00    +0.000 A 
ATOM     12  C   UNL     1       2.332   3.021  20.174  0.00  0.00    +0.000 A 
ATOM     13  C   UNL     1       3.071   4.142  19.749  0.00  0.00    +0.000 A 
ATOM     14  C   UNL     1       3.485   4.304  18.413  0.00  0.00    +0.000 A 
ENDROOT
BRANCH  12  15
ATOM     15  C   UNL     1       1.995   2.861  21.635  0.00  0.00    +0.000 C 
ATOM     16  F   UNL     1       2.614   1.801  22.226  0.00  0.00    +0.000 F 
ATOM     17  F   UNL     1       2.348   3.952  22.371  0.00  0.00    +0.000 F 
ATOM     18  F   UNL     1       0.663   2.683  21.849  0.00  0.00    +0.000 F 
ENDBRANCH  12  15
BRANCH   1  19
ATOM     19  C   UNL     1       4.130   6.694  18.622  0.00  0.00    +0.000 C 
BRANCH  19  20
ATOM     20  C   UNL     1       3.256   7.590  17.728  0.00  0.00    +0.000 C 
BRANCH  20  21
ATOM     21  C   UNL     1       2.260   8.449  18.517  0.00  0.00    +0.000 C 
BRANCH  21  25
ATOM     22  N   UNL     1       0.196  11.460  19.503  0.00  0.00    +0.000 NA
ATOM     23  C   UNL     1      -0.284  10.079  19.290  0.00  0.00    +0.000 C 
ATOM     24  C   UNL     1       0.112   9.485  17.922  0.00  0.00    +0.000 C 
ATOM     25  N   UNL     1       1.568   9.455  17.691  0.00  0.00    +0.000 NA
ATOM     26  C   UNL     1       2.123  10.807  17.933  0.00  0.00    +0.000 C 
ATOM     27  C   UNL     1       1.659  11.488  19.250  0.00  0.00    +0.000 C 
BRANCH  22  28
ATOM     28  C   UNL     1      -0.501  12.442  18.643  0.00  0.00    +0.000 C 
BRANCH  28  29
ATOM     29  C   UNL     1      -1.873  11.945  18.123  0.00  0.00    +0.000 C 
BRANCH  29  30
ATOM     30  N   UNL     1      -2.017  11.938  16.659  0.00  0.00    +0.000 NA
ATOM     31  H   UNL     1      -2.439  12.825  16.382  0.00  0.00    +0.000 HD
BRANCH  30  33
ATOM     32  C   UNL     1      -3.527  10.151  17.373  0.00  0.00    +0.000 C 
ATOM     33  C   UNL     1      -2.864  10.840  16.190  0.00  0.00    +0.000 C 
ENDBRANCH  30  33
ENDBRANCH  29  30
ENDBRANCH  28  29
ENDBRANCH  22  28
ENDBRANCH  21  25
ENDBRANCH  20  21
ENDBRANCH  19  20
ENDBRANCH   1  19
TORSDOF 9
ENDMDL
