MODEL 1
REMARK VINA RESULT:      -8.0      0.000      0.000
REMARK  Name = 
REMARK  5 active torsions:
REMARK  status: ('A' for Active; 'I' for Inactive)
REMARK    1  A    between atoms: C_2  and  C_16
REMARK    2  A    between atoms: N_3  and  C_4
REMARK    3  A    between atoms: C_9  and  N_10
REMARK    4  A    between atoms: N_19  and  S_20
REMARK    5  A    between atoms: S_20  and  C_23
REMARK                            x       y       z     vdW  Elec       q    Type
REMARK                         _______ _______ _______ _____ _____    ______ ____
ROOT
ATOM      1  O   UNL     1       2.111   8.322  19.947  0.00  0.00    +0.000 OA
ATOM      2  C   UNL     1       1.995   8.178  18.734  0.00  0.00    +0.000 C 
ATOM      3  N   UNL     1       2.378   7.054  18.026  0.00  0.00    +0.000 N 
ATOM      4  H   UNL     1       2.174   7.038  17.049  0.00  0.00    +0.000 HD
ENDROOT
BRANCH   3   5
ATOM      5  C   UNL     1       2.798   5.836  18.610  0.00  0.00    +0.000 A 
ATOM      6  C   UNL     1       1.928   5.254  19.551  0.00  0.00    +0.000 A 
ATOM      7  C   UNL     1       2.269   4.080  20.215  0.00  0.00    +0.000 A 
ATOM      8  C   UNL     1       3.460   3.448  19.907  0.00  0.00    +0.000 A 
ATOM      9  C   UNL     1       4.324   4.012  18.962  0.00  0.00    +0.000 A 
ATOM     10  C   UNL     1       4.053   5.233  18.301  0.00  0.00    +0.000 A 
BRANCH  10  11
ATOM     11  N   UNL     1       5.007   5.725  17.420  0.00  0.00    +0.000 N 
ATOM     12  C   UNL     1       5.162   5.181  16.047  0.00  0.00    +0.000 C 
ATOM     13  C   UNL     1       6.660   5.002  15.724  0.00  0.00    +0.000 C 
ATOM     14  O   UNL     1       7.396   6.224  15.910  0.00  0.00    +0.000 OA
ATOM     15  C   UNL     1       7.274   6.663  17.266  0.00  0.00    +0.000 C 
ATOM     16  C   UNL     1       5.817   6.923  17.644  0.00  0.00    +0.000 C 
ENDBRANCH  10  11
ENDBRANCH   3   5
BRANCH   2  17
ATOM     17  C   UNL     1       1.379   9.269  17.836  0.00  0.00    +0.000 C 
ATOM     18  C   UNL     1       2.077  10.620  18.005  0.00  0.00    +0.000 C 
ATOM     19  C   UNL     1       1.832  11.243  19.382  0.00  0.00    +0.000 C 
ATOM     20  N   UNL     1       0.380  11.282  19.747  0.00  0.00    +0.000 NA
ATOM     21  C   UNL     1      -0.346  10.003  19.510  0.00  0.00    +0.000 C 
ATOM     22  C   UNL     1      -0.110   9.504  18.090  0.00  0.00    +0.000 C 
BRANCH  20  23
ATOM     23  S   UNL     1       0.108  11.837  21.376  0.00  0.00    +0.000 S 
ATOM     24  O   UNL     1       0.240  10.690  22.251  0.00  0.00    +0.000 OA
ATOM     25  O   UNL     1       0.885  13.036  21.578  0.00  0.00    +0.000 OA
BRANCH  23  26
ATOM     26  C   UNL     1      -1.615  12.266  21.358  0.00  0.00    +0.000 A 
ATOM     27  C   UNL     1      -2.253  12.453  20.128  0.00  0.00    +0.000 A 
ATOM     28  C   UNL     1      -3.620  12.732  20.101  0.00  0.00    +0.000 A 
ATOM     29  C   UNL     1      -4.335  12.810  21.295  0.00  0.00    +0.000 A 
ATOM     30 CL   UNL     1      -6.026  13.130  21.253  0.00  0.00    +0.000 Cl
ATOM     31  C   UNL     1      -3.698  12.618  22.520  0.00  0.00    +0.000 A 
ATOM     32  C   UNL     1      -2.327  12.342  22.558  0.00  0.00    +0.000 A 
ENDBRANCH  23  26
ENDBRANCH  20  23
ENDBRANCH   2  17
TORSDOF 5
ENDMDL
MODEL 2
REMARK VINA RESULT:      -7.6      0.588      1.340
REMARK  Name = 
REMARK  5 active torsions:
REMARK  status: ('A' for Active; 'I' for Inactive)
REMARK    1  A    between atoms: C_2  and  C_16
REMARK    2  A    between atoms: N_3  and  C_4
REMARK    3  A    between atoms: C_9  and  N_10
REMARK    4  A    between atoms: N_19  and  S_20
REMARK    5  A    between atoms: S_20  and  C_23
REMARK                            x       y       z     vdW  Elec       q    Type
REMARK                         _______ _______ _______ _____ _____    ______ ____
ROOT
ATOM      1  O   UNL     1       1.917   8.295  20.247  0.00  0.00    +0.000 OA
ATOM      2  C   UNL     1       1.874   8.099  19.037  0.00  0.00    +0.000 C 
ATOM      3  N   UNL     1       2.237   6.921  18.408  0.00  0.00    +0.000 N 
ATOM      4  H   UNL     1       2.098   6.869  17.421  0.00  0.00    +0.000 HD
ENDROOT
BRANCH   3   5
ATOM      5  C   UNL     1       2.542   5.712  19.074  0.00  0.00    +0.000 A 
ATOM      6  C   UNL     1       1.616   5.269  20.036  0.00  0.00    +0.000 A 
ATOM      7  C   UNL     1       1.846   4.115  20.778  0.00  0.00    +0.000 A 
ATOM      8  C   UNL     1       2.981   3.363  20.529  0.00  0.00    +0.000 A 
ATOM      9  C   UNL     1       3.900   3.789  19.564  0.00  0.00    +0.000 A 
ATOM     10  C   UNL     1       3.743   4.984  18.824  0.00  0.00    +0.000 A 
BRANCH  10  11
ATOM     11  N   UNL     1       4.745   5.334  17.928  0.00  0.00    +0.000 N 
ATOM     12  C   UNL     1       6.073   5.817  18.384  0.00  0.00    +0.000 C 
ATOM     13  C   UNL     1       6.509   7.026  17.530  0.00  0.00    +0.000 C 
ATOM     14  O   UNL     1       6.497   6.718  16.125  0.00  0.00    +0.000 OA
ATOM     15  C   UNL     1       5.179   6.332  15.723  0.00  0.00    +0.000 C 
ATOM     16  C   UNL     1       4.699   5.097  16.484  0.00  0.00    +0.000 C 
ENDBRANCH  10  11
ENDBRANCH   3   5
BRANCH   2  17
ATOM     17  C   UNL     1       1.387   9.178  18.050  0.00  0.00    +0.000 C 
ATOM     18  C   UNL     1       2.155  10.492  18.203  0.00  0.00    +0.000 C 
ATOM     19  C   UNL     1       1.860  11.196  19.531  0.00  0.00    +0.000 C 
ATOM     20  N   UNL     1       0.393  11.339  19.794  0.00  0.00    +0.000 NA
ATOM     21  C   UNL     1      -0.394  10.094  19.568  0.00  0.00    +0.000 C 
ATOM     22  C   UNL     1      -0.099   9.512  18.192  0.00  0.00    +0.000 C 
BRANCH  20  23
ATOM     23  S   UNL     1       0.051  11.989  21.375  0.00  0.00    +0.000 S 
ATOM     24  O   UNL     1       0.253  10.923  22.334  0.00  0.00    +0.000 OA
ATOM     25  O   UNL     1       0.732  13.256  21.496  0.00  0.00    +0.000 OA
BRANCH  23  26
ATOM     26  C   UNL     1      -1.699  12.283  21.303  0.00  0.00    +0.000 A 
ATOM     27  C   UNL     1      -2.433  12.290  22.493  0.00  0.00    +0.000 A 
ATOM     28  C   UNL     1      -3.798  12.578  22.455  0.00  0.00    +0.000 A 
ATOM     29  C   UNL     1      -4.411  12.867  21.236  0.00  0.00    +0.000 A 
ATOM     30 CL   UNL     1      -6.090  13.247  21.199  0.00  0.00    +0.000 Cl
ATOM     31  C   UNL     1      -3.676  12.865  20.052  0.00  0.00    +0.000 A 
ATOM     32  C   UNL     1      -2.308  12.574  20.080  0.00  0.00    +0.000 A 
ENDBRANCH  23  26
ENDBRANCH  20  23
ENDBRANCH   2  17
TORSDOF 5
ENDMDL
MODEL 3
REMARK VINA RESULT:      -7.6      3.894      9.332
REMARK  Name = 
REMARK  5 active torsions:
REMARK  status: ('A' for Active; 'I' for Inactive)
REMARK    1  A    between atoms: C_2  and  C_16
REMARK    2  A    between atoms: N_3  and  C_4
REMARK    3  A    between atoms: C_9  and  N_10
REMARK    4  A    between atoms: N_19  and  S_20
REMARK    5  A    between atoms: S_20  and  C_23
REMARK                            x       y       z     vdW  Elec       q    Type
REMARK                         _______ _______ _______ _____ _____    ______ ____
ROOT
ATOM      1  O   UNL     1      -4.420  10.218  18.312  0.00  0.00    +0.000 OA
ATOM      2  C   UNL     1      -3.834  11.277  18.112  0.00  0.00    +0.000 C 
ATOM      3  N   UNL     1      -4.096  12.468  18.764  0.00  0.00    +0.000 N 
ATOM      4  H   UNL     1      -3.507  13.245  18.551  0.00  0.00    +0.000 HD
ENDROOT
BRANCH   3   5
ATOM      5  C   UNL     1      -4.955  12.605  19.879  0.00  0.00    +0.000 A 
ATOM      6  C   UNL     1      -6.328  12.401  19.648  0.00  0.00    +0.000 A 
ATOM      7  C   UNL     1      -7.260  12.557  20.669  0.00  0.00    +0.000 A 
ATOM      8  C   UNL     1      -6.823  12.867  21.945  0.00  0.00    +0.000 A 
ATOM      9  C   UNL     1      -5.458  13.058  22.186  0.00  0.00    +0.000 A 
ATOM     10  C   UNL     1      -4.476  12.969  21.172  0.00  0.00    +0.000 A 
BRANCH  10  11
ATOM     11  N   UNL     1      -3.155  13.228  21.516  0.00  0.00    +0.000 N 
ATOM     12  C   UNL     1      -2.274  12.180  22.090  0.00  0.00    +0.000 C 
ATOM     13  C   UNL     1      -1.465  12.766  23.266  0.00  0.00    +0.000 C 
ATOM     14  O   UNL     1      -0.729  13.939  22.875  0.00  0.00    +0.000 OA
ATOM     15  C   UNL     1      -1.632  14.943  22.401  0.00  0.00    +0.000 C 
ATOM     16  C   UNL     1      -2.429  14.457  21.192  0.00  0.00    +0.000 C 
ENDBRANCH  10  11
ENDBRANCH   3   5
BRANCH   2  17
ATOM     17  C   UNL     1      -2.695  11.398  17.081  0.00  0.00    +0.000 C 
ATOM     18  C   UNL     1      -2.042  10.048  16.776  0.00  0.00    +0.000 C 
ATOM     19  C   UNL     1      -1.260   9.489  17.969  0.00  0.00    +0.000 C 
ATOM     20  N   UNL     1      -0.305  10.485  18.550  0.00  0.00    +0.000 NA
ATOM     21  C   UNL     1      -0.891  11.836  18.776  0.00  0.00    +0.000 C 
ATOM     22  C   UNL     1      -1.575  12.345  17.513  0.00  0.00    +0.000 C 
BRANCH  20  23
ATOM     23  S   UNL     1       0.466   9.912  20.004  0.00  0.00    +0.000 S 
ATOM     24  O   UNL     1       1.280  10.995  20.517  0.00  0.00    +0.000 OA
ATOM     25  O   UNL     1      -0.536   9.267  20.819  0.00  0.00    +0.000 OA
BRANCH  23  26
ATOM     26  C   UNL     1       1.587   8.680  19.390  0.00  0.00    +0.000 A 
ATOM     27  C   UNL     1       1.780   7.511  20.132  0.00  0.00    +0.000 A 
ATOM     28  C   UNL     1       2.613   6.510  19.630  0.00  0.00    +0.000 A 
ATOM     29  C   UNL     1       3.233   6.681  18.393  0.00  0.00    +0.000 A 
ATOM     30 CL   UNL     1       4.240   5.432  17.768  0.00  0.00    +0.000 Cl
ATOM     31  C   UNL     1       3.035   7.845  17.653  0.00  0.00    +0.000 A 
ATOM     32  C   UNL     1       2.204   8.855  18.150  0.00  0.00    +0.000 A 
ENDBRANCH  23  26
ENDBRANCH  20  23
ENDBRANCH   2  17
TORSDOF 5
ENDMDL
MODEL 4
REMARK VINA RESULT:      -7.5      2.326      3.964
REMARK  Name = 
REMARK  5 active torsions:
REMARK  status: ('A' for Active; 'I' for Inactive)
REMARK    1  A    between atoms: C_2  and  C_16
REMARK    2  A    between atoms: N_3  and  C_4
REMARK    3  A    between atoms: C_9  and  N_10
REMARK    4  A    between atoms: N_19  and  S_20
REMARK    5  A    between atoms: S_20  and  C_23
REMARK                            x       y       z     vdW  Elec       q    Type
REMARK                         _______ _______ _______ _____ _____    ______ ____
ROOT
ATOM      1  O   UNL     1       1.676   8.842  18.850  0.00  0.00    +0.000 OA
ATOM      2  C   UNL     1       1.748   8.086  19.814  0.00  0.00    +0.000 C 
ATOM      3  N   UNL     1       2.387   6.860  19.818  0.00  0.00    +0.000 N 
ATOM      4  H   UNL     1       2.425   6.367  20.686  0.00  0.00    +0.000 HD
ENDROOT
BRANCH   3   5
ATOM      5  C   UNL     1       3.202   6.371  18.771  0.00  0.00    +0.000 A 
ATOM      6  C   UNL     1       3.832   7.333  17.959  0.00  0.00    +0.000 A 
ATOM      7  C   UNL     1       4.618   6.956  16.876  0.00  0.00    +0.000 A 
ATOM      8  C   UNL     1       4.825   5.611  16.623  0.00  0.00    +0.000 A 
ATOM      9  C   UNL     1       4.214   4.648  17.434  0.00  0.00    +0.000 A 
ATOM     10  C   UNL     1       3.360   4.978  18.512  0.00  0.00    +0.000 A 
BRANCH  10  11
ATOM     11  N   UNL     1       2.767   3.938  19.217  0.00  0.00    +0.000 N 
ATOM     12  C   UNL     1       1.376   3.497  18.944  0.00  0.00    +0.000 C 
ATOM     13  C   UNL     1       0.634   3.260  20.276  0.00  0.00    +0.000 C 
ATOM     14  O   UNL     1       1.340   2.336  21.123  0.00  0.00    +0.000 OA
ATOM     15  C   UNL     1       2.645   2.845  21.416  0.00  0.00    +0.000 C 
ATOM     16  C   UNL     1       3.467   3.048  20.145  0.00  0.00    +0.000 C 
ENDBRANCH  10  11
ENDBRANCH   3   5
BRANCH   2  17
ATOM     17  C   UNL     1       1.118   8.437  21.176  0.00  0.00    +0.000 C 
ATOM     18  C   UNL     1      -0.403   8.580  21.092  0.00  0.00    +0.000 C 
ATOM     19  C   UNL     1      -0.835   9.804  20.279  0.00  0.00    +0.000 C 
ATOM     20  N   UNL     1      -0.151  11.060  20.720  0.00  0.00    +0.000 NA
ATOM     21  C   UNL     1       1.323  10.926  20.895  0.00  0.00    +0.000 C 
ATOM     22  C   UNL     1       1.654   9.734  21.784  0.00  0.00    +0.000 C 
BRANCH  20  23
ATOM     23  S   UNL     1      -0.513  12.422  19.695  0.00  0.00    +0.000 S 
ATOM     24  O   UNL     1      -0.525  13.603  20.533  0.00  0.00    +0.000 OA
ATOM     25  O   UNL     1       0.322  12.335  18.521  0.00  0.00    +0.000 OA
BRANCH  23  26
ATOM     26  C   UNL     1      -2.198  12.117  19.224  0.00  0.00    +0.000 A 
ATOM     27  C   UNL     1      -3.225  12.525  20.081  0.00  0.00    +0.000 A 
ATOM     28  C   UNL     1      -4.553  12.343  19.694  0.00  0.00    +0.000 A 
ATOM     29  C   UNL     1      -4.842  11.769  18.457  0.00  0.00    +0.000 A 
ATOM     30 CL   UNL     1      -6.483  11.571  17.975  0.00  0.00    +0.000 Cl
ATOM     31  C   UNL     1      -3.817  11.368  17.602  0.00  0.00    +0.000 A 
ATOM     32  C   UNL     1      -2.482  11.543  17.983  0.00  0.00    +0.000 A 
ENDBRANCH  23  26
ENDBRANCH  20  23
ENDBRANCH   2  17
TORSDOF 5
ENDMDL
MODEL 5
REMARK VINA RESULT:      -7.5      2.392      2.901
REMARK  Name = 
REMARK  5 active torsions:
REMARK  status: ('A' for Active; 'I' for Inactive)
REMARK    1  A    between atoms: C_2  and  C_16
REMARK    2  A    between atoms: N_3  and  C_4
REMARK    3  A    between atoms: C_9  and  N_10
REMARK    4  A    between atoms: N_19  and  S_20
REMARK    5  A    between atoms: S_20  and  C_23
REMARK                            x       y       z     vdW  Elec       q    Type
REMARK                         _______ _______ _______ _____ _____    ______ ____
ROOT
ATOM      1  O   UNL     1       1.763   8.438  20.076  0.00  0.00    +0.000 OA
ATOM      2  C   UNL     1       1.877   8.191  18.880  0.00  0.00    +0.000 C 
ATOM      3  N   UNL     1       2.335   6.997  18.353  0.00  0.00    +0.000 N 
ATOM      4  H   UNL     1       2.324   6.903  17.359  0.00  0.00    +0.000 HD
ENDROOT
BRANCH   3   5
ATOM      5  C   UNL     1       2.573   5.823  19.103  0.00  0.00    +0.000 A 
ATOM      6  C   UNL     1       1.618   5.496  20.084  0.00  0.00    +0.000 A 
ATOM      7  C   UNL     1       1.782   4.386  20.906  0.00  0.00    +0.000 A 
ATOM      8  C   UNL     1       2.878   3.561  20.720  0.00  0.00    +0.000 A 
ATOM      9  C   UNL     1       3.825   3.871  19.737  0.00  0.00    +0.000 A 
ATOM     10  C   UNL     1       3.735   5.018  18.915  0.00  0.00    +0.000 A 
BRANCH  10  11
ATOM     11  N   UNL     1       4.760   5.253  18.007  0.00  0.00    +0.000 N 
ATOM     12  C   UNL     1       6.100   5.724  18.440  0.00  0.00    +0.000 C 
ATOM     13  C   UNL     1       6.592   6.838  17.493  0.00  0.00    +0.000 C 
ATOM     14  O   UNL     1       6.584   6.412  16.119  0.00  0.00    +0.000 OA
ATOM     15  C   UNL     1       5.257   6.042  15.733  0.00  0.00    +0.000 C 
ATOM     16  C   UNL     1       4.721   4.896  16.589  0.00  0.00    +0.000 C 
ENDBRANCH  10  11
ENDBRANCH   3   5
BRANCH   2  17
ATOM     17  C   UNL     1       1.503   9.219  17.794  0.00  0.00    +0.000 C 
ATOM     18  C   UNL     1       2.204  10.563  18.002  0.00  0.00    +0.000 C 
ATOM     19  C   UNL     1       1.705  11.302  19.247  0.00  0.00    +0.000 C 
ATOM     20  N   UNL     1       0.212  11.404  19.299  0.00  0.00    +0.000 NA
ATOM     21  C   UNL     1      -0.499  10.127  19.013  0.00  0.00    +0.000 C 
ATOM     22  C   UNL     1       0.003   9.508  17.715  0.00  0.00    +0.000 C 
BRANCH  20  23
ATOM     23  S   UNL     1      -0.366  12.096  20.790  0.00  0.00    +0.000 S 
ATOM     24  O   UNL     1      -1.803  11.914  20.822  0.00  0.00    +0.000 OA
ATOM     25  O   UNL     1       0.481  11.627  21.860  0.00  0.00    +0.000 OA
BRANCH  23  26
ATOM     26  C   UNL     1      -0.080  13.832  20.550  0.00  0.00    +0.000 A 
ATOM     27  C   UNL     1       0.550  14.561  21.563  0.00  0.00    +0.000 A 
ATOM     28  C   UNL     1       0.833  15.912  21.362  0.00  0.00    +0.000 A 
ATOM     29  C   UNL     1       0.497  16.517  20.151  0.00  0.00    +0.000 A 
ATOM     30 CL   UNL     1       0.871  18.178  19.899  0.00  0.00    +0.000 Cl
ATOM     31  C   UNL     1      -0.127  15.787  19.140  0.00  0.00    +0.000 A 
ATOM     32  C   UNL     1      -0.418  14.433  19.335  0.00  0.00    +0.000 A 
ENDBRANCH  23  26
ENDBRANCH  20  23
ENDBRANCH   2  17
TORSDOF 5
ENDMDL
MODEL 6
REMARK VINA RESULT:      -7.5      2.076      2.410
REMARK  Name = 
REMARK  5 active torsions:
REMARK  status: ('A' for Active; 'I' for Inactive)
REMARK    1  A    between atoms: C_2  and  C_16
REMARK    2  A    between atoms: N_3  and  C_4
REMARK    3  A    between atoms: C_9  and  N_10
REMARK    4  A    between atoms: N_19  and  S_20
REMARK    5  A    between atoms: S_20  and  C_23
REMARK                            x       y       z     vdW  Elec       q    Type
REMARK                         _______ _______ _______ _____ _____    ______ ____
ROOT
ATOM      1  O   UNL     1       1.830   8.498  20.066  0.00  0.00    +0.000 OA
ATOM      2  C   UNL     1       1.903   8.227  18.872  0.00  0.00    +0.000 C 
ATOM      3  N   UNL     1       2.338   7.021  18.354  0.00  0.00    +0.000 N 
ATOM      4  H   UNL     1       2.293   6.907  17.363  0.00  0.00    +0.000 HD
ENDROOT
BRANCH   3   5
ATOM      5  C   UNL     1       2.596   5.861  19.119  0.00  0.00    +0.000 A 
ATOM      6  C   UNL     1       1.656   5.539  20.116  0.00  0.00    +0.000 A 
ATOM      7  C   UNL     1       1.841   4.444  20.953  0.00  0.00    +0.000 A 
ATOM      8  C   UNL     1       2.943   3.626  20.767  0.00  0.00    +0.000 A 
ATOM      9  C   UNL     1       3.875   3.930  19.768  0.00  0.00    +0.000 A 
ATOM     10  C   UNL     1       3.764   5.064  18.930  0.00  0.00    +0.000 A 
BRANCH  10  11
ATOM     11  N   UNL     1       4.776   5.295  18.006  0.00  0.00    +0.000 N 
ATOM     12  C   UNL     1       6.138   5.713  18.422  0.00  0.00    +0.000 C 
ATOM     13  C   UNL     1       6.643   6.839  17.496  0.00  0.00    +0.000 C 
ATOM     14  O   UNL     1       6.593   6.454  16.111  0.00  0.00    +0.000 OA
ATOM     15  C   UNL     1       5.247   6.135  15.744  0.00  0.00    +0.000 C 
ATOM     16  C   UNL     1       4.696   4.980  16.579  0.00  0.00    +0.000 C 
ENDBRANCH  10  11
ENDBRANCH   3   5
BRANCH   2  17
ATOM     17  C   UNL     1       1.496   9.235  17.779  0.00  0.00    +0.000 C 
ATOM     18  C   UNL     1       2.236  10.568  17.915  0.00  0.00    +0.000 C 
ATOM     19  C   UNL     1       1.817  11.350  19.163  0.00  0.00    +0.000 C 
ATOM     20  N   UNL     1       0.331  11.487  19.287  0.00  0.00    +0.000 NA
ATOM     21  C   UNL     1      -0.421  10.220  19.072  0.00  0.00    +0.000 C 
ATOM     22  C   UNL     1       0.001   9.556  17.768  0.00  0.00    +0.000 C 
BRANCH  20  23
ATOM     23  S   UNL     1      -0.156  12.231  20.786  0.00  0.00    +0.000 S 
ATOM     24  O   UNL     1      -1.413  11.628  21.179  0.00  0.00    +0.000 OA
ATOM     25  O   UNL     1       0.985  12.247  21.670  0.00  0.00    +0.000 OA
BRANCH  23  26
ATOM     26  C   UNL     1      -0.523  13.896  20.293  0.00  0.00    +0.000 A 
ATOM     27  C   UNL     1       0.172  14.452  19.215  0.00  0.00    +0.000 A 
ATOM     28  C   UNL     1      -0.150  15.739  18.781  0.00  0.00    +0.000 A 
ATOM     29  C   UNL     1      -1.167  16.450  19.417  0.00  0.00    +0.000 A 
ATOM     30 CL   UNL     1      -1.577  18.027  18.862  0.00  0.00    +0.000 Cl
ATOM     31  C   UNL     1      -1.863  15.891  20.488  0.00  0.00    +0.000 A 
ATOM     32  C   UNL     1      -1.544  14.603  20.932  0.00  0.00    +0.000 A 
ENDBRANCH  23  26
ENDBRANCH  20  23
ENDBRANCH   2  17
TORSDOF 5
ENDMDL
MODEL 7
REMARK VINA RESULT:      -7.4      2.161      3.799
REMARK  Name = 
REMARK  5 active torsions:
REMARK  status: ('A' for Active; 'I' for Inactive)
REMARK    1  A    between atoms: C_2  and  C_16
REMARK    2  A    between atoms: N_3  and  C_4
REMARK    3  A    between atoms: C_9  and  N_10
REMARK    4  A    between atoms: N_19  and  S_20
REMARK    5  A    between atoms: S_20  and  C_23
REMARK                            x       y       z     vdW  Elec       q    Type
REMARK                         _______ _______ _______ _____ _____    ______ ____
ROOT
ATOM      1  O   UNL     1       1.462   8.648  18.995  0.00  0.00    +0.000 OA
ATOM      2  C   UNL     1       1.735   7.956  19.970  0.00  0.00    +0.000 C 
ATOM      3  N   UNL     1       2.509   6.810  19.941  0.00  0.00    +0.000 N 
ATOM      4  H   UNL     1       2.707   6.371  20.815  0.00  0.00    +0.000 HD
ENDROOT
BRANCH   3   5
ATOM      5  C   UNL     1       3.244   6.361  18.820  0.00  0.00    +0.000 A 
ATOM      6  C   UNL     1       3.839   7.351  18.017  0.00  0.00    +0.000 A 
ATOM      7  C   UNL     1       4.545   7.016  16.866  0.00  0.00    +0.000 A 
ATOM      8  C   UNL     1       4.709   5.682  16.536  0.00  0.00    +0.000 A 
ATOM      9  C   UNL     1       4.133   4.690  17.337  0.00  0.00    +0.000 A 
ATOM     10  C   UNL     1       3.356   4.980  18.483  0.00  0.00    +0.000 A 
BRANCH  10  11
ATOM     11  N   UNL     1       2.790   3.916  19.175  0.00  0.00    +0.000 N 
ATOM     12  C   UNL     1       1.388   3.485  18.942  0.00  0.00    +0.000 C 
ATOM     13  C   UNL     1       0.700   3.202  20.293  0.00  0.00    +0.000 C 
ATOM     14  O   UNL     1       1.437   2.248  21.078  0.00  0.00    +0.000 OA
ATOM     15  C   UNL     1       2.754   2.746  21.337  0.00  0.00    +0.000 C 
ATOM     16  C   UNL     1       3.525   2.993  20.042  0.00  0.00    +0.000 C 
ENDBRANCH  10  11
ENDBRANCH   3   5
BRANCH   2  17
ATOM     17  C   UNL     1       1.236   8.305  21.386  0.00  0.00    +0.000 C 
ATOM     18  C   UNL     1      -0.291   8.343  21.469  0.00  0.00    +0.000 C 
ATOM     19  C   UNL     1      -0.896   9.509  20.682  0.00  0.00    +0.000 C 
ATOM     20  N   UNL     1      -0.257  10.822  21.014  0.00  0.00    +0.000 NA
ATOM     21  C   UNL     1       1.233  10.792  21.026  0.00  0.00    +0.000 C 
ATOM     22  C   UNL     1       1.743   9.654  21.899  0.00  0.00    +0.000 C 
BRANCH  20  23
ATOM     23  S   UNL     1      -0.826  12.124  20.005  0.00  0.00    +0.000 S 
ATOM     24  O   UNL     1      -0.080  13.311  20.369  0.00  0.00    +0.000 OA
ATOM     25  O   UNL     1      -0.873  11.648  18.643  0.00  0.00    +0.000 OA
BRANCH  23  26
ATOM     26  C   UNL     1      -2.486  12.369  20.585  0.00  0.00    +0.000 A 
ATOM     27  C   UNL     1      -2.702  12.580  21.950  0.00  0.00    +0.000 A 
ATOM     28  C   UNL     1      -3.995  12.832  22.408  0.00  0.00    +0.000 A 
ATOM     29  C   UNL     1      -5.054  12.883  21.502  0.00  0.00    +0.000 A 
ATOM     30 CL   UNL     1      -6.644  13.219  22.071  0.00  0.00    +0.000 Cl
ATOM     31  C   UNL     1      -4.835  12.676  20.141  0.00  0.00    +0.000 A 
ATOM     32  C   UNL     1      -3.542  12.419  19.673  0.00  0.00    +0.000 A 
ENDBRANCH  23  26
ENDBRANCH  20  23
ENDBRANCH   2  17
TORSDOF 5
ENDMDL
MODEL 8
REMARK VINA RESULT:      -7.4      2.253      2.506
REMARK  Name = 
REMARK  5 active torsions:
REMARK  status: ('A' for Active; 'I' for Inactive)
REMARK    1  A    between atoms: C_2  and  C_16
REMARK    2  A    between atoms: N_3  and  C_4
REMARK    3  A    between atoms: C_9  and  N_10
REMARK    4  A    between atoms: N_19  and  S_20
REMARK    5  A    between atoms: S_20  and  C_23
REMARK                            x       y       z     vdW  Elec       q    Type
REMARK                         _______ _______ _______ _____ _____    ______ ____
ROOT
ATOM      1  O   UNL     1       1.637   8.398  19.998  0.00  0.00    +0.000 OA
ATOM      2  C   UNL     1       1.857   8.291  18.795  0.00  0.00    +0.000 C 
ATOM      3  N   UNL     1       2.497   7.222  18.195  0.00  0.00    +0.000 N 
ATOM      4  H   UNL     1       2.561   7.230  17.199  0.00  0.00    +0.000 HD
ENDROOT
BRANCH   3   5
ATOM      5  C   UNL     1       2.836   6.015  18.847  0.00  0.00    +0.000 A 
ATOM      6  C   UNL     1       1.982   5.596  19.885  0.00  0.00    +0.000 A 
ATOM      7  C   UNL     1       2.252   4.446  20.619  0.00  0.00    +0.000 A 
ATOM      8  C   UNL     1       3.352   3.673  20.288  0.00  0.00    +0.000 A 
ATOM      9  C   UNL     1       4.198   4.074  19.248  0.00  0.00    +0.000 A 
ATOM     10  C   UNL     1       4.001   5.265  18.510  0.00  0.00    +0.000 A 
BRANCH  10  11
ATOM     11  N   UNL     1       4.933   5.590  17.533  0.00  0.00    +0.000 N 
ATOM     12  C   UNL     1       5.085   4.786  16.294  0.00  0.00    +0.000 C 
ATOM     13  C   UNL     1       6.583   4.575  15.990  0.00  0.00    +0.000 C 
ATOM     14  O   UNL     1       7.293   5.824  15.917  0.00  0.00    +0.000 OA
ATOM     15  C   UNL     1       7.177   6.522  17.160  0.00  0.00    +0.000 C 
ATOM     16  C   UNL     1       5.720   6.824  17.502  0.00  0.00    +0.000 C 
ENDBRANCH  10  11
ENDBRANCH   3   5
BRANCH   2  17
ATOM     17  C   UNL     1       1.422   9.372  17.786  0.00  0.00    +0.000 C 
ATOM     18  C   UNL     1       2.098  10.719  18.052  0.00  0.00    +0.000 C 
ATOM     19  C   UNL     1       1.624  11.369  19.355  0.00  0.00    +0.000 C 
ATOM     20  N   UNL     1       0.132  11.430  19.459  0.00  0.00    +0.000 NA
ATOM     21  C   UNL     1      -0.559  10.154  19.120  0.00  0.00    +0.000 C 
ATOM     22  C   UNL     1      -0.086   9.627  17.772  0.00  0.00    +0.000 C 
BRANCH  20  23
ATOM     23  S   UNL     1      -0.413  12.017  21.007  0.00  0.00    +0.000 S 
ATOM     24  O   UNL     1      -1.853  11.867  21.044  0.00  0.00    +0.000 OA
ATOM     25  O   UNL     1       0.434  11.447  22.027  0.00  0.00    +0.000 OA
BRANCH  23  26
ATOM     26  C   UNL     1      -0.087  13.759  20.899  0.00  0.00    +0.000 A 
ATOM     27  C   UNL     1      -0.731  14.508  19.909  0.00  0.00    +0.000 A 
ATOM     28  C   UNL     1      -0.527  15.888  19.852  0.00  0.00    +0.000 A 
ATOM     29  C   UNL     1       0.304  16.504  20.787  0.00  0.00    +0.000 A 
ATOM     30 CL   UNL     1       0.531  18.210  20.727  0.00  0.00    +0.000 Cl
ATOM     31  C   UNL     1       0.940  15.756  21.776  0.00  0.00    +0.000 A 
ATOM     32  C   UNL     1       0.745  14.372  21.838  0.00  0.00    +0.000 A 
ENDBRANCH  23  26
ENDBRANCH  20  23
ENDBRANCH   2  17
TORSDOF 5
ENDMDL
MODEL 9
REMARK VINA RESULT:      -7.4      2.430      2.821
REMARK  Name = 
REMARK  5 active torsions:
REMARK  status: ('A' for Active; 'I' for Inactive)
REMARK    1  A    between atoms: C_2  and  C_16
REMARK    2  A    between atoms: N_3  and  C_4
REMARK    3  A    between atoms: C_9  and  N_10
REMARK    4  A    between atoms: N_19  and  S_20
REMARK    5  A    between atoms: S_20  and  C_23
REMARK                            x       y       z     vdW  Elec       q    Type
REMARK                         _______ _______ _______ _____ _____    ______ ____
ROOT
ATOM      1  O   UNL     1       1.826   8.223  20.064  0.00  0.00    +0.000 OA
ATOM      2  C   UNL     1       1.959   7.984  18.868  0.00  0.00    +0.000 C 
ATOM      3  N   UNL     1       2.411   6.788  18.341  0.00  0.00    +0.000 N 
ATOM      4  H   UNL     1       2.417   6.701  17.347  0.00  0.00    +0.000 HD
ENDROOT
BRANCH   3   5
ATOM      5  C   UNL     1       2.620   5.605  19.086  0.00  0.00    +0.000 A 
ATOM      6  C   UNL     1       1.613   5.249  20.003  0.00  0.00    +0.000 A 
ATOM      7  C   UNL     1       1.744   4.128  20.816  0.00  0.00    +0.000 A 
ATOM      8  C   UNL     1       2.861   3.322  20.685  0.00  0.00    +0.000 A 
ATOM      9  C   UNL     1       3.860   3.661  19.767  0.00  0.00    +0.000 A 
ATOM     10  C   UNL     1       3.804   4.820  18.958  0.00  0.00    +0.000 A 
BRANCH  10  11
ATOM     11  N   UNL     1       4.878   5.084  18.118  0.00  0.00    +0.000 N 
ATOM     12  C   UNL     1       4.791   4.892  16.648  0.00  0.00    +0.000 C 
ATOM     13  C   UNL     1       6.073   4.202  16.136  0.00  0.00    +0.000 C 
ATOM     14  O   UNL     1       7.256   4.924  16.520  0.00  0.00    +0.000 OA
ATOM     15  C   UNL     1       7.330   5.014  17.946  0.00  0.00    +0.000 C 
ATOM     16  C   UNL     1       6.119   5.743  18.526  0.00  0.00    +0.000 C 
ENDBRANCH  10  11
ENDBRANCH   3   5
BRANCH   2  17
ATOM     17  C   UNL     1       1.617   9.025  17.784  0.00  0.00    +0.000 C 
ATOM     18  C   UNL     1       2.343  10.353  18.006  0.00  0.00    +0.000 C 
ATOM     19  C   UNL     1       1.845  11.096  19.250  0.00  0.00    +0.000 C 
ATOM     20  N   UNL     1       0.354  11.228  19.285  0.00  0.00    +0.000 NA
ATOM     21  C   UNL     1      -0.379   9.966  18.986  0.00  0.00    +0.000 C 
ATOM     22  C   UNL     1       0.124   9.344  17.690  0.00  0.00    +0.000 C 
BRANCH  20  23
ATOM     23  S   UNL     1      -0.227  11.924  20.773  0.00  0.00    +0.000 S 
ATOM     24  O   UNL     1      -1.668  11.782  20.783  0.00  0.00    +0.000 OA
ATOM     25  O   UNL     1       0.590  11.423  21.853  0.00  0.00    +0.000 OA
BRANCH  23  26
ATOM     26  C   UNL     1       0.112  13.653  20.552  0.00  0.00    +0.000 A 
ATOM     27  C   UNL     1       1.072  14.263  21.364  0.00  0.00    +0.000 A 
ATOM     28  C   UNL     1       1.389  15.607  21.160  0.00  0.00    +0.000 A 
ATOM     29  C   UNL     1       0.755  16.321  20.143  0.00  0.00    +0.000 A 
ATOM     30 CL   UNL     1       1.168  17.971  19.880  0.00  0.00    +0.000 Cl
ATOM     31  C   UNL     1      -0.199  15.708  19.332  0.00  0.00    +0.000 A 
ATOM     32  C   UNL     1      -0.525  14.363  19.532  0.00  0.00    +0.000 A 
ENDBRANCH  23  26
ENDBRANCH  20  23
ENDBRANCH   2  17
TORSDOF 5
ENDMDL
