MODEL 1
REMARK VINA RESULT:      -7.8      0.000      0.000
REMARK  Name = 
REMARK  8 active torsions:
REMARK  status: ('A' for Active; 'I' for Inactive)
REMARK    1  A    between atoms: C_1  and  N_2
REMARK    2  A    between atoms: C_4  and  C_5
REMARK    3  A    between atoms: C_10  and  C_11
REMARK    4  A    between atoms: C_11  and  C_12
REMARK    5  A    between atoms: C_15  and  C_16
REMARK    6  A    between atoms: C_16  and  C_17
REMARK    7  A    between atoms: N_19  and  C_20
REMARK    8  A    between atoms: C_20  and  C_21
REMARK                            x       y       z     vdW  Elec       q    Type
REMARK                         _______ _______ _______ _____ _____    ______ ____
ROOT
ATOM      1  C   UNL     1       1.195  11.225  18.954  0.00  0.00    +0.000 A 
ATOM      2  C   UNL     1       1.845  10.588  17.884  0.00  0.00    +0.000 A 
ATOM      3  C   UNL     1       2.187   9.229  17.935  0.00  0.00    +0.000 A 
ATOM      4  C   UNL     1       1.869   8.470  19.076  0.00  0.00    +0.000 A 
ATOM      5  N   UNL     1       2.155   7.125  19.257  0.00  0.00    +0.000 NA
ATOM      6  C   UNL     1       1.719   6.719  20.431  0.00  0.00    +0.000 A 
ATOM      7  S   UNL     1       0.955   7.921  21.384  0.00  0.00    +0.000 S 
ATOM      8  C   UNL     1       1.219   9.094  20.140  0.00  0.00    +0.000 A 
ATOM      9  C   UNL     1       0.881  10.467  20.105  0.00  0.00    +0.000 A 
ATOM     10 CL   UNL     1       0.139  11.154  21.517  0.00  0.00    +0.000 Cl
ENDROOT
BRANCH   1  14
ATOM     11  C   UNL     1       1.544  16.191  18.753  0.00  0.00    +0.000 C 
ATOM     12  N   UNL     1       1.047  14.838  18.742  0.00  0.00    +0.000 N 
ATOM     13  C   UNL     1       1.767  13.686  18.890  0.00  0.00    +0.000 A 
ATOM     14  C   UNL     1       0.859  12.644  18.828  0.00  0.00    +0.000 A 
ATOM     15  C   UNL     1      -0.378  13.299  18.610  0.00  0.00    +0.000 A 
ATOM     16  N   UNL     1      -0.266  14.627  18.566  0.00  0.00    +0.000 NA
ENDBRANCH   1  14
BRANCH   6  17
ATOM     17  C   UNL     1       1.876   5.330  20.968  0.00  0.00    +0.000 C 
BRANCH  17  18
ATOM     18  C   UNL     1       1.880   4.304  19.900  0.00  0.00    +0.000 A 
ATOM     19  N   UNL     1       0.914   3.510  19.483  0.00  0.00    +0.000 NA
ATOM     20  N   UNL     1       1.467   2.693  18.518  0.00  0.00    +0.000 NA
ATOM     21  C   UNL     1       2.729   3.052  18.409  0.00  0.00    +0.000 A 
ATOM     22  O   UNL     1       3.067   4.064  19.261  0.00  0.00    +0.000 OA
BRANCH  21  23
ATOM     23  C   UNL     1       3.786   2.508  17.542  0.00  0.00    +0.000 C 
BRANCH  23  24
ATOM     24  C   UNL     1       4.653   3.636  17.028  0.00  0.00    +0.000 C 
ATOM     25  O   UNL     1       4.344   4.295  16.038  0.00  0.00    +0.000 OA
ATOM     26  N   UNL     1       5.839   3.822  17.714  0.00  0.00    +0.000 N 
ATOM     27  H   UNL     1       5.984   3.333  18.593  0.00  0.00    +0.000 HD
BRANCH  26  28
ATOM     28  C   UNL     1       6.735   4.920  17.421  0.00  0.00    +0.000 C 
ATOM     29  C   UNL     1       7.671   5.453  18.488  0.00  0.00    +0.000 C 
ATOM     30  C   UNL     1       6.446   6.233  18.128  0.00  0.00    +0.000 C 
BRANCH  28  31
ATOM     31  C   UNL     1       7.183   4.998  16.044  0.00  0.00    +0.000 C 
ATOM     32  N   UNL     1       7.502   5.066  14.927  0.00  0.00    +0.000 NA
ENDBRANCH  28  31
ENDBRANCH  26  28
ENDBRANCH  23  24
ENDBRANCH  21  23
ENDBRANCH  17  18
ENDBRANCH   6  17
TORSDOF 7
ENDMDL
MODEL 2
REMARK VINA RESULT:      -7.6      3.245      3.911
REMARK  Name = 
REMARK  8 active torsions:
REMARK  status: ('A' for Active; 'I' for Inactive)
REMARK    1  A    between atoms: C_1  and  N_2
REMARK    2  A    between atoms: C_4  and  C_5
REMARK    3  A    between atoms: C_10  and  C_11
REMARK    4  A    between atoms: C_11  and  C_12
REMARK    5  A    between atoms: C_15  and  C_16
REMARK    6  A    between atoms: C_16  and  C_17
REMARK    7  A    between atoms: N_19  and  C_20
REMARK    8  A    between atoms: C_20  and  C_21
REMARK                            x       y       z     vdW  Elec       q    Type
REMARK                         _______ _______ _______ _____ _____    ______ ____
ROOT
ATOM      1  C   UNL     1      -1.388  11.461  22.547  0.00  0.00    +0.000 A 
ATOM      2  C   UNL     1      -0.871  10.507  23.439  0.00  0.00    +0.000 A 
ATOM      3  C   UNL     1       0.010   9.504  23.014  0.00  0.00    +0.000 A 
ATOM      4  C   UNL     1       0.403   9.443  21.665  0.00  0.00    +0.000 A 
ATOM      5  N   UNL     1       1.260   8.503  21.114  0.00  0.00    +0.000 NA
ATOM      6  C   UNL     1       1.424   8.731  19.828  0.00  0.00    +0.000 A 
ATOM      7  S   UNL     1       0.558  10.072  19.206  0.00  0.00    +0.000 S 
ATOM      8  C   UNL     1      -0.101  10.390  20.774  0.00  0.00    +0.000 A 
ATOM      9  C   UNL     1      -1.001  11.399  21.188  0.00  0.00    +0.000 A 
ATOM     10 CL   UNL     1      -1.621  12.479  19.978  0.00  0.00    +0.000 Cl
ENDROOT
BRANCH   1  14
ATOM     11  C   UNL     1      -3.347  15.857  23.837  0.00  0.00    +0.000 C 
ATOM     12  N   UNL     1      -3.135  14.448  23.620  0.00  0.00    +0.000 N 
ATOM     13  C   UNL     1      -2.057  13.851  23.028  0.00  0.00    +0.000 A 
ATOM     14  C   UNL     1      -2.295  12.488  23.063  0.00  0.00    +0.000 A 
ATOM     15  C   UNL     1      -3.569  12.392  23.676  0.00  0.00    +0.000 A 
ATOM     16  N   UNL     1      -4.074  13.578  24.020  0.00  0.00    +0.000 NA
ENDBRANCH   1  14
BRANCH   6  17
ATOM     17  C   UNL     1       2.267   7.898  18.912  0.00  0.00    +0.000 C 
BRANCH  17  18
ATOM     18  C   UNL     1       2.471   6.522  19.420  0.00  0.00    +0.000 A 
ATOM     19  N   UNL     1       1.848   5.872  20.382  0.00  0.00    +0.000 NA
ATOM     20  N   UNL     1       2.479   4.650  20.502  0.00  0.00    +0.000 NA
ATOM     21  C   UNL     1       3.436   4.639  19.598  0.00  0.00    +0.000 A 
ATOM     22  O   UNL     1       3.498   5.797  18.878  0.00  0.00    +0.000 OA
BRANCH  21  23
ATOM     23  C   UNL     1       4.425   3.591  19.295  0.00  0.00    +0.000 C 
BRANCH  23  24
ATOM     24  C   UNL     1       5.503   4.156  18.396  0.00  0.00    +0.000 C 
ATOM     25  O   UNL     1       6.645   4.359  18.800  0.00  0.00    +0.000 OA
ATOM     26  N   UNL     1       5.088   4.484  17.119  0.00  0.00    +0.000 N 
ATOM     27  H   UNL     1       4.170   4.182  16.804  0.00  0.00    +0.000 HD
BRANCH  26  28
ATOM     28  C   UNL     1       6.011   4.937  16.102  0.00  0.00    +0.000 C 
ATOM     29  C   UNL     1       5.644   4.844  14.633  0.00  0.00    +0.000 C 
ATOM     30  C   UNL     1       6.616   3.865  15.212  0.00  0.00    +0.000 C 
BRANCH  28  31
ATOM     31  C   UNL     1       6.880   6.028  16.501  0.00  0.00    +0.000 C 
ATOM     32  N   UNL     1       7.559   6.927  16.793  0.00  0.00    +0.000 NA
ENDBRANCH  28  31
ENDBRANCH  26  28
ENDBRANCH  23  24
ENDBRANCH  21  23
ENDBRANCH  17  18
ENDBRANCH   6  17
TORSDOF 7
ENDMDL
MODEL 3
REMARK VINA RESULT:      -7.4      3.074      3.997
REMARK  Name = 
REMARK  8 active torsions:
REMARK  status: ('A' for Active; 'I' for Inactive)
REMARK    1  A    between atoms: C_1  and  N_2
REMARK    2  A    between atoms: C_4  and  C_5
REMARK    3  A    between atoms: C_10  and  C_11
REMARK    4  A    between atoms: C_11  and  C_12
REMARK    5  A    between atoms: C_15  and  C_16
REMARK    6  A    between atoms: C_16  and  C_17
REMARK    7  A    between atoms: N_19  and  C_20
REMARK    8  A    between atoms: C_20  and  C_21
REMARK                            x       y       z     vdW  Elec       q    Type
REMARK                         _______ _______ _______ _____ _____    ______ ____
ROOT
ATOM      1  C   UNL     1      -2.699  12.448  20.226  0.00  0.00    +0.000 A 
ATOM      2  C   UNL     1      -3.040  12.000  18.939  0.00  0.00    +0.000 A 
ATOM      3  C   UNL     1      -2.212  11.124  18.223  0.00  0.00    +0.000 A 
ATOM      4  C   UNL     1      -1.013  10.666  18.798  0.00  0.00    +0.000 A 
ATOM      5  N   UNL     1      -0.105   9.807  18.199  0.00  0.00    +0.000 NA
ATOM      6  C   UNL     1       0.907   9.574  19.008  0.00  0.00    +0.000 A 
ATOM      7  S   UNL     1       0.835  10.374  20.521  0.00  0.00    +0.000 S 
ATOM      8  C   UNL     1      -0.672  11.102  20.078  0.00  0.00    +0.000 A 
ATOM      9  C   UNL     1      -1.492  11.996  20.805  0.00  0.00    +0.000 A 
ATOM     10 CL   UNL     1      -0.930  12.529  22.360  0.00  0.00    +0.000 Cl
ENDROOT
BRANCH   1  14
ATOM     11  C   UNL     1      -6.568  14.229  22.813  0.00  0.00    +0.000 C 
ATOM     12  N   UNL     1      -5.339  14.110  22.068  0.00  0.00    +0.000 N 
ATOM     13  C   UNL     1      -4.774  12.968  21.574  0.00  0.00    +0.000 A 
ATOM     14  C   UNL     1      -3.617  13.354  20.920  0.00  0.00    +0.000 A 
ATOM     15  C   UNL     1      -3.580  14.757  21.118  0.00  0.00    +0.000 A 
ATOM     16  N   UNL     1      -4.626  15.215  21.806  0.00  0.00    +0.000 NA
ENDBRANCH   1  14
BRANCH   6  17
ATOM     17  C   UNL     1       2.084   8.708  18.679  0.00  0.00    +0.000 C 
BRANCH  17  18
ATOM     18  C   UNL     1       2.073   7.427  19.423  0.00  0.00    +0.000 A 
ATOM     19  N   UNL     1       1.502   7.118  20.570  0.00  0.00    +0.000 NA
ATOM     20  N   UNL     1       1.867   5.816  20.851  0.00  0.00    +0.000 NA
ATOM     21  C   UNL     1       2.628   5.422  19.851  0.00  0.00    +0.000 A 
ATOM     22  O   UNL     1       2.812   6.394  18.910  0.00  0.00    +0.000 OA
BRANCH  21  23
ATOM     23  C   UNL     1       3.302   4.131  19.640  0.00  0.00    +0.000 C 
BRANCH  23  24
ATOM     24  C   UNL     1       4.349   4.275  18.558  0.00  0.00    +0.000 C 
ATOM     25  O   UNL     1       4.336   3.582  17.544  0.00  0.00    +0.000 OA
ATOM     26  N   UNL     1       5.348   5.192  18.829  0.00  0.00    +0.000 N 
ATOM     27  H   UNL     1       5.242   5.819  19.621  0.00  0.00    +0.000 HD
BRANCH  26  28
ATOM     28  C   UNL     1       6.368   5.529  17.860  0.00  0.00    +0.000 C 
ATOM     29  C   UNL     1       7.613   4.673  17.726  0.00  0.00    +0.000 C 
ATOM     30  C   UNL     1       7.701   5.997  18.418  0.00  0.00    +0.000 C 
BRANCH  28  31
ATOM     31  C   UNL     1       5.886   6.192  16.663  0.00  0.00    +0.000 C 
ATOM     32  N   UNL     1       5.481   6.688  15.692  0.00  0.00    +0.000 NA
ENDBRANCH  28  31
ENDBRANCH  26  28
ENDBRANCH  23  24
ENDBRANCH  21  23
ENDBRANCH  17  18
ENDBRANCH   6  17
TORSDOF 7
ENDMDL
MODEL 4
REMARK VINA RESULT:      -7.4      4.865     10.638
REMARK  Name = 
REMARK  8 active torsions:
REMARK  status: ('A' for Active; 'I' for Inactive)
REMARK    1  A    between atoms: C_1  and  N_2
REMARK    2  A    between atoms: C_4  and  C_5
REMARK    3  A    between atoms: C_10  and  C_11
REMARK    4  A    between atoms: C_11  and  C_12
REMARK    5  A    between atoms: C_15  and  C_16
REMARK    6  A    between atoms: C_16  and  C_17
REMARK    7  A    between atoms: N_19  and  C_20
REMARK    8  A    between atoms: C_20  and  C_21
REMARK                            x       y       z     vdW  Elec       q    Type
REMARK                         _______ _______ _______ _____ _____    ______ ____
ROOT
ATOM      1  C   UNL     1       3.034   6.473  18.800  0.00  0.00    +0.000 A 
ATOM      2  C   UNL     1       3.403   7.334  17.753  0.00  0.00    +0.000 A 
ATOM      3  C   UNL     1       2.842   8.611  17.620  0.00  0.00    +0.000 A 
ATOM      4  C   UNL     1       1.892   9.060  18.555  0.00  0.00    +0.000 A 
ATOM      5  N   UNL     1       1.257  10.293  18.536  0.00  0.00    +0.000 NA
ATOM      6  C   UNL     1       0.431  10.398  19.554  0.00  0.00    +0.000 A 
ATOM      7  S   UNL     1       0.358   9.030  20.583  0.00  0.00    +0.000 S 
ATOM      8  C   UNL     1       1.524   8.213  19.600  0.00  0.00    +0.000 A 
ATOM      9  C   UNL     1       2.073   6.916  19.738  0.00  0.00    +0.000 A 
ATOM     10 CL   UNL     1       1.488   5.922  21.035  0.00  0.00    +0.000 Cl
ENDROOT
BRANCH   1  14
ATOM     11  C   UNL     1       3.852   1.565  18.522  0.00  0.00    +0.000 C 
ATOM     12  N   UNL     1       4.000   2.982  18.747  0.00  0.00    +0.000 N 
ATOM     13  C   UNL     1       3.086   3.965  18.489  0.00  0.00    +0.000 A 
ATOM     14  C   UNL     1       3.669   5.156  18.884  0.00  0.00    +0.000 A 
ATOM     15  C   UNL     1       4.951   4.760  19.339  0.00  0.00    +0.000 A 
ATOM     16  N   UNL     1       5.149   3.443  19.263  0.00  0.00    +0.000 NA
ENDBRANCH   1  14
BRANCH   6  17
ATOM     17  C   UNL     1      -0.436  11.587  19.833  0.00  0.00    +0.000 C 
BRANCH  17  18
ATOM     18  C   UNL     1      -1.795  11.448  19.259  0.00  0.00    +0.000 A 
ATOM     19  N   UNL     1      -2.231  10.665  18.293  0.00  0.00    +0.000 NA
ATOM     20  N   UNL     1      -3.559  10.987  18.098  0.00  0.00    +0.000 NA
ATOM     21  C   UNL     1      -3.840  11.937  18.964  0.00  0.00    +0.000 A 
ATOM     22  O   UNL     1      -2.767  12.289  19.731  0.00  0.00    +0.000 OA
BRANCH  21  23
ATOM     23  C   UNL     1      -5.104  12.658  19.186  0.00  0.00    +0.000 C 
BRANCH  23  24
ATOM     24  C   UNL     1      -5.509  12.539  20.639  0.00  0.00    +0.000 C 
ATOM     25  O   UNL     1      -6.195  11.606  21.047  0.00  0.00    +0.000 OA
ATOM     26  N   UNL     1      -5.106  13.586  21.447  0.00  0.00    +0.000 N 
ATOM     27  H   UNL     1      -4.442  14.263  21.084  0.00  0.00    +0.000 HD
BRANCH  26  28
ATOM     28  C   UNL     1      -5.319  13.581  22.878  0.00  0.00    +0.000 C 
ATOM     29  C   UNL     1      -6.695  13.859  23.451  0.00  0.00    +0.000 C 
ATOM     30  C   UNL     1      -5.642  14.920  23.517  0.00  0.00    +0.000 C 
BRANCH  28  31
ATOM     31  C   UNL     1      -4.457  12.685  23.625  0.00  0.00    +0.000 C 
ATOM     32  N   UNL     1      -3.794  11.965  24.254  0.00  0.00    +0.000 NA
ENDBRANCH  28  31
ENDBRANCH  26  28
ENDBRANCH  23  24
ENDBRANCH  21  23
ENDBRANCH  17  18
ENDBRANCH   6  17
TORSDOF 7
ENDMDL
MODEL 5
REMARK VINA RESULT:      -7.4      4.167      9.724
REMARK  Name = 
REMARK  8 active torsions:
REMARK  status: ('A' for Active; 'I' for Inactive)
REMARK    1  A    between atoms: C_1  and  N_2
REMARK    2  A    between atoms: C_4  and  C_5
REMARK    3  A    between atoms: C_10  and  C_11
REMARK    4  A    between atoms: C_11  and  C_12
REMARK    5  A    between atoms: C_15  and  C_16
REMARK    6  A    between atoms: C_16  and  C_17
REMARK    7  A    between atoms: N_19  and  C_20
REMARK    8  A    between atoms: C_20  and  C_21
REMARK                            x       y       z     vdW  Elec       q    Type
REMARK                         _______ _______ _______ _____ _____    ______ ____
ROOT
ATOM      1  C   UNL     1       2.859   6.906  18.270  0.00  0.00    +0.000 A 
ATOM      2  C   UNL     1       2.660   8.112  17.576  0.00  0.00    +0.000 A 
ATOM      3  C   UNL     1       1.991   9.195  18.161  0.00  0.00    +0.000 A 
ATOM      4  C   UNL     1       1.509   9.091  19.479  0.00  0.00    +0.000 A 
ATOM      5  N   UNL     1       0.827  10.081  20.171  0.00  0.00    +0.000 NA
ATOM      6  C   UNL     1       0.522   9.665  21.381  0.00  0.00    +0.000 A 
ATOM      7  S   UNL     1       1.021   8.070  21.755  0.00  0.00    +0.000 S 
ATOM      8  C   UNL     1       1.707   7.900  20.176  0.00  0.00    +0.000 A 
ATOM      9  C   UNL     1       2.369   6.795  19.592  0.00  0.00    +0.000 A 
ATOM     10 CL   UNL     1       2.494   5.338  20.528  0.00  0.00    +0.000 Cl
ENDROOT
BRANCH   1  14
ATOM     11  C   UNL     1       6.253   4.347  15.671  0.00  0.00    +0.000 C 
ATOM     12  N   UNL     1       5.096   4.716  16.448  0.00  0.00    +0.000 N 
ATOM     13  C   UNL     1       4.784   5.953  16.938  0.00  0.00    +0.000 A 
ATOM     14  C   UNL     1       3.576   5.820  17.601  0.00  0.00    +0.000 A 
ATOM     15  C   UNL     1       3.277   4.442  17.463  0.00  0.00    +0.000 A 
ATOM     16  N   UNL     1       4.193   3.775  16.759  0.00  0.00    +0.000 NA
ENDBRANCH   1  14
BRANCH   6  17
ATOM     17  C   UNL     1      -0.234  10.466  22.396  0.00  0.00    +0.000 C 
BRANCH  17  18
ATOM     18  C   UNL     1      -0.655  11.789  21.878  0.00  0.00    +0.000 A 
ATOM     19  N   UNL     1       0.043  12.893  21.706  0.00  0.00    +0.000 NA
ATOM     20  N   UNL     1      -0.846  13.855  21.269  0.00  0.00    +0.000 NA
ATOM     21  C   UNL     1      -2.022  13.266  21.199  0.00  0.00    +0.000 A 
ATOM     22  O   UNL     1      -1.981  11.955  21.578  0.00  0.00    +0.000 OA
BRANCH  21  23
ATOM     23  C   UNL     1      -3.326  13.823  20.805  0.00  0.00    +0.000 C 
BRANCH  23  24
ATOM     24  C   UNL     1      -4.093  12.799  19.998  0.00  0.00    +0.000 C 
ATOM     25  O   UNL     1      -5.103  12.252  20.433  0.00  0.00    +0.000 OA
ATOM     26  N   UNL     1      -3.535  12.484  18.772  0.00  0.00    +0.000 N 
ATOM     27  H   UNL     1      -2.774  13.053  18.414  0.00  0.00    +0.000 HD
BRANCH  26  28
ATOM     28  C   UNL     1      -4.193  11.603  17.831  0.00  0.00    +0.000 C 
ATOM     29  C   UNL     1      -3.811  10.138  17.755  0.00  0.00    +0.000 C 
ATOM     30  C   UNL     1      -3.339  11.078  16.690  0.00  0.00    +0.000 C 
BRANCH  28  31
ATOM     31  C   UNL     1      -5.567  11.949  17.521  0.00  0.00    +0.000 C 
ATOM     32  N   UNL     1      -6.657  12.240  17.234  0.00  0.00    +0.000 NA
ENDBRANCH  28  31
ENDBRANCH  26  28
ENDBRANCH  23  24
ENDBRANCH  21  23
ENDBRANCH  17  18
ENDBRANCH   6  17
TORSDOF 7
ENDMDL
MODEL 6
REMARK VINA RESULT:      -7.3      2.850      4.826
REMARK  Name = 
REMARK  8 active torsions:
REMARK  status: ('A' for Active; 'I' for Inactive)
REMARK    1  A    between atoms: C_1  and  N_2
REMARK    2  A    between atoms: C_4  and  C_5
REMARK    3  A    between atoms: C_10  and  C_11
REMARK    4  A    between atoms: C_11  and  C_12
REMARK    5  A    between atoms: C_15  and  C_16
REMARK    6  A    between atoms: C_16  and  C_17
REMARK    7  A    between atoms: N_19  and  C_20
REMARK    8  A    between atoms: C_20  and  C_21
REMARK                            x       y       z     vdW  Elec       q    Type
REMARK                         _______ _______ _______ _____ _____    ______ ____
ROOT
ATOM      1  C   UNL     1      -0.068  10.738  21.581  0.00  0.00    +0.000 A 
ATOM      2  C   UNL     1       0.365   9.599  22.280  0.00  0.00    +0.000 A 
ATOM      3  C   UNL     1       1.085   8.578  21.645  0.00  0.00    +0.000 A 
ATOM      4  C   UNL     1       1.398   8.686  20.278  0.00  0.00    +0.000 A 
ATOM      5  N   UNL     1       2.096   7.750  19.532  0.00  0.00    +0.000 NA
ATOM      6  C   UNL     1       2.222   8.158  18.287  0.00  0.00    +0.000 A 
ATOM      7  S   UNL     1       1.507   9.676  17.939  0.00  0.00    +0.000 S 
ATOM      8  C   UNL     1       0.976   9.817  19.580  0.00  0.00    +0.000 A 
ATOM      9  C   UNL     1       0.237  10.848  20.205  0.00  0.00    +0.000 A 
ATOM     10 CL   UNL     1      -0.299  12.173  19.220  0.00  0.00    +0.000 Cl
ENDROOT
BRANCH   1  14
ATOM     11  C   UNL     1      -3.528  13.086  24.292  0.00  0.00    +0.000 C 
ATOM     12  N   UNL     1      -2.354  12.780  23.512  0.00  0.00    +0.000 N 
ATOM     13  C   UNL     1      -1.996  11.569  22.989  0.00  0.00    +0.000 A 
ATOM     14  C   UNL     1      -0.807  11.771  22.310  0.00  0.00    +0.000 A 
ATOM     15  C   UNL     1      -0.536  13.145  22.523  0.00  0.00    +0.000 A 
ATOM     16  N   UNL     1      -1.476  13.758  23.245  0.00  0.00    +0.000 NA
ENDBRANCH   1  14
BRANCH   6  17
ATOM     17  C   UNL     1       2.902   7.387  17.198  0.00  0.00    +0.000 C 
BRANCH  17  18
ATOM     18  C   UNL     1       4.155   6.742  17.653  0.00  0.00    +0.000 A 
ATOM     19  N   UNL     1       5.408   7.017  17.353  0.00  0.00    +0.000 NA
ATOM     20  N   UNL     1       6.181   6.066  17.988  0.00  0.00    +0.000 NA
ATOM     21  C   UNL     1       5.344   5.283  18.636  0.00  0.00    +0.000 A 
ATOM     22  O   UNL     1       4.039   5.645  18.465  0.00  0.00    +0.000 OA
BRANCH  21  23
ATOM     23  C   UNL     1       5.621   4.099  19.466  0.00  0.00    +0.000 C 
BRANCH  23  24
ATOM     24  C   UNL     1       4.409   3.194  19.482  0.00  0.00    +0.000 C 
ATOM     25  O   UNL     1       4.488   1.997  19.218  0.00  0.00    +0.000 OA
ATOM     26  N   UNL     1       3.209   3.828  19.747  0.00  0.00    +0.000 N 
ATOM     27  H   UNL     1       3.219   4.789  20.075  0.00  0.00    +0.000 HD
BRANCH  26  28
ATOM     28  C   UNL     1       1.970   3.097  19.901  0.00  0.00    +0.000 C 
ATOM     29  C   UNL     1       1.428   2.255  18.762  0.00  0.00    +0.000 C 
ATOM     30  C   UNL     1       0.795   3.577  19.066  0.00  0.00    +0.000 C 
BRANCH  28  31
ATOM     31  C   UNL     1       1.680   2.655  21.252  0.00  0.00    +0.000 C 
ATOM     32  N   UNL     1       1.483   2.276  22.334  0.00  0.00    +0.000 NA
ENDBRANCH  28  31
ENDBRANCH  26  28
ENDBRANCH  23  24
ENDBRANCH  21  23
ENDBRANCH  17  18
ENDBRANCH   6  17
TORSDOF 7
ENDMDL
MODEL 7
REMARK VINA RESULT:      -7.3      1.225      1.593
REMARK  Name = 
REMARK  8 active torsions:
REMARK  status: ('A' for Active; 'I' for Inactive)
REMARK    1  A    between atoms: C_1  and  N_2
REMARK    2  A    between atoms: C_4  and  C_5
REMARK    3  A    between atoms: C_10  and  C_11
REMARK    4  A    between atoms: C_11  and  C_12
REMARK    5  A    between atoms: C_15  and  C_16
REMARK    6  A    between atoms: C_16  and  C_17
REMARK    7  A    between atoms: N_19  and  C_20
REMARK    8  A    between atoms: C_20  and  C_21
REMARK                            x       y       z     vdW  Elec       q    Type
REMARK                         _______ _______ _______ _____ _____    ______ ____
ROOT
ATOM      1  C   UNL     1       0.518  10.906  19.916  0.00  0.00    +0.000 A 
ATOM      2  C   UNL     1      -0.153  10.587  21.109  0.00  0.00    +0.000 A 
ATOM      3  C   UNL     1      -0.057   9.315  21.688  0.00  0.00    +0.000 A 
ATOM      4  C   UNL     1       0.735   8.325  21.078  0.00  0.00    +0.000 A 
ATOM      5  N   UNL     1       0.911   7.030  21.541  0.00  0.00    +0.000 NA
ATOM      6  C   UNL     1       1.715   6.364  20.742  0.00  0.00    +0.000 A 
ATOM      7  S   UNL     1       2.298   7.241  19.390  0.00  0.00    +0.000 S 
ATOM      8  C   UNL     1       1.409   8.636  19.897  0.00  0.00    +0.000 A 
ATOM      9  C   UNL     1       1.309   9.912  19.295  0.00  0.00    +0.000 A 
ATOM     10 CL   UNL     1       2.132  10.164  17.787  0.00  0.00    +0.000 Cl
ENDROOT
BRANCH   1  14
ATOM     11  C   UNL     1       1.383  15.679  18.775  0.00  0.00    +0.000 C 
ATOM     12  N   UNL     1       0.794  14.367  18.884  0.00  0.00    +0.000 N 
ATOM     13  C   UNL     1       1.308  13.275  19.524  0.00  0.00    +0.000 A 
ATOM     14  C   UNL     1       0.381  12.259  19.373  0.00  0.00    +0.000 A 
ATOM     15  C   UNL     1      -0.640  12.858  18.594  0.00  0.00    +0.000 A 
ATOM     16  N   UNL     1      -0.393  14.137  18.305  0.00  0.00    +0.000 NA
ENDBRANCH   1  14
BRANCH   6  17
ATOM     17  C   UNL     1       2.109   4.930  20.925  0.00  0.00    +0.000 C 
BRANCH  17  18
ATOM     18  C   UNL     1       2.046   4.157  19.663  0.00  0.00    +0.000 A 
ATOM     19  N   UNL     1       1.009   3.632  19.041  0.00  0.00    +0.000 NA
ATOM     20  N   UNL     1       1.510   2.951  17.950  0.00  0.00    +0.000 NA
ATOM     21  C   UNL     1       2.816   3.116  17.980  0.00  0.00    +0.000 A 
ATOM     22  O   UNL     1       3.231   3.864  19.044  0.00  0.00    +0.000 OA
BRANCH  21  23
ATOM     23  C   UNL     1       3.847   2.596  17.066  0.00  0.00    +0.000 C 
BRANCH  23  24
ATOM     24  C   UNL     1       4.774   3.719  16.655  0.00  0.00    +0.000 C 
ATOM     25  O   UNL     1       4.588   4.374  15.633  0.00  0.00    +0.000 OA
ATOM     26  N   UNL     1       5.871   3.902  17.477  0.00  0.00    +0.000 N 
ATOM     27  H   UNL     1       5.908   3.416  18.368  0.00  0.00    +0.000 HD
BRANCH  26  28
ATOM     28  C   UNL     1       6.800   4.995  17.288  0.00  0.00    +0.000 C 
ATOM     29  C   UNL     1       7.706   5.437  18.421  0.00  0.00    +0.000 C 
ATOM     30  C   UNL     1       6.512   6.267  18.067  0.00  0.00    +0.000 C 
BRANCH  28  31
ATOM     31  C   UNL     1       7.301   5.150  15.936  0.00  0.00    +0.000 C 
ATOM     32  N   UNL     1       7.711   5.315  14.859  0.00  0.00    +0.000 NA
ENDBRANCH  28  31
ENDBRANCH  26  28
ENDBRANCH  23  24
ENDBRANCH  21  23
ENDBRANCH  17  18
ENDBRANCH   6  17
TORSDOF 7
ENDMDL
MODEL 8
REMARK VINA RESULT:      -7.3      1.212      1.289
REMARK  Name = 
REMARK  8 active torsions:
REMARK  status: ('A' for Active; 'I' for Inactive)
REMARK    1  A    between atoms: C_1  and  N_2
REMARK    2  A    between atoms: C_4  and  C_5
REMARK    3  A    between atoms: C_10  and  C_11
REMARK    4  A    between atoms: C_11  and  C_12
REMARK    5  A    between atoms: C_15  and  C_16
REMARK    6  A    between atoms: C_16  and  C_17
REMARK    7  A    between atoms: N_19  and  C_20
REMARK    8  A    between atoms: C_20  and  C_21
REMARK                            x       y       z     vdW  Elec       q    Type
REMARK                         _______ _______ _______ _____ _____    ______ ____
ROOT
ATOM      1  C   UNL     1       1.202  11.782  19.044  0.00  0.00    +0.000 A 
ATOM      2  C   UNL     1       1.853  11.096  18.004  0.00  0.00    +0.000 A 
ATOM      3  C   UNL     1       2.099   9.718  18.073  0.00  0.00    +0.000 A 
ATOM      4  C   UNL     1       1.680   8.988  19.200  0.00  0.00    +0.000 A 
ATOM      5  N   UNL     1       1.864   7.628  19.397  0.00  0.00    +0.000 NA
ATOM      6  C   UNL     1       1.351   7.258  20.550  0.00  0.00    +0.000 A 
ATOM      7  S   UNL     1       0.630   8.514  21.467  0.00  0.00    +0.000 S 
ATOM      8  C   UNL     1       1.028   9.660  20.233  0.00  0.00    +0.000 A 
ATOM      9  C   UNL     1       0.787  11.053  20.181  0.00  0.00    +0.000 A 
ATOM     10 CL   UNL     1       0.032  11.796  21.558  0.00  0.00    +0.000 Cl
ENDROOT
BRANCH   1  14
ATOM     11  C   UNL     1       1.914  16.706  18.769  0.00  0.00    +0.000 C 
ATOM     12  N   UNL     1       1.318  15.392  18.782  0.00  0.00    +0.000 N 
ATOM     13  C   UNL     1       1.953  14.193  18.940  0.00  0.00    +0.000 A 
ATOM     14  C   UNL     1       0.970  13.220  18.900  0.00  0.00    +0.000 A 
ATOM     15  C   UNL     1      -0.218  13.961  18.682  0.00  0.00    +0.000 A 
ATOM     16  N   UNL     1      -0.008  15.277  18.619  0.00  0.00    +0.000 NA
ENDBRANCH   1  14
BRANCH   6  17
ATOM     17  C   UNL     1       1.388   5.864  21.097  0.00  0.00    +0.000 C 
BRANCH  17  18
ATOM     18  C   UNL     1       1.944   4.889  20.131  0.00  0.00    +0.000 A 
ATOM     19  N   UNL     1       1.337   4.168  19.209  0.00  0.00    +0.000 NA
ATOM     20  N   UNL     1       2.306   3.367  18.637  0.00  0.00    +0.000 NA
ATOM     21  C   UNL     1       3.435   3.662  19.246  0.00  0.00    +0.000 A 
ATOM     22  O   UNL     1       3.283   4.615  20.213  0.00  0.00    +0.000 OA
BRANCH  21  23
ATOM     23  C   UNL     1       4.781   3.101  19.046  0.00  0.00    +0.000 C 
BRANCH  23  24
ATOM     24  C   UNL     1       5.658   4.121  18.353  0.00  0.00    +0.000 C 
ATOM     25  O   UNL     1       6.833   4.289  18.668  0.00  0.00    +0.000 OA
ATOM     26  N   UNL     1       5.020   4.886  17.394  0.00  0.00    +0.000 N 
ATOM     27  H   UNL     1       4.087   4.622  17.091  0.00  0.00    +0.000 HD
BRANCH  26  28
ATOM     28  C   UNL     1       5.733   5.834  16.566  0.00  0.00    +0.000 C 
ATOM     29  C   UNL     1       6.015   7.236  17.071  0.00  0.00    +0.000 C 
ATOM     30  C   UNL     1       4.934   7.022  16.058  0.00  0.00    +0.000 C 
BRANCH  28  31
ATOM     31  C   UNL     1       6.697   5.250  15.652  0.00  0.00    +0.000 C 
ATOM     32  N   UNL     1       7.463   4.745  14.937  0.00  0.00    +0.000 NA
ENDBRANCH  28  31
ENDBRANCH  26  28
ENDBRANCH  23  24
ENDBRANCH  21  23
ENDBRANCH  17  18
ENDBRANCH   6  17
TORSDOF 7
ENDMDL
MODEL 9
REMARK VINA RESULT:      -7.3      5.231     11.109
REMARK  Name = 
REMARK  8 active torsions:
REMARK  status: ('A' for Active; 'I' for Inactive)
REMARK    1  A    between atoms: C_1  and  N_2
REMARK    2  A    between atoms: C_4  and  C_5
REMARK    3  A    between atoms: C_10  and  C_11
REMARK    4  A    between atoms: C_11  and  C_12
REMARK    5  A    between atoms: C_15  and  C_16
REMARK    6  A    between atoms: C_16  and  C_17
REMARK    7  A    between atoms: N_19  and  C_20
REMARK    8  A    between atoms: C_20  and  C_21
REMARK                            x       y       z     vdW  Elec       q    Type
REMARK                         _______ _______ _______ _____ _____    ______ ____
ROOT
ATOM      1  C   UNL     1       2.561   6.251  19.656  0.00  0.00    +0.000 A 
ATOM      2  C   UNL     1       1.787   6.365  20.823  0.00  0.00    +0.000 A 
ATOM      3  C   UNL     1       1.071   7.533  21.119  0.00  0.00    +0.000 A 
ATOM      4  C   UNL     1       1.110   8.623  20.231  0.00  0.00    +0.000 A 
ATOM      5  N   UNL     1       0.456   9.833  20.405  0.00  0.00    +0.000 NA
ATOM      6  C   UNL     1       0.697  10.634  19.390  0.00  0.00    +0.000 A 
ATOM      7  S   UNL     1       1.723   9.991  18.177  0.00  0.00    +0.000 S 
ATOM      8  C   UNL     1       1.872   8.515  19.067  0.00  0.00    +0.000 A 
ATOM      9  C   UNL     1       2.609   7.347  18.764  0.00  0.00    +0.000 A 
ATOM     10 CL   UNL     1       3.580   7.352  17.325  0.00  0.00    +0.000 Cl
ENDROOT
BRANCH   1  14
ATOM     11  C   UNL     1       3.569   1.489  18.593  0.00  0.00    +0.000 C 
ATOM     12  N   UNL     1       3.687   2.886  18.930  0.00  0.00    +0.000 N 
ATOM     13  C   UNL     1       2.678   3.799  19.054  0.00  0.00    +0.000 A 
ATOM     14  C   UNL     1       3.274   4.998  19.406  0.00  0.00    +0.000 A 
ATOM     15  C   UNL     1       4.655   4.682  19.433  0.00  0.00    +0.000 A 
ATOM     16  N   UNL     1       4.905   3.402  19.153  0.00  0.00    +0.000 NA
ENDBRANCH   1  14
BRANCH   6  17
ATOM     17  C   UNL     1       0.170  12.029  19.256  0.00  0.00    +0.000 C 
BRANCH  17  18
ATOM     18  C   UNL     1      -1.196  12.177  19.811  0.00  0.00    +0.000 A 
ATOM     19  N   UNL     1      -2.366  12.136  19.207  0.00  0.00    +0.000 NA
ATOM     20  N   UNL     1      -3.316  12.408  20.171  0.00  0.00    +0.000 NA
ATOM     21  C   UNL     1      -2.657  12.588  21.297  0.00  0.00    +0.000 A 
ATOM     22  O   UNL     1      -1.305  12.465  21.145  0.00  0.00    +0.000 OA
BRANCH  21  23
ATOM     23  C   UNL     1      -3.167  12.917  22.638  0.00  0.00    +0.000 C 
BRANCH  23  24
ATOM     24  C   UNL     1      -4.604  13.377  22.535  0.00  0.00    +0.000 C 
ATOM     25  O   UNL     1      -4.915  14.563  22.620  0.00  0.00    +0.000 OA
ATOM     26  N   UNL     1      -5.536  12.364  22.408  0.00  0.00    +0.000 N 
ATOM     27  H   UNL     1      -5.215  11.418  22.222  0.00  0.00    +0.000 HD
BRANCH  26  28
ATOM     28  C   UNL     1      -6.941  12.632  22.195  0.00  0.00    +0.000 C 
ATOM     29  C   UNL     1      -7.766  13.310  23.271  0.00  0.00    +0.000 C 
ATOM     30  C   UNL     1      -7.917  11.838  23.047  0.00  0.00    +0.000 C 
BRANCH  28  31
ATOM     31  C   UNL     1      -7.319  12.874  20.815  0.00  0.00    +0.000 C 
ATOM     32  N   UNL     1      -7.596  13.038  19.697  0.00  0.00    +0.000 NA
ENDBRANCH  28  31
ENDBRANCH  26  28
ENDBRANCH  23  24
ENDBRANCH  21  23
ENDBRANCH  17  18
ENDBRANCH   6  17
TORSDOF 7
ENDMDL
