MODEL 1
REMARK VINA RESULT:      -8.4      0.000      0.000
REMARK  Name = 
REMARK  8 active torsions:
REMARK  status: ('A' for Active; 'I' for Inactive)
REMARK    1  A    between atoms: C_1  and  O_2
REMARK    2  A    between atoms: O_2  and  C_3
REMARK    3  A    between atoms: C_6  and  N_7
REMARK    4  A    between atoms: C_11  and  C_13
REMARK    5  A    between atoms: C_13  and  C_14
REMARK    6  A    between atoms: C_14  and  N_15
REMARK    7  A    between atoms: C_16  and  C_18
REMARK    8  A    between atoms: C_18  and  N_19
REMARK                            x       y       z     vdW  Elec       q    Type
REMARK                         _______ _______ _______ _____ _____    ______ ____
ROOT
ATOM      1  C   UNL     1       2.728   8.134  17.505  0.00  0.00    +0.000 C 
ENDROOT
BRANCH   1   6
ATOM      2  N   UNL     1      -0.051  10.752  20.981  0.00  0.00    +0.000 N 
ATOM      3  C   UNL     1       0.792   9.800  21.726  0.00  0.00    +0.000 C 
ATOM      4  C   UNL     1       0.924   8.489  20.916  0.00  0.00    +0.000 C 
ATOM      5  N   UNL     1       1.373   8.728  19.530  0.00  0.00    +0.000 N 
ATOM      6  C   UNL     1       2.283   7.854  18.941  0.00  0.00    +0.000 C 
ATOM      7  O   UNL     1       2.797   6.933  19.580  0.00  0.00    +0.000 OA
ATOM      8  C   UNL     1       0.556   9.726  18.816  0.00  0.00    +0.000 C 
ATOM      9  C   UNL     1       0.412  11.036  19.614  0.00  0.00    +0.000 C 
BRANCH   2  13
ATOM     10  C   UNL     1      -3.121  13.059  22.746  0.00  0.00    +0.000 A 
ATOM     11  C   UNL     1      -2.517  12.028  23.460  0.00  0.00    +0.000 A 
ATOM     12  C   UNL     1      -1.478  11.278  22.893  0.00  0.00    +0.000 A 
ATOM     13  C   UNL     1      -1.020  11.522  21.591  0.00  0.00    +0.000 A 
ATOM     14  C   UNL     1      -1.648  12.567  20.895  0.00  0.00    +0.000 A 
ATOM     15  C   UNL     1      -2.687  13.324  21.454  0.00  0.00    +0.000 A 
BRANCH  10  17
ATOM     16  C   UNL     1      -4.944  12.887  24.243  0.00  0.00    +0.000 C 
ATOM     17  O   UNL     1      -4.149  13.698  23.386  0.00  0.00    +0.000 OA
ENDBRANCH  10  17
ENDBRANCH   2  13
ENDBRANCH   1   6
BRANCH   1  18
ATOM     18  C   UNL     1       4.182   7.727  17.247  0.00  0.00    +0.000 C 
BRANCH  18  19
ATOM     19  N   UNL     1       4.404   6.273  17.303  0.00  0.00    +0.000 N 
ATOM     20  C   UNL     1       5.034   5.559  16.295  0.00  0.00    +0.000 C 
ATOM     21  O   UNL     1       5.561   6.114  15.324  0.00  0.00    +0.000 OA
ATOM     22  H   UNL     1       3.835   5.761  17.967  0.00  0.00    +0.000 HD
BRANCH  20  23
ATOM     23  C   UNL     1       5.066   4.030  16.509  0.00  0.00    +0.000 C 
BRANCH  23  24
ATOM     24  N   UNL     1       4.375   3.537  17.709  0.00  0.00    +0.000 N 
ATOM     25  C   UNL     1       5.072   3.511  18.921  0.00  0.00    +0.000 A 
ATOM     26  C   UNL     1       4.691   2.588  19.828  0.00  0.00    +0.000 A 
ATOM     27  C   UNL     1       3.246   2.679  20.110  0.00  0.00    +0.000 A 
ATOM     28  C   UNL     1       2.742   2.492  21.399  0.00  0.00    +0.000 A 
ATOM     29  C   UNL     1       1.396   2.756  21.648  0.00  0.00    +0.000 A 
ATOM     30  C   UNL     1       0.555   3.172  20.609  0.00  0.00    +0.000 A 
ATOM     31  C   UNL     1       1.037   3.277  19.296  0.00  0.00    +0.000 A 
ATOM     32  C   UNL     1       2.392   3.030  19.049  0.00  0.00    +0.000 A 
ATOM     33  C   UNL     1       2.999   3.235  17.686  0.00  0.00    +0.000 A 
ATOM     34  O   UNL     1       2.311   3.168  16.675  0.00  0.00    +0.000 OA
ENDBRANCH  23  24
ENDBRANCH  20  23
ENDBRANCH  18  19
ENDBRANCH   1  18
TORSDOF 7
ENDMDL
MODEL 2
REMARK VINA RESULT:      -8.0      2.816      4.684
REMARK  Name = 
REMARK  8 active torsions:
REMARK  status: ('A' for Active; 'I' for Inactive)
REMARK    1  A    between atoms: C_1  and  O_2
REMARK    2  A    between atoms: O_2  and  C_3
REMARK    3  A    between atoms: C_6  and  N_7
REMARK    4  A    between atoms: C_11  and  C_13
REMARK    5  A    between atoms: C_13  and  C_14
REMARK    6  A    between atoms: C_14  and  N_15
REMARK    7  A    between atoms: C_16  and  C_18
REMARK    8  A    between atoms: C_18  and  N_19
REMARK                            x       y       z     vdW  Elec       q    Type
REMARK                         _______ _______ _______ _____ _____    ______ ____
ROOT
ATOM      1  C   UNL     1       1.544   5.818  20.902  0.00  0.00    +0.000 C 
ENDROOT
BRANCH   1   6
ATOM      2  N   UNL     1       0.828  10.729  19.478  0.00  0.00    +0.000 N 
ATOM      3  C   UNL     1       1.175   9.971  18.264  0.00  0.00    +0.000 C 
ATOM      4  C   UNL     1       2.210   8.878  18.619  0.00  0.00    +0.000 C 
ATOM      5  N   UNL     1       1.769   8.033  19.747  0.00  0.00    +0.000 N 
ATOM      6  C   UNL     1       2.017   6.663  19.718  0.00  0.00    +0.000 C 
ATOM      7  O   UNL     1       2.516   6.120  18.729  0.00  0.00    +0.000 OA
ATOM      8  C   UNL     1       1.369   8.807  20.936  0.00  0.00    +0.000 C 
ATOM      9  C   UNL     1       0.342   9.904  20.594  0.00  0.00    +0.000 C 
BRANCH   2  13
ATOM     10  C   UNL     1       0.577  14.949  19.446  0.00  0.00    +0.000 A 
ATOM     11  C   UNL     1      -0.244  14.188  18.619  0.00  0.00    +0.000 A 
ATOM     12  C   UNL     1      -0.189  12.789  18.645  0.00  0.00    +0.000 A 
ATOM     13  C   UNL     1       0.700  12.103  19.486  0.00  0.00    +0.000 A 
ATOM     14  C   UNL     1       1.516  12.895  20.308  0.00  0.00    +0.000 A 
ATOM     15  C   UNL     1       1.466  14.296  20.290  0.00  0.00    +0.000 A 
BRANCH  10  17
ATOM     16  C   UNL     1      -0.486  16.752  18.346  0.00  0.00    +0.000 C 
ATOM     17  O   UNL     1       0.462  16.306  19.308  0.00  0.00    +0.000 OA
ENDBRANCH  10  17
ENDBRANCH   2  13
ENDBRANCH   1   6
BRANCH   1  18
ATOM     18  C   UNL     1       1.130   4.401  20.489  0.00  0.00    +0.000 C 
BRANCH  18  19
ATOM     19  N   UNL     1       2.127   3.721  19.647  0.00  0.00    +0.000 N 
ATOM     20  C   UNL     1       1.797   2.768  18.695  0.00  0.00    +0.000 C 
ATOM     21  O   UNL     1       0.625   2.505  18.404  0.00  0.00    +0.000 OA
ATOM     22  H   UNL     1       3.085   3.758  19.974  0.00  0.00    +0.000 HD
BRANCH  20  23
ATOM     23  C   UNL     1       3.006   2.103  18.000  0.00  0.00    +0.000 C 
BRANCH  23  24
ATOM     24  N   UNL     1       4.126   2.996  17.672  0.00  0.00    +0.000 N 
ATOM     25  C   UNL     1       4.150   3.608  16.416  0.00  0.00    +0.000 A 
ATOM     26  C   UNL     1       5.359   3.928  15.912  0.00  0.00    +0.000 A 
ATOM     27  C   UNL     1       6.132   4.754  16.858  0.00  0.00    +0.000 A 
ATOM     28  C   UNL     1       6.939   5.806  16.418  0.00  0.00    +0.000 A 
ATOM     29  C   UNL     1       7.512   6.662  17.358  0.00  0.00    +0.000 A 
ATOM     30  C   UNL     1       7.307   6.447  18.725  0.00  0.00    +0.000 A 
ATOM     31  C   UNL     1       6.570   5.341  19.174  0.00  0.00    +0.000 A 
ATOM     32  C   UNL     1       5.979   4.492  18.232  0.00  0.00    +0.000 A 
ATOM     33  C   UNL     1       5.082   3.355  18.643  0.00  0.00    +0.000 A 
ATOM     34  O   UNL     1       5.189   2.837  19.749  0.00  0.00    +0.000 OA
ENDBRANCH  23  24
ENDBRANCH  20  23
ENDBRANCH  18  19
ENDBRANCH   1  18
TORSDOF 7
ENDMDL
MODEL 3
REMARK VINA RESULT:      -7.9      2.303      4.391
REMARK  Name = 
REMARK  8 active torsions:
REMARK  status: ('A' for Active; 'I' for Inactive)
REMARK    1  A    between atoms: C_1  and  O_2
REMARK    2  A    between atoms: O_2  and  C_3
REMARK    3  A    between atoms: C_6  and  N_7
REMARK    4  A    between atoms: C_11  and  C_13
REMARK    5  A    between atoms: C_13  and  C_14
REMARK    6  A    between atoms: C_14  and  N_15
REMARK    7  A    between atoms: C_16  and  C_18
REMARK    8  A    between atoms: C_18  and  N_19
REMARK                            x       y       z     vdW  Elec       q    Type
REMARK                         _______ _______ _______ _____ _____    ______ ____
ROOT
ATOM      1  C   UNL     1       1.681   5.908  20.919  0.00  0.00    +0.000 C 
ENDROOT
BRANCH   1   6
ATOM      2  N   UNL     1       0.205  10.680  19.610  0.00  0.00    +0.000 N 
ATOM      3  C   UNL     1       0.682  10.020  18.383  0.00  0.00    +0.000 C 
ATOM      4  C   UNL     1       1.875   9.096  18.725  0.00  0.00    +0.000 C 
ATOM      5  N   UNL     1       1.562   8.161  19.825  0.00  0.00    +0.000 N 
ATOM      6  C   UNL     1       2.025   6.850  19.765  0.00  0.00    +0.000 C 
ATOM      7  O   UNL     1       2.615   6.420  18.770  0.00  0.00    +0.000 OA
ATOM      8  C   UNL     1       1.031   8.829  21.026  0.00  0.00    +0.000 C 
ATOM      9  C   UNL     1      -0.155   9.757  20.697  0.00  0.00    +0.000 C 
BRANCH   2  13
ATOM     10  C   UNL     1      -0.861  14.760  19.889  0.00  0.00    +0.000 A 
ATOM     11  C   UNL     1       0.388  14.391  19.399  0.00  0.00    +0.000 A 
ATOM     12  C   UNL     1       0.739  13.041  19.276  0.00  0.00    +0.000 A 
ATOM     13  C   UNL     1      -0.141  12.015  19.651  0.00  0.00    +0.000 A 
ATOM     14  C   UNL     1      -1.393  12.416  20.142  0.00  0.00    +0.000 A 
ATOM     15  C   UNL     1      -1.753  13.765  20.268  0.00  0.00    +0.000 A 
BRANCH  10  17
ATOM     16  C   UNL     1      -0.014  16.862  20.567  0.00  0.00    +0.000 C 
ATOM     17  O   UNL     1      -1.079  16.107  20.000  0.00  0.00    +0.000 OA
ENDBRANCH  10  17
ENDBRANCH   2  13
ENDBRANCH   1   6
BRANCH   1  18
ATOM     18  C   UNL     1       1.184   4.540  20.438  0.00  0.00    +0.000 C 
BRANCH  18  19
ATOM     19  N   UNL     1       2.139   3.844  19.562  0.00  0.00    +0.000 N 
ATOM     20  C   UNL     1       1.769   2.854  18.664  0.00  0.00    +0.000 C 
ATOM     21  O   UNL     1       0.585   2.566  18.453  0.00  0.00    +0.000 OA
ATOM     22  H   UNL     1       3.115   3.905  19.830  0.00  0.00    +0.000 HD
BRANCH  20  23
ATOM     23  C   UNL     1       2.944   2.181  17.922  0.00  0.00    +0.000 C 
BRANCH  23  24
ATOM     24  N   UNL     1       4.096   3.047  17.630  0.00  0.00    +0.000 N 
ATOM     25  C   UNL     1       4.178   3.652  16.373  0.00  0.00    +0.000 A 
ATOM     26  C   UNL     1       5.411   3.941  15.910  0.00  0.00    +0.000 A 
ATOM     27  C   UNL     1       6.170   4.753  16.881  0.00  0.00    +0.000 A 
ATOM     28  C   UNL     1       7.015   5.784  16.465  0.00  0.00    +0.000 A 
ATOM     29  C   UNL     1       7.576   6.631  17.421  0.00  0.00    +0.000 A 
ATOM     30  C   UNL     1       7.318   6.427  18.781  0.00  0.00    +0.000 A 
ATOM     31  C   UNL     1       6.540   5.341  19.208  0.00  0.00    +0.000 A 
ATOM     32  C   UNL     1       5.962   4.501  18.249  0.00  0.00    +0.000 A 
ATOM     33  C   UNL     1       5.025   3.387  18.632  0.00  0.00    +0.000 A 
ATOM     34  O   UNL     1       5.081   2.872  19.743  0.00  0.00    +0.000 OA
ENDBRANCH  23  24
ENDBRANCH  20  23
ENDBRANCH  18  19
ENDBRANCH   1  18
TORSDOF 7
ENDMDL
MODEL 4
REMARK VINA RESULT:      -7.5      3.309      5.255
REMARK  Name = 
REMARK  8 active torsions:
REMARK  status: ('A' for Active; 'I' for Inactive)
REMARK    1  A    between atoms: C_1  and  O_2
REMARK    2  A    between atoms: O_2  and  C_3
REMARK    3  A    between atoms: C_6  and  N_7
REMARK    4  A    between atoms: C_11  and  C_13
REMARK    5  A    between atoms: C_13  and  C_14
REMARK    6  A    between atoms: C_14  and  N_15
REMARK    7  A    between atoms: C_16  and  C_18
REMARK    8  A    between atoms: C_18  and  N_19
REMARK                            x       y       z     vdW  Elec       q    Type
REMARK                         _______ _______ _______ _____ _____    ______ ____
ROOT
ATOM      1  C   UNL     1       1.468   8.091  20.287  0.00  0.00    +0.000 C 
ENDROOT
BRANCH   1   6
ATOM      2  N   UNL     1       0.865  13.208  19.937  0.00  0.00    +0.000 N 
ATOM      3  C   UNL     1       0.179  12.772  21.165  0.00  0.00    +0.000 C 
ATOM      4  C   UNL     1      -0.467  11.387  20.930  0.00  0.00    +0.000 C 
ATOM      5  N   UNL     1       0.497  10.401  20.401  0.00  0.00    +0.000 N 
ATOM      6  C   UNL     1       0.454   9.085  20.855  0.00  0.00    +0.000 C 
ATOM      7  O   UNL     1      -0.311   8.741  21.759  0.00  0.00    +0.000 OA
ATOM      8  C   UNL     1       1.218  10.873  19.206  0.00  0.00    +0.000 C 
ATOM      9  C   UNL     1       1.863  12.255  19.426  0.00  0.00    +0.000 C 
BRANCH   2  13
ATOM     10  C   UNL     1       0.701  17.122  18.349  0.00  0.00    +0.000 A 
ATOM     11  C   UNL     1      -0.472  16.433  18.647  0.00  0.00    +0.000 A 
ATOM     12  C   UNL     1      -0.426  15.147  19.201  0.00  0.00    +0.000 A 
ATOM     13  C   UNL     1       0.791  14.501  19.462  0.00  0.00    +0.000 A 
ATOM     14  C   UNL     1       1.956  15.218  19.151  0.00  0.00    +0.000 A 
ATOM     15  C   UNL     1       1.921  16.506  18.597  0.00  0.00    +0.000 A 
BRANCH  10  17
ATOM     16  C   UNL     1       0.853  18.444  16.394  0.00  0.00    +0.000 C 
ATOM     17  O   UNL     1       0.534  18.354  17.778  0.00  0.00    +0.000 OA
ENDBRANCH  10  17
ENDBRANCH   2  13
ENDBRANCH   1   6
BRANCH   1  18
ATOM     18  C   UNL     1       1.403   6.723  20.975  0.00  0.00    +0.000 C 
BRANCH  18  19
ATOM     19  N   UNL     1       1.908   5.622  20.140  0.00  0.00    +0.000 N 
ATOM     20  C   UNL     1       2.348   4.413  20.656  0.00  0.00    +0.000 C 
ATOM     21  O   UNL     1       2.239   4.130  21.855  0.00  0.00    +0.000 OA
ATOM     22  H   UNL     1       2.190   5.871  19.199  0.00  0.00    +0.000 HD
BRANCH  20  23
ATOM     23  C   UNL     1       2.935   3.439  19.612  0.00  0.00    +0.000 C 
BRANCH  23  24
ATOM     24  N   UNL     1       3.855   4.031  18.631  0.00  0.00    +0.000 N 
ATOM     25  C   UNL     1       5.019   4.652  19.093  0.00  0.00    +0.000 A 
ATOM     26  C   UNL     1       5.533   5.638  18.329  0.00  0.00    +0.000 A 
ATOM     27  C   UNL     1       5.753   5.182  16.943  0.00  0.00    +0.000 A 
ATOM     28  C   UNL     1       6.872   5.588  16.212  0.00  0.00    +0.000 A 
ATOM     29  C   UNL     1       7.125   4.999  14.973  0.00  0.00    +0.000 A 
ATOM     30  C   UNL     1       6.249   4.036  14.459  0.00  0.00    +0.000 A 
ATOM     31  C   UNL     1       5.079   3.689  15.151  0.00  0.00    +0.000 A 
ATOM     32  C   UNL     1       4.834   4.266  16.401  0.00  0.00    +0.000 A 
ATOM     33  C   UNL     1       3.658   3.855  17.247  0.00  0.00    +0.000 A 
ATOM     34  O   UNL     1       2.650   3.382  16.735  0.00  0.00    +0.000 OA
ENDBRANCH  23  24
ENDBRANCH  20  23
ENDBRANCH  18  19
ENDBRANCH   1  18
TORSDOF 7
ENDMDL
MODEL 5
REMARK VINA RESULT:      -7.4      6.296      8.311
REMARK  Name = 
REMARK  8 active torsions:
REMARK  status: ('A' for Active; 'I' for Inactive)
REMARK    1  A    between atoms: C_1  and  O_2
REMARK    2  A    between atoms: O_2  and  C_3
REMARK    3  A    between atoms: C_6  and  N_7
REMARK    4  A    between atoms: C_11  and  C_13
REMARK    5  A    between atoms: C_13  and  C_14
REMARK    6  A    between atoms: C_14  and  N_15
REMARK    7  A    between atoms: C_16  and  C_18
REMARK    8  A    between atoms: C_18  and  N_19
REMARK                            x       y       z     vdW  Elec       q    Type
REMARK                         _______ _______ _______ _____ _____    ______ ____
ROOT
ATOM      1  C   UNL     1       7.712   7.955  17.068  0.00  0.00    +0.000 C 
ENDROOT
BRANCH   1   6
ATOM      2  N   UNL     1       9.831  12.326  18.821  0.00  0.00    +0.000 N 
ATOM      3  C   UNL     1      10.410  11.219  19.601  0.00  0.00    +0.000 C 
ATOM      4  C   UNL     1       9.332  10.134  19.833  0.00  0.00    +0.000 C 
ATOM      5  N   UNL     1       8.686   9.707  18.576  0.00  0.00    +0.000 N 
ATOM      6  C   UNL     1       8.379   8.363  18.383  0.00  0.00    +0.000 C 
ATOM      7  O   UNL     1       8.717   7.502  19.198  0.00  0.00    +0.000 OA
ATOM      8  C   UNL     1       8.163  10.830  17.778  0.00  0.00    +0.000 C 
ATOM      9  C   UNL     1       9.226  11.920  17.543  0.00  0.00    +0.000 C 
BRANCH   2  13
ATOM     10  C   UNL     1      10.730  16.355  19.729  0.00  0.00    +0.000 A 
ATOM     11  C   UNL     1      10.161  16.019  18.504  0.00  0.00    +0.000 A 
ATOM     12  C   UNL     1       9.833  14.690  18.206  0.00  0.00    +0.000 A 
ATOM     13  C   UNL     1      10.076  13.651  19.116  0.00  0.00    +0.000 A 
ATOM     14  C   UNL     1      10.651  14.018  20.343  0.00  0.00    +0.000 A 
ATOM     15  C   UNL     1      10.982  15.346  20.649  0.00  0.00    +0.000 A 
BRANCH  10  17
ATOM     16  C   UNL     1      11.700  18.012  21.110  0.00  0.00    +0.000 C 
ATOM     17  O   UNL     1      11.043  17.677  19.893  0.00  0.00    +0.000 OA
ENDBRANCH  10  17
ENDBRANCH   2  13
ENDBRANCH   1   6
BRANCH   1  18
ATOM     18  C   UNL     1       6.198   7.768  17.206  0.00  0.00    +0.000 C 
BRANCH  18  19
ATOM     19  N   UNL     1       5.787   6.359  17.302  0.00  0.00    +0.000 N 
ATOM     20  C   UNL     1       5.794   5.487  16.224  0.00  0.00    +0.000 C 
ATOM     21  O   UNL     1       6.259   5.805  15.123  0.00  0.00    +0.000 OA
ATOM     22  H   UNL     1       5.230   6.112  18.113  0.00  0.00    +0.000 HD
BRANCH  20  23
ATOM     23  C   UNL     1       5.222   4.084  16.523  0.00  0.00    +0.000 C 
BRANCH  23  24
ATOM     24  N   UNL     1       4.180   4.024  17.558  0.00  0.00    +0.000 N 
ATOM     25  C   UNL     1       2.840   4.036  17.161  0.00  0.00    +0.000 A 
ATOM     26  C   UNL     1       1.946   4.542  18.035  0.00  0.00    +0.000 A 
ATOM     27  C   UNL     1       2.049   3.880  19.349  0.00  0.00    +0.000 A 
ATOM     28  C   UNL     1       0.914   3.590  20.110  0.00  0.00    +0.000 A 
ATOM     29  C   UNL     1       1.047   2.814  21.261  0.00  0.00    +0.000 A 
ATOM     30  C   UNL     1       2.308   2.359  21.663  0.00  0.00    +0.000 A 
ATOM     31  C   UNL     1       3.460   2.720  20.950  0.00  0.00    +0.000 A 
ATOM     32  C   UNL     1       3.326   3.484  19.785  0.00  0.00    +0.000 A 
ATOM     33  C   UNL     1       4.508   3.810  18.911  0.00  0.00    +0.000 A 
ATOM     34  O   UNL     1       5.642   3.843  19.374  0.00  0.00    +0.000 OA
ENDBRANCH  23  24
ENDBRANCH  20  23
ENDBRANCH  18  19
ENDBRANCH   1  18
TORSDOF 7
ENDMDL
MODEL 6
REMARK VINA RESULT:      -7.4      2.459      2.901
REMARK  Name = 
REMARK  8 active torsions:
REMARK  status: ('A' for Active; 'I' for Inactive)
REMARK    1  A    between atoms: C_1  and  O_2
REMARK    2  A    between atoms: O_2  and  C_3
REMARK    3  A    between atoms: C_6  and  N_7
REMARK    4  A    between atoms: C_11  and  C_13
REMARK    5  A    between atoms: C_13  and  C_14
REMARK    6  A    between atoms: C_14  and  N_15
REMARK    7  A    between atoms: C_16  and  C_18
REMARK    8  A    between atoms: C_18  and  N_19
REMARK                            x       y       z     vdW  Elec       q    Type
REMARK                         _______ _______ _______ _____ _____    ______ ____
ROOT
ATOM      1  C   UNL     1       1.865   8.538  17.631  0.00  0.00    +0.000 C 
ENDROOT
BRANCH   1   6
ATOM      2  N   UNL     1      -2.466  11.261  18.334  0.00  0.00    +0.000 N 
ATOM      3  C   UNL     1      -1.371  12.227  18.148  0.00  0.00    +0.000 C 
ATOM      4  C   UNL     1      -0.082  11.677  18.803  0.00  0.00    +0.000 C 
ATOM      5  N   UNL     1       0.241  10.311  18.346  0.00  0.00    +0.000 N 
ATOM      6  C   UNL     1       1.567   9.961  18.105  0.00  0.00    +0.000 C 
ATOM      7  O   UNL     1       2.475  10.793  18.176  0.00  0.00    +0.000 OA
ATOM      8  C   UNL     1      -0.883   9.368  18.485  0.00  0.00    +0.000 C 
ATOM      9  C   UNL     1      -2.175   9.907  17.840  0.00  0.00    +0.000 C 
BRANCH   2  13
ATOM     10  C   UNL     1      -6.357  12.574  19.336  0.00  0.00    +0.000 A 
ATOM     11  C   UNL     1      -6.175  11.559  18.401  0.00  0.00    +0.000 A 
ATOM     12  C   UNL     1      -4.891  11.097  18.085  0.00  0.00    +0.000 A 
ATOM     13  C   UNL     1      -3.745  11.644  18.681  0.00  0.00    +0.000 A 
ATOM     14  C   UNL     1      -3.958  12.666  19.619  0.00  0.00    +0.000 A 
ATOM     15  C   UNL     1      -5.240  13.134  19.942  0.00  0.00    +0.000 A 
BRANCH  10  17
ATOM     16  C   UNL     1      -7.898  13.707  20.727  0.00  0.00    +0.000 C 
ATOM     17  O   UNL     1      -7.652  12.968  19.537  0.00  0.00    +0.000 OA
ENDBRANCH  10  17
ENDBRANCH   2  13
ENDBRANCH   1   6
BRANCH   1  18
ATOM     18  C   UNL     1       3.361   8.288  17.414  0.00  0.00    +0.000 C 
BRANCH  18  19
ATOM     19  N   UNL     1       3.718   6.862  17.369  0.00  0.00    +0.000 N 
ATOM     20  C   UNL     1       4.670   6.341  16.506  0.00  0.00    +0.000 C 
ATOM     21  O   UNL     1       5.374   7.061  15.790  0.00  0.00    +0.000 OA
ATOM     22  H   UNL     1       3.050   6.223  17.786  0.00  0.00    +0.000 HD
BRANCH  20  23
ATOM     23  C   UNL     1       4.811   4.804  16.550  0.00  0.00    +0.000 C 
BRANCH  23  24
ATOM     24  N   UNL     1       4.223   4.140  17.723  0.00  0.00    +0.000 N 
ATOM     25  C   UNL     1       4.945   4.130  18.920  0.00  0.00    +0.000 A 
ATOM     26  C   UNL     1       4.716   3.105  19.766  0.00  0.00    +0.000 A 
ATOM     27  C   UNL     1       3.280   2.975  20.074  0.00  0.00    +0.000 A 
ATOM     28  C   UNL     1       2.837   2.634  21.354  0.00  0.00    +0.000 A 
ATOM     29  C   UNL     1       1.473   2.691  21.640  0.00  0.00    +0.000 A 
ATOM     30  C   UNL     1       0.559   3.055  20.645  0.00  0.00    +0.000 A 
ATOM     31  C   UNL     1       0.991   3.314  19.336  0.00  0.00    +0.000 A 
ATOM     32  C   UNL     1       2.361   3.275  19.052  0.00  0.00    +0.000 A 
ATOM     33  C   UNL     1       2.901   3.652  17.699  0.00  0.00    +0.000 A 
ATOM     34  O   UNL     1       2.205   3.558  16.695  0.00  0.00    +0.000 OA
ENDBRANCH  23  24
ENDBRANCH  20  23
ENDBRANCH  18  19
ENDBRANCH   1  18
TORSDOF 7
ENDMDL
MODEL 7
REMARK VINA RESULT:      -7.3      2.541      4.565
REMARK  Name = 
REMARK  8 active torsions:
REMARK  status: ('A' for Active; 'I' for Inactive)
REMARK    1  A    between atoms: C_1  and  O_2
REMARK    2  A    between atoms: O_2  and  C_3
REMARK    3  A    between atoms: C_6  and  N_7
REMARK    4  A    between atoms: C_11  and  C_13
REMARK    5  A    between atoms: C_13  and  C_14
REMARK    6  A    between atoms: C_14  and  N_15
REMARK    7  A    between atoms: C_16  and  C_18
REMARK    8  A    between atoms: C_18  and  N_19
REMARK                            x       y       z     vdW  Elec       q    Type
REMARK                         _______ _______ _______ _____ _____    ______ ____
ROOT
ATOM      1  C   UNL     1       1.441   8.410  20.658  0.00  0.00    +0.000 C 
ENDROOT
BRANCH   1   6
ATOM      2  N   UNL     1      -1.861  12.376  20.834  0.00  0.00    +0.000 N 
ATOM      3  C   UNL     1      -0.925  12.539  21.959  0.00  0.00    +0.000 C 
ATOM      4  C   UNL     1      -0.561  11.149  22.531  0.00  0.00    +0.000 C 
ATOM      5  N   UNL     1      -0.085  10.220  21.487  0.00  0.00    +0.000 N 
ATOM      6  C   UNL     1       0.972   9.357  21.764  0.00  0.00    +0.000 C 
ATOM      7  O   UNL     1       1.583   9.411  22.833  0.00  0.00    +0.000 OA
ATOM      8  C   UNL     1      -1.003  10.111  20.339  0.00  0.00    +0.000 C 
ATOM      9  C   UNL     1      -1.378  11.491  19.763  0.00  0.00    +0.000 C 
BRANCH   2  13
ATOM     10  C   UNL     1      -5.308  14.782  20.396  0.00  0.00    +0.000 A 
ATOM     11  C   UNL     1      -4.139  15.318  20.928  0.00  0.00    +0.000 A 
ATOM     12  C   UNL     1      -2.983  14.536  21.049  0.00  0.00    +0.000 A 
ATOM     13  C   UNL     1      -2.961  13.190  20.657  0.00  0.00    +0.000 A 
ATOM     14  C   UNL     1      -4.154  12.676  20.126  0.00  0.00    +0.000 A 
ATOM     15  C   UNL     1      -5.316  13.452  20.000  0.00  0.00    +0.000 A 
BRANCH  10  17
ATOM     16  C   UNL     1      -7.173  15.677  21.544  0.00  0.00    +0.000 C 
ATOM     17  O   UNL     1      -6.384  15.629  20.361  0.00  0.00    +0.000 OA
ENDBRANCH  10  17
ENDBRANCH   2  13
ENDBRANCH   1   6
BRANCH   1  18
ATOM     18  C   UNL     1       1.504   6.950  21.119  0.00  0.00    +0.000 C 
BRANCH  18  19
ATOM     19  N   UNL     1       2.178   6.060  20.159  0.00  0.00    +0.000 N 
ATOM     20  C   UNL     1       1.785   4.751  19.927  0.00  0.00    +0.000 C 
ATOM     21  O   UNL     1       0.762   4.271  20.430  0.00  0.00    +0.000 OA
ATOM     22  H   UNL     1       3.111   6.336  19.876  0.00  0.00    +0.000 HD
BRANCH  20  23
ATOM     23  C   UNL     1       2.696   3.964  18.960  0.00  0.00    +0.000 C 
BRANCH  23  24
ATOM     24  N   UNL     1       3.862   4.694  18.443  0.00  0.00    +0.000 N 
ATOM     25  C   UNL     1       3.651   5.760  17.565  0.00  0.00    +0.000 A 
ATOM     26  C   UNL     1       4.636   6.038  16.687  0.00  0.00    +0.000 A 
ATOM     27  C   UNL     1       5.926   6.235  17.375  0.00  0.00    +0.000 A 
ATOM     28  C   UNL     1       6.834   7.210  16.956  0.00  0.00    +0.000 A 
ATOM     29  C   UNL     1       7.958   7.474  17.738  0.00  0.00    +0.000 A 
ATOM     30  C   UNL     1       8.187   6.747  18.912  0.00  0.00    +0.000 A 
ATOM     31  C   UNL     1       7.323   5.708  19.291  0.00  0.00    +0.000 A 
ATOM     32  C   UNL     1       6.186   5.455  18.516  0.00  0.00    +0.000 A 
ATOM     33  C   UNL     1       5.160   4.432  18.927  0.00  0.00    +0.000 A 
ATOM     34  O   UNL     1       5.464   3.489  19.647  0.00  0.00    +0.000 OA
ENDBRANCH  23  24
ENDBRANCH  20  23
ENDBRANCH  18  19
ENDBRANCH   1  18
TORSDOF 7
ENDMDL
MODEL 8
REMARK VINA RESULT:      -7.2      2.302      4.423
REMARK  Name = 
REMARK  8 active torsions:
REMARK  status: ('A' for Active; 'I' for Inactive)
REMARK    1  A    between atoms: C_1  and  O_2
REMARK    2  A    between atoms: O_2  and  C_3
REMARK    3  A    between atoms: C_6  and  N_7
REMARK    4  A    between atoms: C_11  and  C_13
REMARK    5  A    between atoms: C_13  and  C_14
REMARK    6  A    between atoms: C_14  and  N_15
REMARK    7  A    between atoms: C_16  and  C_18
REMARK    8  A    between atoms: C_18  and  N_19
REMARK                            x       y       z     vdW  Elec       q    Type
REMARK                         _______ _______ _______ _____ _____    ______ ____
ROOT
ATOM      1  C   UNL     1       1.636   7.265  21.009  0.00  0.00    +0.000 C 
ENDROOT
BRANCH   1   6
ATOM      2  N   UNL     1      -0.224  11.948  19.879  0.00  0.00    +0.000 N 
ATOM      3  C   UNL     1       0.018  11.256  18.601  0.00  0.00    +0.000 C 
ATOM      4  C   UNL     1       1.284  10.376  18.725  0.00  0.00    +0.000 C 
ATOM      5  N   UNL     1       1.228   9.474  19.893  0.00  0.00    +0.000 N 
ATOM      6  C   UNL     1       1.711   8.173  19.780  0.00  0.00    +0.000 C 
ATOM      7  O   UNL     1       2.102   7.722  18.701  0.00  0.00    +0.000 OA
ATOM      8  C   UNL     1       0.928  10.171  21.156  0.00  0.00    +0.000 C 
ATOM      9  C   UNL     1      -0.329  11.056  21.044  0.00  0.00    +0.000 C 
BRANCH   2  13
ATOM     10  C   UNL     1      -1.427  15.999  19.950  0.00  0.00    +0.000 A 
ATOM     11  C   UNL     1      -1.991  15.082  20.832  0.00  0.00    +0.000 A 
ATOM     12  C   UNL     1      -1.577  13.744  20.835  0.00  0.00    +0.000 A 
ATOM     13  C   UNL     1      -0.597  13.274  19.948  0.00  0.00    +0.000 A 
ATOM     14  C   UNL     1      -0.047  14.221  19.070  0.00  0.00    +0.000 A 
ATOM     15  C   UNL     1      -0.454  15.562  19.060  0.00  0.00    +0.000 A 
BRANCH  10  17
ATOM     16  C   UNL     1      -1.713  18.082  18.866  0.00  0.00    +0.000 C 
ATOM     17  O   UNL     1      -1.936  17.268  20.011  0.00  0.00    +0.000 OA
ENDBRANCH  10  17
ENDBRANCH   2  13
ENDBRANCH   1   6
BRANCH   1  18
ATOM     18  C   UNL     1       1.083   5.873  20.682  0.00  0.00    +0.000 C 
BRANCH  18  19
ATOM     19  N   UNL     1       2.096   4.950  20.148  0.00  0.00    +0.000 N 
ATOM     20  C   UNL     1       1.902   3.581  20.046  0.00  0.00    +0.000 C 
ATOM     21  O   UNL     1       0.813   3.050  20.291  0.00  0.00    +0.000 OA
ATOM     22  H   UNL     1       3.047   5.301  20.117  0.00  0.00    +0.000 HD
BRANCH  20  23
ATOM     23  C   UNL     1       3.134   2.787  19.558  0.00  0.00    +0.000 C 
BRANCH  23  24
ATOM     24  N   UNL     1       4.033   3.502  18.640  0.00  0.00    +0.000 N 
ATOM     25  C   UNL     1       5.273   3.933  19.116  0.00  0.00    +0.000 A 
ATOM     26  C   UNL     1       5.817   5.015  18.523  0.00  0.00    +0.000 A 
ATOM     27  C   UNL     1       5.903   4.837  17.061  0.00  0.00    +0.000 A 
ATOM     28  C   UNL     1       7.000   5.304  16.333  0.00  0.00    +0.000 A 
ATOM     29  C   UNL     1       7.118   4.963  14.986  0.00  0.00    +0.000 A 
ATOM     30  C   UNL     1       6.130   4.189  14.366  0.00  0.00    +0.000 A 
ATOM     31  C   UNL     1       4.985   3.791  15.071  0.00  0.00    +0.000 A 
ATOM     32  C   UNL     1       4.874   4.117  16.427  0.00  0.00    +0.000 A 
ATOM     33  C   UNL     1       3.728   3.625  17.269  0.00  0.00    +0.000 A 
ATOM     34  O   UNL     1       2.650   3.338  16.761  0.00  0.00    +0.000 OA
ENDBRANCH  23  24
ENDBRANCH  20  23
ENDBRANCH  18  19
ENDBRANCH   1  18
TORSDOF 7
ENDMDL
MODEL 9
REMARK VINA RESULT:      -7.2      3.066      5.007
REMARK  Name = 
REMARK  8 active torsions:
REMARK  status: ('A' for Active; 'I' for Inactive)
REMARK    1  A    between atoms: C_1  and  O_2
REMARK    2  A    between atoms: O_2  and  C_3
REMARK    3  A    between atoms: C_6  and  N_7
REMARK    4  A    between atoms: C_11  and  C_13
REMARK    5  A    between atoms: C_13  and  C_14
REMARK    6  A    between atoms: C_14  and  N_15
REMARK    7  A    between atoms: C_16  and  C_18
REMARK    8  A    between atoms: C_18  and  N_19
REMARK                            x       y       z     vdW  Elec       q    Type
REMARK                         _______ _______ _______ _____ _____    ______ ____
ROOT
ATOM      1  C   UNL     1       1.518   7.911  20.497  0.00  0.00    +0.000 C 
ENDROOT
BRANCH   1   6
ATOM      2  N   UNL     1       0.210  12.902  20.304  0.00  0.00    +0.000 N 
ATOM      3  C   UNL     1      -0.124  12.417  21.654  0.00  0.00    +0.000 C 
ATOM      4  C   UNL     1      -0.626  10.957  21.566  0.00  0.00    +0.000 C 
ATOM      5  N   UNL     1       0.312  10.084  20.832  0.00  0.00    +0.000 N 
ATOM      6  C   UNL     1       0.538   8.786  21.280  0.00  0.00    +0.000 C 
ATOM      7  O   UNL     1       0.044   8.373  22.332  0.00  0.00    +0.000 OA
ATOM      8  C   UNL     1       0.683  10.611  19.506  0.00  0.00    +0.000 C 
ATOM      9  C   UNL     1       1.180  12.067  19.579  0.00  0.00    +0.000 C 
BRANCH   2  13
ATOM     10  C   UNL     1      -0.787  16.824  19.081  0.00  0.00    +0.000 A 
ATOM     11  C   UNL     1       0.222  16.119  18.432  0.00  0.00    +0.000 A 
ATOM     12  C   UNL     1       0.539  14.808  18.811  0.00  0.00    +0.000 A 
ATOM     13  C   UNL     1      -0.131  14.164  19.861  0.00  0.00    +0.000 A 
ATOM     14  C   UNL     1      -1.143  14.898  20.498  0.00  0.00    +0.000 A 
ATOM     15  C   UNL     1      -1.468  16.210  20.125  0.00  0.00    +0.000 A 
BRANCH  10  17
ATOM     16  C   UNL     1      -0.320  18.465  17.444  0.00  0.00    +0.000 C 
ATOM     17  O   UNL     1      -0.983  18.108  18.650  0.00  0.00    +0.000 OA
ENDBRANCH  10  17
ENDBRANCH   2  13
ENDBRANCH   1   6
BRANCH   1  18
ATOM     18  C   UNL     1       1.436   6.433  20.893  0.00  0.00    +0.000 C 
BRANCH  18  19
ATOM     19  N   UNL     1       2.058   5.527  19.914  0.00  0.00    +0.000 N 
ATOM     20  C   UNL     1       1.835   4.159  19.891  0.00  0.00    +0.000 C 
ATOM     21  O   UNL     1       1.001   3.616  20.625  0.00  0.00    +0.000 OA
ATOM     22  H   UNL     1       2.874   5.886  19.432  0.00  0.00    +0.000 HD
BRANCH  20  23
ATOM     23  C   UNL     1       2.670   3.384  18.849  0.00  0.00    +0.000 C 
BRANCH  23  24
ATOM     24  N   UNL     1       3.832   4.099  18.300  0.00  0.00    +0.000 N 
ATOM     25  C   UNL     1       3.641   4.948  17.207  0.00  0.00    +0.000 A 
ATOM     26  C   UNL     1       4.693   5.134  16.383  0.00  0.00    +0.000 A 
ATOM     27  C   UNL     1       5.885   5.579  17.130  0.00  0.00    +0.000 A 
ATOM     28  C   UNL     1       6.762   6.529  16.603  0.00  0.00    +0.000 A 
ATOM     29  C   UNL     1       7.775   7.042  17.412  0.00  0.00    +0.000 A 
ATOM     30  C   UNL     1       7.928   6.584  18.726  0.00  0.00    +0.000 A 
ATOM     31  C   UNL     1       7.104   5.568  19.231  0.00  0.00    +0.000 A 
ATOM     32  C   UNL     1       6.076   5.065  18.426  0.00  0.00    +0.000 A 
ATOM     33  C   UNL     1       5.085   4.056  18.943  0.00  0.00    +0.000 A 
ATOM     34  O   UNL     1       5.376   3.305  19.866  0.00  0.00    +0.000 OA
ENDBRANCH  23  24
ENDBRANCH  20  23
ENDBRANCH  18  19
ENDBRANCH   1  18
TORSDOF 7
ENDMDL
