MODEL 1
REMARK VINA RESULT:      -7.8      0.000      0.000
REMARK  Name = 
REMARK  4 active torsions:
REMARK  status: ('A' for Active; 'I' for Inactive)
REMARK    1  A    between atoms: C_2  and  C_21
REMARK    2  A    between atoms: N_3  and  C_4
REMARK    3  A    between atoms: C_4  and  C_5
REMARK    4  A    between atoms: C_10  and  C_11
REMARK                            x       y       z     vdW  Elec       q    Type
REMARK                         _______ _______ _______ _____ _____    ______ ____
ROOT
ATOM      1  C   UNL     1       7.405   7.378  17.822  0.00  0.00    +0.000 C 
ATOM      2  C   UNL     1       7.932   6.614  19.046  0.00  0.00    +0.000 C 
ATOM      3  O   UNL     1       7.533   5.246  19.062  0.00  0.00    +0.000 OA
ATOM      4  C   UNL     1       6.124   5.044  19.065  0.00  0.00    +0.000 C 
ATOM      5  C   UNL     1       5.634   4.964  17.671  0.00  0.00    +0.000 A 
ATOM      6  C   UNL     1       4.521   4.372  17.096  0.00  0.00    +0.000 A 
ATOM      7  N   UNL     1       4.532   4.593  15.743  0.00  0.00    +0.000 NA
ATOM      8  N   UNL     1       5.591   5.327  15.453  0.00  0.00    +0.000 NA
ATOM      9  N   UNL     1       6.257   5.549  16.601  0.00  0.00    +0.000 N 
ATOM     10  C   UNL     1       7.392   6.451  16.595  0.00  0.00    +0.000 C 
ENDROOT
BRANCH   6  11
ATOM     11  C   UNL     1       3.471   3.618  17.750  0.00  0.00    +0.000 A 
ATOM     12  C   UNL     1       2.173   4.110  17.884  0.00  0.00    +0.000 A 
ATOM     13  C   UNL     1       1.234   3.336  18.542  0.00  0.00    +0.000 A 
ATOM     14  N   UNL     1       1.491   2.113  19.043  0.00  0.00    +0.000 NA
ATOM     15  C   UNL     1       2.744   1.639  18.877  0.00  0.00    +0.000 A 
ATOM     16  C   UNL     1       3.755   2.343  18.241  0.00  0.00    +0.000 A 
ENDBRANCH   6  11
BRANCH   1  17
ATOM     17  C   UNL     1       8.226   8.655  17.617  0.00  0.00    +0.000 C 
BRANCH  17  20
ATOM     18  O   UNL     1       9.292  11.247  18.097  0.00  0.00    +0.000 OA
ATOM     19  C   UNL     1       9.270  10.427  19.009  0.00  0.00    +0.000 C 
ATOM     20  N   UNL     1       8.799   9.137  18.854  0.00  0.00    +0.000 N 
ATOM     21  H   UNL     1       8.843   8.540  19.675  0.00  0.00    +0.000 HD
BRANCH  19  22
ATOM     22  C   UNL     1       9.719  10.749  20.441  0.00  0.00    +0.000 C 
ATOM     23  C   UNL     1      10.848  11.757  20.516  0.00  0.00    +0.000 C 
ATOM     24  C   UNL     1      10.111  13.065  20.648  0.00  0.00    +0.000 C 
ATOM     25  C   UNL     1       8.908  12.677  21.479  0.00  0.00    +0.000 C 
ATOM     26  O   UNL     1       8.630  11.289  21.220  0.00  0.00    +0.000 OA
ENDBRANCH  19  22
ENDBRANCH  17  20
ENDBRANCH   1  17
TORSDOF 4
ENDMDL
MODEL 2
REMARK VINA RESULT:      -7.6      4.598      6.885
REMARK  Name = 
REMARK  4 active torsions:
REMARK  status: ('A' for Active; 'I' for Inactive)
REMARK    1  A    between atoms: C_2  and  C_21
REMARK    2  A    between atoms: N_3  and  C_4
REMARK    3  A    between atoms: C_4  and  C_5
REMARK    4  A    between atoms: C_10  and  C_11
REMARK                            x       y       z     vdW  Elec       q    Type
REMARK                         _______ _______ _______ _____ _____    ______ ____
ROOT
ATOM      1  C   UNL     1       3.411   4.280  19.531  0.00  0.00    +0.000 C 
ATOM      2  C   UNL     1       2.251   3.653  20.320  0.00  0.00    +0.000 C 
ATOM      3  O   UNL     1       1.098   4.489  20.371  0.00  0.00    +0.000 OA
ATOM      4  C   UNL     1       1.320   5.761  20.968  0.00  0.00    +0.000 C 
ATOM      5  C   UNL     1       1.729   6.730  19.926  0.00  0.00    +0.000 A 
ATOM      6  C   UNL     1       1.647   8.111  19.838  0.00  0.00    +0.000 A 
ATOM      7  N   UNL     1       2.179   8.526  18.645  0.00  0.00    +0.000 NA
ATOM      8  N   UNL     1       2.621   7.463  17.997  0.00  0.00    +0.000 NA
ATOM      9  N   UNL     1       2.352   6.385  18.757  0.00  0.00    +0.000 N 
ATOM     10  C   UNL     1       2.858   5.090  18.346  0.00  0.00    +0.000 C 
ENDROOT
BRANCH   6  11
ATOM     11  C   UNL     1       1.094   9.037  20.805  0.00  0.00    +0.000 A 
ATOM     12  C   UNL     1       0.900   8.690  22.141  0.00  0.00    +0.000 A 
ATOM     13  C   UNL     1       0.347   9.627  22.997  0.00  0.00    +0.000 A 
ATOM     14  N   UNL     1       0.005  10.874  22.621  0.00  0.00    +0.000 NA
ATOM     15  C   UNL     1       0.229  11.202  21.331  0.00  0.00    +0.000 A 
ATOM     16  C   UNL     1       0.769  10.332  20.397  0.00  0.00    +0.000 A 
ENDBRANCH   6  11
BRANCH   1  17
ATOM     17  C   UNL     1       4.403   3.189  19.117  0.00  0.00    +0.000 C 
BRANCH  17  20
ATOM     18  O   UNL     1       5.313   3.750  16.481  0.00  0.00    +0.000 OA
ATOM     19  C   UNL     1       6.039   4.006  17.437  0.00  0.00    +0.000 C 
ATOM     20  N   UNL     1       5.689   3.737  18.745  0.00  0.00    +0.000 N 
ATOM     21  H   UNL     1       6.377   3.978  19.455  0.00  0.00    +0.000 HD
BRANCH  19  22
ATOM     22  C   UNL     1       7.402   4.697  17.295  0.00  0.00    +0.000 C 
ATOM     23  C   UNL     1       7.346   6.014  16.546  0.00  0.00    +0.000 C 
ATOM     24  C   UNL     1       7.160   7.015  17.656  0.00  0.00    +0.000 C 
ATOM     25  C   UNL     1       7.969   6.407  18.781  0.00  0.00    +0.000 C 
ATOM     26  O   UNL     1       7.980   4.981  18.587  0.00  0.00    +0.000 OA
ENDBRANCH  19  22
ENDBRANCH  17  20
ENDBRANCH   1  17
TORSDOF 4
ENDMDL
MODEL 3
REMARK VINA RESULT:      -7.5      1.226      1.399
REMARK  Name = 
REMARK  4 active torsions:
REMARK  status: ('A' for Active; 'I' for Inactive)
REMARK    1  A    between atoms: C_2  and  C_21
REMARK    2  A    between atoms: N_3  and  C_4
REMARK    3  A    between atoms: C_4  and  C_5
REMARK    4  A    between atoms: C_10  and  C_11
REMARK                            x       y       z     vdW  Elec       q    Type
REMARK                         _______ _______ _______ _____ _____    ______ ____
ROOT
ATOM      1  C   UNL     1       7.350   7.411  18.166  0.00  0.00    +0.000 C 
ATOM      2  C   UNL     1       8.175   6.389  18.960  0.00  0.00    +0.000 C 
ATOM      3  O   UNL     1       7.596   5.086  18.961  0.00  0.00    +0.000 OA
ATOM      4  C   UNL     1       6.285   5.026  19.510  0.00  0.00    +0.000 C 
ATOM      5  C   UNL     1       5.290   5.250  18.438  0.00  0.00    +0.000 A 
ATOM      6  C   UNL     1       3.960   4.885  18.294  0.00  0.00    +0.000 A 
ATOM      7  N   UNL     1       3.486   5.348  17.094  0.00  0.00    +0.000 NA
ATOM      8  N   UNL     1       4.456   6.016  16.496  0.00  0.00    +0.000 NA
ATOM      9  N   UNL     1       5.539   5.958  17.293  0.00  0.00    +0.000 N 
ATOM     10  C   UNL     1       6.714   6.730  16.941  0.00  0.00    +0.000 C 
ENDROOT
BRANCH   6  11
ATOM     11  C   UNL     1       3.136   4.131  19.216  0.00  0.00    +0.000 A 
ATOM     12  C   UNL     1       2.732   2.822  18.955  0.00  0.00    +0.000 A 
ATOM     13  C   UNL     1       1.926   2.179  19.878  0.00  0.00    +0.000 A 
ATOM     14  N   UNL     1       1.526   2.734  21.037  0.00  0.00    +0.000 NA
ATOM     15  C   UNL     1       1.951   3.991  21.288  0.00  0.00    +0.000 A 
ATOM     16  C   UNL     1       2.752   4.720  20.422  0.00  0.00    +0.000 A 
ENDBRANCH   6  11
BRANCH   1  17
ATOM     17  C   UNL     1       8.224   8.618  17.810  0.00  0.00    +0.000 C 
BRANCH  17  20
ATOM     18  O   UNL     1       9.352  11.219  18.027  0.00  0.00    +0.000 OA
ATOM     19  C   UNL     1       9.361  10.475  19.003  0.00  0.00    +0.000 C 
ATOM     20  N   UNL     1       8.864   9.187  18.975  0.00  0.00    +0.000 N 
ATOM     21  H   UNL     1       8.938   8.657  19.840  0.00  0.00    +0.000 HD
BRANCH  19  22
ATOM     22  C   UNL     1       9.884  10.903  20.381  0.00  0.00    +0.000 C 
ATOM     23  C   UNL     1      10.977  11.952  20.322  0.00  0.00    +0.000 C 
ATOM     24  C   UNL     1      10.201  13.240  20.420  0.00  0.00    +0.000 C 
ATOM     25  C   UNL     1       9.066  12.866  21.347  0.00  0.00    +0.000 C 
ATOM     26  O   UNL     1       8.824  11.455  21.192  0.00  0.00    +0.000 OA
ENDBRANCH  19  22
ENDBRANCH  17  20
ENDBRANCH   1  17
TORSDOF 4
ENDMDL
MODEL 4
REMARK VINA RESULT:      -7.4      4.770      7.253
REMARK  Name = 
REMARK  4 active torsions:
REMARK  status: ('A' for Active; 'I' for Inactive)
REMARK    1  A    between atoms: C_2  and  C_21
REMARK    2  A    between atoms: N_3  and  C_4
REMARK    3  A    between atoms: C_4  and  C_5
REMARK    4  A    between atoms: C_10  and  C_11
REMARK                            x       y       z     vdW  Elec       q    Type
REMARK                         _______ _______ _______ _____ _____    ______ ____
ROOT
ATOM      1  C   UNL     1       4.334   5.656  19.437  0.00  0.00    +0.000 C 
ATOM      2  C   UNL     1       3.237   4.866  20.165  0.00  0.00    +0.000 C 
ATOM      3  O   UNL     1       1.925   5.350  19.888  0.00  0.00    +0.000 OA
ATOM      4  C   UNL     1       1.714   6.711  20.245  0.00  0.00    +0.000 C 
ATOM      5  C   UNL     1       2.061   7.580  19.099  0.00  0.00    +0.000 A 
ATOM      6  C   UNL     1       1.660   8.854  18.727  0.00  0.00    +0.000 A 
ATOM      7  N   UNL     1       2.288   9.210  17.561  0.00  0.00    +0.000 NA
ATOM      8  N   UNL     1       3.090   8.222  17.206  0.00  0.00    +0.000 NA
ATOM      9  N   UNL     1       2.956   7.243  18.120  0.00  0.00    +0.000 N 
ATOM     10  C   UNL     1       3.831   6.089  18.050  0.00  0.00    +0.000 C 
ENDROOT
BRANCH   6  11
ATOM     11  C   UNL     1       0.727   9.732  19.404  0.00  0.00    +0.000 A 
ATOM     12  C   UNL     1       0.873  10.080  20.746  0.00  0.00    +0.000 A 
ATOM     13  C   UNL     1      -0.075  10.907  21.324  0.00  0.00    +0.000 A 
ATOM     14  N   UNL     1      -1.125  11.422  20.658  0.00  0.00    +0.000 NA
ATOM     15  C   UNL     1      -1.233  11.098  19.352  0.00  0.00    +0.000 A 
ATOM     16  C   UNL     1      -0.341  10.272  18.686  0.00  0.00    +0.000 A 
ENDBRANCH   6  11
BRANCH   1  17
ATOM     17  C   UNL     1       5.623   4.830  19.391  0.00  0.00    +0.000 C 
BRANCH  17  20
ATOM     18  O   UNL     1       7.750   5.681  17.705  0.00  0.00    +0.000 OA
ATOM     19  C   UNL     1       6.989   4.799  17.317  0.00  0.00    +0.000 C 
ATOM     20  N   UNL     1       5.914   4.350  18.058  0.00  0.00    +0.000 N 
ATOM     21  H   UNL     1       5.342   3.626  17.629  0.00  0.00    +0.000 HD
BRANCH  19  22
ATOM     22  C   UNL     1       7.169   4.061  15.984  0.00  0.00    +0.000 C 
ATOM     23  C   UNL     1       5.873   3.546  15.389  0.00  0.00    +0.000 C 
ATOM     24  C   UNL     1       5.450   4.682  14.493  0.00  0.00    +0.000 C 
ATOM     25  C   UNL     1       6.775   5.208  13.988  0.00  0.00    +0.000 C 
ATOM     26  O   UNL     1       7.768   4.919  14.989  0.00  0.00    +0.000 OA
ENDBRANCH  19  22
ENDBRANCH  17  20
ENDBRANCH   1  17
TORSDOF 4
ENDMDL
MODEL 5
REMARK VINA RESULT:      -7.4      5.915      7.490
REMARK  Name = 
REMARK  4 active torsions:
REMARK  status: ('A' for Active; 'I' for Inactive)
REMARK    1  A    between atoms: C_2  and  C_21
REMARK    2  A    between atoms: N_3  and  C_4
REMARK    3  A    between atoms: C_4  and  C_5
REMARK    4  A    between atoms: C_10  and  C_11
REMARK                            x       y       z     vdW  Elec       q    Type
REMARK                         _______ _______ _______ _____ _____    ______ ____
ROOT
ATOM      1  C   UNL     1       1.805   7.976  20.551  0.00  0.00    +0.000 C 
ATOM      2  C   UNL     1       1.620   8.663  19.191  0.00  0.00    +0.000 C 
ATOM      3  O   UNL     1       1.925   7.810  18.090  0.00  0.00    +0.000 OA
ATOM      4  C   UNL     1       3.258   7.311  18.086  0.00  0.00    +0.000 C 
ATOM      5  C   UNL     1       3.309   6.034  18.833  0.00  0.00    +0.000 A 
ATOM      6  C   UNL     1       4.166   4.946  18.783  0.00  0.00    +0.000 A 
ATOM      7  N   UNL     1       3.769   4.007  19.699  0.00  0.00    +0.000 NA
ATOM      8  N   UNL     1       2.716   4.478  20.343  0.00  0.00    +0.000 NA
ATOM      9  N   UNL     1       2.433   5.688  19.827  0.00  0.00    +0.000 N 
ATOM     10  C   UNL     1       1.401   6.495  20.447  0.00  0.00    +0.000 C 
ENDROOT
BRANCH   6  11
ATOM     11  C   UNL     1       5.317   4.754  17.924  0.00  0.00    +0.000 A 
ATOM     12  C   UNL     1       5.193   4.467  16.566  0.00  0.00    +0.000 A 
ATOM     13  C   UNL     1       6.344   4.276  15.820  0.00  0.00    +0.000 A 
ATOM     14  N   UNL     1       7.588   4.377  16.324  0.00  0.00    +0.000 NA
ATOM     15  C   UNL     1       7.689   4.686  17.634  0.00  0.00    +0.000 A 
ATOM     16  C   UNL     1       6.598   4.886  18.465  0.00  0.00    +0.000 A 
ENDBRANCH   6  11
BRANCH   1  17
ATOM     17  C   UNL     1       1.035   8.746  21.629  0.00  0.00    +0.000 C 
BRANCH  17  20
ATOM     18  O   UNL     1      -0.314  10.737  23.147  0.00  0.00    +0.000 OA
ATOM     19  C   UNL     1      -0.065  10.948  21.964  0.00  0.00    +0.000 C 
ATOM     20  N   UNL     1       0.558  10.024  21.147  0.00  0.00    +0.000 N 
ATOM     21  H   UNL     1       0.700  10.301  20.179  0.00  0.00    +0.000 HD
BRANCH  19  22
ATOM     22  C   UNL     1      -0.373  12.278  21.263  0.00  0.00    +0.000 C 
ATOM     23  C   UNL     1      -0.513  12.159  19.758  0.00  0.00    +0.000 C 
ATOM     24  C   UNL     1      -1.993  11.934  19.583  0.00  0.00    +0.000 C 
ATOM     25  C   UNL     1      -2.583  12.775  20.694  0.00  0.00    +0.000 C 
ATOM     26  O   UNL     1      -1.607  12.849  21.749  0.00  0.00    +0.000 OA
ENDBRANCH  19  22
ENDBRANCH  17  20
ENDBRANCH   1  17
TORSDOF 4
ENDMDL
MODEL 6
REMARK VINA RESULT:      -7.4      1.162      1.205
REMARK  Name = 
REMARK  4 active torsions:
REMARK  status: ('A' for Active; 'I' for Inactive)
REMARK    1  A    between atoms: C_2  and  C_21
REMARK    2  A    between atoms: N_3  and  C_4
REMARK    3  A    between atoms: C_4  and  C_5
REMARK    4  A    between atoms: C_10  and  C_11
REMARK                            x       y       z     vdW  Elec       q    Type
REMARK                         _______ _______ _______ _____ _____    ______ ____
ROOT
ATOM      1  C   UNL     1       7.443   7.488  18.021  0.00  0.00    +0.000 C 
ATOM      2  C   UNL     1       8.237   6.634  19.019  0.00  0.00    +0.000 C 
ATOM      3  O   UNL     1       7.737   5.303  19.134  0.00  0.00    +0.000 OA
ATOM      4  C   UNL     1       6.381   5.220  19.555  0.00  0.00    +0.000 C 
ATOM      5  C   UNL     1       5.494   5.237  18.370  0.00  0.00    +0.000 A 
ATOM      6  C   UNL     1       4.211   4.764  18.145  0.00  0.00    +0.000 A 
ATOM      7  N   UNL     1       3.841   5.040  16.854  0.00  0.00    +0.000 NA
ATOM      8  N   UNL     1       4.829   5.695  16.272  0.00  0.00    +0.000 NA
ATOM      9  N   UNL     1       5.822   5.813  17.172  0.00  0.00    +0.000 N 
ATOM     10  C   UNL     1       6.982   6.617  16.840  0.00  0.00    +0.000 C 
ENDROOT
BRANCH   6  11
ATOM     11  C   UNL     1       3.338   4.074  19.073  0.00  0.00    +0.000 A 
ATOM     12  C   UNL     1       2.889   4.664  20.253  0.00  0.00    +0.000 A 
ATOM     13  C   UNL     1       2.074   3.928  21.095  0.00  0.00    +0.000 A 
ATOM     14  N   UNL     1       1.662   2.674  20.831  0.00  0.00    +0.000 NA
ATOM     15  C   UNL     1       2.081   2.130  19.669  0.00  0.00    +0.000 A 
ATOM     16  C   UNL     1       2.905   2.783  18.766  0.00  0.00    +0.000 A 
ENDBRANCH   6  11
BRANCH   1  17
ATOM     17  C   UNL     1       8.279   8.700  17.598  0.00  0.00    +0.000 C 
BRANCH  17  20
ATOM     18  O   UNL     1       8.861  11.471  17.870  0.00  0.00    +0.000 OA
ATOM     19  C   UNL     1       9.134  10.704  18.789  0.00  0.00    +0.000 C 
ATOM     20  N   UNL     1       8.915   9.342  18.727  0.00  0.00    +0.000 N 
ATOM     21  H   UNL     1       9.195   8.803  19.542  0.00  0.00    +0.000 HD
BRANCH  19  22
ATOM     22  C   UNL     1       9.710  11.174  20.132  0.00  0.00    +0.000 C 
ATOM     23  C   UNL     1      11.195  11.479  20.088  0.00  0.00    +0.000 C 
ATOM     24  C   UNL     1      11.217  12.952  19.772  0.00  0.00    +0.000 C 
ATOM     25  C   UNL     1       9.997  13.461  20.507  0.00  0.00    +0.000 C 
ATOM     26  O   UNL     1       9.054  12.376  20.588  0.00  0.00    +0.000 OA
ENDBRANCH  19  22
ENDBRANCH  17  20
ENDBRANCH   1  17
TORSDOF 4
ENDMDL
MODEL 7
REMARK VINA RESULT:      -7.4      4.941      6.897
REMARK  Name = 
REMARK  4 active torsions:
REMARK  status: ('A' for Active; 'I' for Inactive)
REMARK    1  A    between atoms: C_2  and  C_21
REMARK    2  A    between atoms: N_3  and  C_4
REMARK    3  A    between atoms: C_4  and  C_5
REMARK    4  A    between atoms: C_10  and  C_11
REMARK                            x       y       z     vdW  Elec       q    Type
REMARK                         _______ _______ _______ _____ _____    ______ ____
ROOT
ATOM      1  C   UNL     1       3.377   5.789  18.734  0.00  0.00    +0.000 C 
ATOM      2  C   UNL     1       2.849   4.367  18.497  0.00  0.00    +0.000 C 
ATOM      3  O   UNL     1       3.793   3.526  17.838  0.00  0.00    +0.000 OA
ATOM      4  C   UNL     1       4.208   3.996  16.561  0.00  0.00    +0.000 C 
ATOM      5  C   UNL     1       5.394   4.867  16.717  0.00  0.00    +0.000 A 
ATOM      6  C   UNL     1       6.427   5.217  15.861  0.00  0.00    +0.000 A 
ATOM      7  N   UNL     1       7.286   6.069  16.505  0.00  0.00    +0.000 NA
ATOM      8  N   UNL     1       6.815   6.292  17.719  0.00  0.00    +0.000 NA
ATOM      9  N   UNL     1       5.685   5.574  17.853  0.00  0.00    +0.000 N 
ATOM     10  C   UNL     1       4.882   5.741  19.048  0.00  0.00    +0.000 C 
ENDROOT
BRANCH   6  11
ATOM     11  C   UNL     1       6.638   4.788  14.494  0.00  0.00    +0.000 A 
ATOM     12  C   UNL     1       5.879   3.779  13.904  0.00  0.00    +0.000 A 
ATOM     13  C   UNL     1       6.159   3.414  12.598  0.00  0.00    +0.000 A 
ATOM     14  N   UNL     1       7.111   3.997  11.847  0.00  0.00    +0.000 NA
ATOM     15  C   UNL     1       7.816   4.993  12.424  0.00  0.00    +0.000 A 
ATOM     16  C   UNL     1       7.617   5.423  13.726  0.00  0.00    +0.000 A 
ENDBRANCH   6  11
BRANCH   1  17
ATOM     17  C   UNL     1       2.546   6.474  19.823  0.00  0.00    +0.000 C 
BRANCH  17  20
ATOM     18  O   UNL     1       0.856   8.224  21.298  0.00  0.00    +0.000 OA
ATOM     19  C   UNL     1       1.318   8.596  20.224  0.00  0.00    +0.000 C 
ATOM     20  N   UNL     1       2.120   7.799  19.430  0.00  0.00    +0.000 N 
ATOM     21  H   UNL     1       2.433   8.207  18.553  0.00  0.00    +0.000 HD
BRANCH  19  22
ATOM     22  C   UNL     1       1.098  10.005  19.657  0.00  0.00    +0.000 C 
ATOM     23  C   UNL     1       0.259  10.032  18.394  0.00  0.00    +0.000 C 
ATOM     24  C   UNL     1      -1.135  10.228  18.931  0.00  0.00    +0.000 C 
ATOM     25  C   UNL     1      -0.899  11.119  20.130  0.00  0.00    +0.000 C 
ATOM     26  O   UNL     1       0.430  10.853  20.615  0.00  0.00    +0.000 OA
ENDBRANCH  19  22
ENDBRANCH  17  20
ENDBRANCH   1  17
TORSDOF 4
ENDMDL
MODEL 8
REMARK VINA RESULT:      -7.3      5.728      7.212
REMARK  Name = 
REMARK  4 active torsions:
REMARK  status: ('A' for Active; 'I' for Inactive)
REMARK    1  A    between atoms: C_2  and  C_21
REMARK    2  A    between atoms: N_3  and  C_4
REMARK    3  A    between atoms: C_4  and  C_5
REMARK    4  A    between atoms: C_10  and  C_11
REMARK                            x       y       z     vdW  Elec       q    Type
REMARK                         _______ _______ _______ _____ _____    ______ ____
ROOT
ATOM      1  C   UNL     1       1.868   7.836  20.658  0.00  0.00    +0.000 C 
ATOM      2  C   UNL     1       1.660   8.569  19.325  0.00  0.00    +0.000 C 
ATOM      3  O   UNL     1       1.934   7.749  18.191  0.00  0.00    +0.000 OA
ATOM      4  C   UNL     1       3.261   7.240  18.141  0.00  0.00    +0.000 C 
ATOM      5  C   UNL     1       3.316   5.939  18.844  0.00  0.00    +0.000 A 
ATOM      6  C   UNL     1       4.163   4.846  18.741  0.00  0.00    +0.000 A 
ATOM      7  N   UNL     1       3.777   3.881  19.635  0.00  0.00    +0.000 NA
ATOM      8  N   UNL     1       2.742   4.339  20.316  0.00  0.00    +0.000 NA
ATOM      9  N   UNL     1       2.459   5.568  19.846  0.00  0.00    +0.000 N 
ATOM     10  C   UNL     1       1.448   6.363  20.515  0.00  0.00    +0.000 C 
ENDROOT
BRANCH   6  11
ATOM     11  C   UNL     1       5.293   4.672  17.851  0.00  0.00    +0.000 A 
ATOM     12  C   UNL     1       5.139   4.339  16.507  0.00  0.00    +0.000 A 
ATOM     13  C   UNL     1       6.272   4.170  15.730  0.00  0.00    +0.000 A 
ATOM     14  N   UNL     1       7.526   4.335  16.190  0.00  0.00    +0.000 NA
ATOM     15  C   UNL     1       7.656   4.688  17.486  0.00  0.00    +0.000 A 
ATOM     16  C   UNL     1       6.584   4.871  18.346  0.00  0.00    +0.000 A 
ENDBRANCH   6  11
BRANCH   1  17
ATOM     17  C   UNL     1       1.129   8.577  21.776  0.00  0.00    +0.000 C 
BRANCH  17  20
ATOM     18  O   UNL     1      -0.271  10.513  23.319  0.00  0.00    +0.000 OA
ATOM     19  C   UNL     1      -0.280  10.597  22.095  0.00  0.00    +0.000 C 
ATOM     20  N   UNL     1       0.345   9.682  21.271  0.00  0.00    +0.000 N 
ATOM     21  H   UNL     1       0.258   9.844  20.270  0.00  0.00    +0.000 HD
BRANCH  19  22
ATOM     22  C   UNL     1      -0.950  11.751  21.337  0.00  0.00    +0.000 C 
ATOM     23  C   UNL     1      -1.080  13.024  22.150  0.00  0.00    +0.000 C 
ATOM     24  C   UNL     1       0.182  13.768  21.797  0.00  0.00    +0.000 C 
ATOM     25  C   UNL     1       0.389  13.388  20.347  0.00  0.00    +0.000 C 
ATOM     26  O   UNL     1      -0.207  12.093  20.147  0.00  0.00    +0.000 OA
ENDBRANCH  19  22
ENDBRANCH  17  20
ENDBRANCH   1  17
TORSDOF 4
ENDMDL
MODEL 9
REMARK VINA RESULT:      -7.3      4.840      7.253
REMARK  Name = 
REMARK  4 active torsions:
REMARK  status: ('A' for Active; 'I' for Inactive)
REMARK    1  A    between atoms: C_2  and  C_21
REMARK    2  A    between atoms: N_3  and  C_4
REMARK    3  A    between atoms: C_4  and  C_5
REMARK    4  A    between atoms: C_10  and  C_11
REMARK                            x       y       z     vdW  Elec       q    Type
REMARK                         _______ _______ _______ _____ _____    ______ ____
ROOT
ATOM      1  C   UNL     1       3.743   4.484  19.638  0.00  0.00    +0.000 C 
ATOM      2  C   UNL     1       2.606   3.805  20.415  0.00  0.00    +0.000 C 
ATOM      3  O   UNL     1       1.397   4.560  20.406  0.00  0.00    +0.000 OA
ATOM      4  C   UNL     1       1.514   5.863  20.965  0.00  0.00    +0.000 C 
ATOM      5  C   UNL     1       1.887   6.823  19.903  0.00  0.00    +0.000 A 
ATOM      6  C   UNL     1       1.713   8.192  19.765  0.00  0.00    +0.000 A 
ATOM      7  N   UNL     1       2.251   8.604  18.573  0.00  0.00    +0.000 NA
ATOM      8  N   UNL     1       2.784   7.554  17.975  0.00  0.00    +0.000 NA
ATOM      9  N   UNL     1       2.566   6.485  18.763  0.00  0.00    +0.000 N 
ATOM     10  C   UNL     1       3.171   5.215  18.411  0.00  0.00    +0.000 C 
ENDROOT
BRANCH   6  11
ATOM     11  C   UNL     1       1.070   9.108  20.685  0.00  0.00    +0.000 A 
ATOM     12  C   UNL     1       0.903   8.811  22.036  0.00  0.00    +0.000 A 
ATOM     13  C   UNL     1       0.259   9.733  22.844  0.00  0.00    +0.000 A 
ATOM     14  N   UNL     1      -0.197  10.921  22.406  0.00  0.00    +0.000 NA
ATOM     15  C   UNL     1       0.001  11.205  21.102  0.00  0.00    +0.000 A 
ATOM     16  C   UNL     1       0.626  10.345  20.213  0.00  0.00    +0.000 A 
ENDBRANCH   6  11
BRANCH   1  17
ATOM     17  C   UNL     1       4.819   3.452  19.288  0.00  0.00    +0.000 C 
BRANCH  17  20
ATOM     18  O   UNL     1       7.216   4.912  18.825  0.00  0.00    +0.000 OA
ATOM     19  C   UNL     1       6.619   4.415  17.874  0.00  0.00    +0.000 C 
ATOM     20  N   UNL     1       5.434   3.720  18.007  0.00  0.00    +0.000 N 
ATOM     21  H   UNL     1       5.020   3.366  17.147  0.00  0.00    +0.000 HD
BRANCH  19  22
ATOM     22  C   UNL     1       7.142   4.471  16.432  0.00  0.00    +0.000 C 
ATOM     23  C   UNL     1       6.291   3.699  15.443  0.00  0.00    +0.000 C 
ATOM     24  C   UNL     1       5.335   4.750  14.942  0.00  0.00    +0.000 C 
ATOM     25  C   UNL     1       6.194   5.995  14.938  0.00  0.00    +0.000 C 
ATOM     26  O   UNL     1       7.203   5.831  15.952  0.00  0.00    +0.000 OA
ENDBRANCH  19  22
ENDBRANCH  17  20
ENDBRANCH   1  17
TORSDOF 4
ENDMDL
