MODEL 1
REMARK VINA RESULT:      -8.6      0.000      0.000
REMARK  Name = 
REMARK  7 active torsions:
REMARK  status: ('A' for Active; 'I' for Inactive)
REMARK    1  A    between atoms: C_1  and  C_2
REMARK    2  A    between atoms: C_2  and  O_3
REMARK    3  A    between atoms: C_2  and  C_4
REMARK    4  A    between atoms: C_2  and  C_25
REMARK    5  A    between atoms: C_7  and  C_8
REMARK    6  A    between atoms: C_11  and  S_12
REMARK    7  A    between atoms: S_12  and  C_15
REMARK                            x       y       z     vdW  Elec       q    Type
REMARK                         _______ _______ _______ _____ _____    ______ ____
ROOT
ATOM      1  C   UNL     1       2.190   6.692  19.734  0.00  0.00    +0.000 A 
ATOM      2  C   UNL     1       1.813   5.779  20.707  0.00  0.00    +0.000 A 
ATOM      3  C   UNL     1       2.463   4.520  20.571  0.00  0.00    +0.000 A 
ATOM      4  C   UNL     1       3.308   4.486  19.480  0.00  0.00    +0.000 A 
ATOM      5  S   UNL     1       3.277   5.960  18.620  0.00  0.00    +0.000 S 
ENDROOT
BRANCH   1   9
ATOM      6  C   UNL     1       0.746  10.582  19.217  0.00  0.00    +0.000 A 
ATOM      7  C   UNL     1       1.406   9.879  18.225  0.00  0.00    +0.000 A 
ATOM      8  N   UNL     1       1.924   8.645  18.386  0.00  0.00    +0.000 NA
ATOM      9  C   UNL     1       1.803   8.102  19.610  0.00  0.00    +0.000 A 
ATOM     10  N   UNL     1       1.250   8.716  20.667  0.00  0.00    +0.000 NA
ATOM     11  C   UNL     1       0.748   9.948  20.448  0.00  0.00    +0.000 A 
BRANCH   6  13
ATOM     12  C   UNL     1       0.186  12.839  20.251  0.00  0.00    +0.000 C 
ATOM     13  C   UNL     1       0.086  11.933  19.009  0.00  0.00    +0.000 C 
BRANCH  13  14
ATOM     14  C   UNL     1      -1.416  11.791  18.579  0.00  0.00    +0.000 C 
ATOM     15  F   UNL     1      -1.823  10.498  18.581  0.00  0.00    +0.000 F 
ATOM     16  F   UNL     1      -2.247  12.469  19.406  0.00  0.00    +0.000 F 
ATOM     17  F   UNL     1      -1.638  12.265  17.329  0.00  0.00    +0.000 F 
ENDBRANCH  13  14
BRANCH  13  18
ATOM     18  O   UNL     1       0.858  12.633  17.998  0.00  0.00    +0.000 OA
ATOM     19  H   UNL     1       0.430  12.494  17.134  0.00  0.00    +0.000 HD
ENDBRANCH  13  18
ENDBRANCH   6  13
ENDBRANCH   1   9
BRANCH   4  20
ATOM     20  S   UNL     1       4.339   3.189  18.826  0.00  0.00    +0.000 S 
ATOM     21  O   UNL     1       5.242   2.780  19.884  0.00  0.00    +0.000 OA
ATOM     22  O   UNL     1       3.413   2.251  18.215  0.00  0.00    +0.000 OA
BRANCH  20  23
ATOM     23  C   UNL     1       5.265   3.951  17.548  0.00  0.00    +0.000 A 
ATOM     24  C   UNL     1       4.780   4.029  16.250  0.00  0.00    +0.000 A 
ATOM     25  C   UNL     1       5.598   4.585  15.269  0.00  0.00    +0.000 A 
ATOM     26  C   UNL     1       6.855   5.059  15.625  0.00  0.00    +0.000 A 
ATOM     27  N   UNL     1       7.729   5.540  14.658  0.00  0.00    +0.000 N 
ATOM     28  N   UNL     1       7.318   5.017  16.889  0.00  0.00    +0.000 NA
ATOM     29  C   UNL     1       6.512   4.472  17.832  0.00  0.00    +0.000 A 
ATOM     30  H   UNL     1       7.306   6.251  14.075  0.00  0.00    +0.000 HD
ATOM     31  H   UNL     1       8.559   5.878  15.138  0.00  0.00    +0.000 HD
ENDBRANCH  20  23
ENDBRANCH   4  20
TORSDOF 6
ENDMDL
MODEL 2
REMARK VINA RESULT:      -8.5      0.849      1.361
REMARK  Name = 
REMARK  7 active torsions:
REMARK  status: ('A' for Active; 'I' for Inactive)
REMARK    1  A    between atoms: C_1  and  C_2
REMARK    2  A    between atoms: C_2  and  O_3
REMARK    3  A    between atoms: C_2  and  C_4
REMARK    4  A    between atoms: C_2  and  C_25
REMARK    5  A    between atoms: C_7  and  C_8
REMARK    6  A    between atoms: C_11  and  S_12
REMARK    7  A    between atoms: S_12  and  C_15
REMARK                            x       y       z     vdW  Elec       q    Type
REMARK                         _______ _______ _______ _____ _____    ______ ____
ROOT
ATOM      1  C   UNL     1       2.199   6.990  19.396  0.00  0.00    +0.000 A 
ATOM      2  C   UNL     1       1.901   6.193  20.491  0.00  0.00    +0.000 A 
ATOM      3  C   UNL     1       2.548   4.925  20.448  0.00  0.00    +0.000 A 
ATOM      4  C   UNL     1       3.309   4.768  19.307  0.00  0.00    +0.000 A 
ATOM      5  S   UNL     1       3.204   6.136  18.292  0.00  0.00    +0.000 S 
ENDROOT
BRANCH   1   9
ATOM      6  C   UNL     1       1.363  11.057  18.893  0.00  0.00    +0.000 A 
ATOM      7  C   UNL     1       0.962  10.331  20.001  0.00  0.00    +0.000 A 
ATOM      8  N   UNL     1       1.176   9.009  20.159  0.00  0.00    +0.000 NA
ATOM      9  C   UNL     1       1.794   8.379  19.145  0.00  0.00    +0.000 A 
ATOM     10  N   UNL     1       2.163   8.961  17.994  0.00  0.00    +0.000 NA
ATOM     11  C   UNL     1       1.925  10.284  17.891  0.00  0.00    +0.000 A 
BRANCH   6  13
ATOM     12  C   UNL     1       1.845  13.334  19.922  0.00  0.00    +0.000 C 
ATOM     13  C   UNL     1       1.201  12.560  18.756  0.00  0.00    +0.000 C 
BRANCH  13  14
ATOM     14  C   UNL     1      -0.305  12.976  18.614  0.00  0.00    +0.000 C 
ATOM     15  F   UNL     1      -0.943  12.983  19.810  0.00  0.00    +0.000 F 
ATOM     16  F   UNL     1      -0.442  14.215  18.085  0.00  0.00    +0.000 F 
ATOM     17  F   UNL     1      -0.997  12.131  17.813  0.00  0.00    +0.000 F 
ENDBRANCH  13  14
BRANCH  13  18
ATOM     18  O   UNL     1       1.971  12.967  17.594  0.00  0.00    +0.000 OA
ATOM     19  H   UNL     1       2.478  13.766  17.826  0.00  0.00    +0.000 HD
ENDBRANCH  13  18
ENDBRANCH   6  13
ENDBRANCH   1   9
BRANCH   4  20
ATOM     20  S   UNL     1       4.296   3.404  18.727  0.00  0.00    +0.000 S 
ATOM     21  O   UNL     1       5.169   3.009  19.814  0.00  0.00    +0.000 OA
ATOM     22  O   UNL     1       3.343   2.476  18.145  0.00  0.00    +0.000 OA
BRANCH  20  23
ATOM     23  C   UNL     1       5.268   4.071  17.429  0.00  0.00    +0.000 A 
ATOM     24  C   UNL     1       4.832   4.047  16.111  0.00  0.00    +0.000 A 
ATOM     25  C   UNL     1       5.685   4.531  15.122  0.00  0.00    +0.000 A 
ATOM     26  C   UNL     1       6.925   5.038  15.488  0.00  0.00    +0.000 A 
ATOM     27  N   UNL     1       7.834   5.449  14.520  0.00  0.00    +0.000 N 
ATOM     28  N   UNL     1       7.340   5.096  16.767  0.00  0.00    +0.000 NA
ATOM     29  C   UNL     1       6.502   4.621  17.719  0.00  0.00    +0.000 A 
ATOM     30  H   UNL     1       7.431   6.111  13.868  0.00  0.00    +0.000 HD
ATOM     31  H   UNL     1       8.644   5.828  15.002  0.00  0.00    +0.000 HD
ENDBRANCH  20  23
ENDBRANCH   4  20
TORSDOF 6
ENDMDL
MODEL 3
REMARK VINA RESULT:      -8.3      1.140      1.445
REMARK  Name = 
REMARK  7 active torsions:
REMARK  status: ('A' for Active; 'I' for Inactive)
REMARK    1  A    between atoms: C_1  and  C_2
REMARK    2  A    between atoms: C_2  and  O_3
REMARK    3  A    between atoms: C_2  and  C_4
REMARK    4  A    between atoms: C_2  and  C_25
REMARK    5  A    between atoms: C_7  and  C_8
REMARK    6  A    between atoms: C_11  and  S_12
REMARK    7  A    between atoms: S_12  and  C_15
REMARK                            x       y       z     vdW  Elec       q    Type
REMARK                         _______ _______ _______ _____ _____    ______ ____
ROOT
ATOM      1  C   UNL     1       2.344   7.120  19.454  0.00  0.00    +0.000 A 
ATOM      2  C   UNL     1       1.949   5.986  20.146  0.00  0.00    +0.000 A 
ATOM      3  C   UNL     1       2.956   4.980  20.187  0.00  0.00    +0.000 A 
ATOM      4  C   UNL     1       4.095   5.356  19.503  0.00  0.00    +0.000 A 
ATOM      5  S   UNL     1       3.918   6.899  18.795  0.00  0.00    +0.000 S 
ENDROOT
BRANCH   1   9
ATOM      6  C   UNL     1      -0.033  10.501  18.813  0.00  0.00    +0.000 A 
ATOM      7  C   UNL     1       0.779   9.948  17.839  0.00  0.00    +0.000 A 
ATOM      8  N   UNL     1       1.591   8.890  18.038  0.00  0.00    +0.000 NA
ATOM      9  C   UNL     1       1.615   8.382  19.283  0.00  0.00    +0.000 A 
ATOM     10  N   UNL     1       0.930   8.878  20.324  0.00  0.00    +0.000 NA
ATOM     11  C   UNL     1       0.133   9.936  20.067  0.00  0.00    +0.000 A 
BRANCH   6  13
ATOM     12  C   UNL     1      -1.312  12.447  19.838  0.00  0.00    +0.000 C 
ATOM     13  C   UNL     1      -1.012  11.633  18.564  0.00  0.00    +0.000 C 
BRANCH  13  14
ATOM     14  C   UNL     1      -2.355  11.121  17.937  0.00  0.00    +0.000 C 
ATOM     15  F   UNL     1      -3.437  11.600  18.596  0.00  0.00    +0.000 F 
ATOM     16  F   UNL     1      -2.484  11.491  16.641  0.00  0.00    +0.000 F 
ATOM     17  F   UNL     1      -2.451   9.770  17.967  0.00  0.00    +0.000 F 
ENDBRANCH  13  14
BRANCH  13  18
ATOM     18  O   UNL     1      -0.351  12.583  17.687  0.00  0.00    +0.000 OA
ATOM     19  H   UNL     1      -0.517  12.317  16.765  0.00  0.00    +0.000 HD
ENDBRANCH  13  18
ENDBRANCH   6  13
ENDBRANCH   1   9
BRANCH   4  20
ATOM     20  S   UNL     1       5.631   4.503  19.211  0.00  0.00    +0.000 S 
ATOM     21  O   UNL     1       6.660   5.196  19.961  0.00  0.00    +0.000 OA
ATOM     22  O   UNL     1       5.330   3.103  19.454  0.00  0.00    +0.000 OA
BRANCH  20  23
ATOM     23  C   UNL     1       5.940   4.705  17.498  0.00  0.00    +0.000 A 
ATOM     24  C   UNL     1       5.148   4.086  16.540  0.00  0.00    +0.000 A 
ATOM     25  C   UNL     1       5.493   4.232  15.199  0.00  0.00    +0.000 A 
ATOM     26  C   UNL     1       6.597   5.006  14.865  0.00  0.00    +0.000 A 
ATOM     27  N   UNL     1       7.020   5.103  13.545  0.00  0.00    +0.000 N 
ATOM     28  N   UNL     1       7.349   5.638  15.786  0.00  0.00    +0.000 NA
ATOM     29  C   UNL     1       7.004   5.485  17.088  0.00  0.00    +0.000 A 
ATOM     30  H   UNL     1       6.272   5.380  12.920  0.00  0.00    +0.000 HD
ATOM     31  H   UNL     1       7.802   5.752  13.521  0.00  0.00    +0.000 HD
ENDBRANCH  20  23
ENDBRANCH   4  20
TORSDOF 6
ENDMDL
MODEL 4
REMARK VINA RESULT:      -8.2      0.987      1.575
REMARK  Name = 
REMARK  7 active torsions:
REMARK  status: ('A' for Active; 'I' for Inactive)
REMARK    1  A    between atoms: C_1  and  C_2
REMARK    2  A    between atoms: C_2  and  O_3
REMARK    3  A    between atoms: C_2  and  C_4
REMARK    4  A    between atoms: C_2  and  C_25
REMARK    5  A    between atoms: C_7  and  C_8
REMARK    6  A    between atoms: C_11  and  S_12
REMARK    7  A    between atoms: S_12  and  C_15
REMARK                            x       y       z     vdW  Elec       q    Type
REMARK                         _______ _______ _______ _____ _____    ______ ____
ROOT
ATOM      1  C   UNL     1       2.143   6.901  19.466  0.00  0.00    +0.000 A 
ATOM      2  C   UNL     1       1.855   6.144  20.591  0.00  0.00    +0.000 A 
ATOM      3  C   UNL     1       2.463   4.857  20.565  0.00  0.00    +0.000 A 
ATOM      4  C   UNL     1       3.184   4.644  19.407  0.00  0.00    +0.000 A 
ATOM      5  S   UNL     1       3.088   5.987  18.357  0.00  0.00    +0.000 S 
ENDROOT
BRANCH   1   9
ATOM      6  C   UNL     1       1.399  10.976  18.891  0.00  0.00    +0.000 A 
ATOM      7  C   UNL     1       0.956  10.272  19.997  0.00  0.00    +0.000 A 
ATOM      8  N   UNL     1       1.141   8.949  20.178  0.00  0.00    +0.000 NA
ATOM      9  C   UNL     1       1.771   8.293  19.187  0.00  0.00    +0.000 A 
ATOM     10  N   UNL     1       2.179   8.854  18.038  0.00  0.00    +0.000 NA
ATOM     11  C   UNL     1       1.969  10.180  17.912  0.00  0.00    +0.000 A 
BRANCH   6  13
ATOM     12  C   UNL     1       1.980  13.258  19.854  0.00  0.00    +0.000 C 
ATOM     13  C   UNL     1       1.269  12.480  18.731  0.00  0.00    +0.000 C 
BRANCH  13  14
ATOM     14  C   UNL     1      -0.230  12.933  18.642  0.00  0.00    +0.000 C 
ATOM     15  F   UNL     1      -0.974  12.079  17.897  0.00  0.00    +0.000 F 
ATOM     16  F   UNL     1      -0.813  13.003  19.862  0.00  0.00    +0.000 F 
ATOM     17  F   UNL     1      -0.363  14.156  18.075  0.00  0.00    +0.000 F 
ENDBRANCH  13  14
BRANCH  13  18
ATOM     18  O   UNL     1       2.000  12.845  17.530  0.00  0.00    +0.000 OA
ATOM     19  H   UNL     1       1.841  13.789  17.349  0.00  0.00    +0.000 HD
ENDBRANCH  13  18
ENDBRANCH   6  13
ENDBRANCH   1   9
BRANCH   4  20
ATOM     20  S   UNL     1       4.113   3.236  18.837  0.00  0.00    +0.000 S 
ATOM     21  O   UNL     1       4.837   2.707  19.975  0.00  0.00    +0.000 OA
ATOM     22  O   UNL     1       3.152   2.427  18.108  0.00  0.00    +0.000 OA
BRANCH  20  23
ATOM     23  C   UNL     1       5.261   3.890  17.685  0.00  0.00    +0.000 A 
ATOM     24  C   UNL     1       6.388   4.586  18.100  0.00  0.00    +0.000 A 
ATOM     25  C   UNL     1       7.220   5.139  17.130  0.00  0.00    +0.000 A 
ATOM     26  C   UNL     1       6.909   4.957  15.788  0.00  0.00    +0.000 A 
ATOM     27  N   UNL     1       7.669   5.567  14.797  0.00  0.00    +0.000 N 
ATOM     28  N   UNL     1       5.836   4.255  15.378  0.00  0.00    +0.000 NA
ATOM     29  C   UNL     1       5.034   3.724  16.333  0.00  0.00    +0.000 A 
ATOM     30  H   UNL     1       8.658   5.372  14.894  0.00  0.00    +0.000 HD
ATOM     31  H   UNL     1       7.302   5.263  13.899  0.00  0.00    +0.000 HD
ENDBRANCH  20  23
ENDBRANCH   4  20
TORSDOF 6
ENDMDL
MODEL 5
REMARK VINA RESULT:      -8.2      0.600      1.003
REMARK  Name = 
REMARK  7 active torsions:
REMARK  status: ('A' for Active; 'I' for Inactive)
REMARK    1  A    between atoms: C_1  and  C_2
REMARK    2  A    between atoms: C_2  and  O_3
REMARK    3  A    between atoms: C_2  and  C_4
REMARK    4  A    between atoms: C_2  and  C_25
REMARK    5  A    between atoms: C_7  and  C_8
REMARK    6  A    between atoms: C_11  and  S_12
REMARK    7  A    between atoms: S_12  and  C_15
REMARK                            x       y       z     vdW  Elec       q    Type
REMARK                         _______ _______ _______ _____ _____    ______ ____
ROOT
ATOM      1  C   UNL     1       2.168   6.691  19.781  0.00  0.00    +0.000 A 
ATOM      2  C   UNL     1       1.639   5.719  20.615  0.00  0.00    +0.000 A 
ATOM      3  C   UNL     1       2.268   4.451  20.460  0.00  0.00    +0.000 A 
ATOM      4  C   UNL     1       3.250   4.472  19.490  0.00  0.00    +0.000 A 
ATOM      5  S   UNL     1       3.375   6.011  18.761  0.00  0.00    +0.000 S 
ENDROOT
BRANCH   1   9
ATOM      6  C   UNL     1       0.886  10.658  19.450  0.00  0.00    +0.000 A 
ATOM      7  C   UNL     1       1.534   9.982  18.432  0.00  0.00    +0.000 A 
ATOM      8  N   UNL     1       2.000   8.722  18.534  0.00  0.00    +0.000 NA
ATOM      9  C   UNL     1       1.838   8.121  19.726  0.00  0.00    +0.000 A 
ATOM     10  N   UNL     1       1.294   8.700  20.807  0.00  0.00    +0.000 NA
ATOM     11  C   UNL     1       0.843   9.961  20.646  0.00  0.00    +0.000 A 
BRANCH   6  13
ATOM     12  C   UNL     1       1.094  13.123  20.046  0.00  0.00    +0.000 C 
ATOM     13  C   UNL     1       0.283  12.043  19.305  0.00  0.00    +0.000 C 
BRANCH  13  14
ATOM     14  C   UNL     1      -1.211  12.086  19.782  0.00  0.00    +0.000 C 
ATOM     15  F   UNL     1      -1.841  13.214  19.372  0.00  0.00    +0.000 F 
ATOM     16  F   UNL     1      -1.926  11.039  19.307  0.00  0.00    +0.000 F 
ATOM     17  F   UNL     1      -1.319  12.052  21.132  0.00  0.00    +0.000 F 
ENDBRANCH  13  14
BRANCH  13  18
ATOM     18  O   UNL     1       0.398  12.413  17.905  0.00  0.00    +0.000 OA
ATOM     19  H   UNL     1       0.476  11.599  17.377  0.00  0.00    +0.000 HD
ENDBRANCH  13  18
ENDBRANCH   6  13
ENDBRANCH   1   9
BRANCH   4  20
ATOM     20  S   UNL     1       4.325   3.194  18.871  0.00  0.00    +0.000 S 
ATOM     21  O   UNL     1       5.244   2.848  19.937  0.00  0.00    +0.000 OA
ATOM     22  O   UNL     1       3.432   2.207  18.291  0.00  0.00    +0.000 OA
BRANCH  20  23
ATOM     23  C   UNL     1       5.222   3.951  17.569  0.00  0.00    +0.000 A 
ATOM     24  C   UNL     1       4.702   4.032  16.284  0.00  0.00    +0.000 A 
ATOM     25  C   UNL     1       5.497   4.583  15.282  0.00  0.00    +0.000 A 
ATOM     26  C   UNL     1       6.766   5.050  15.605  0.00  0.00    +0.000 A 
ATOM     27  N   UNL     1       7.617   5.526  14.615  0.00  0.00    +0.000 N 
ATOM     28  N   UNL     1       7.262   5.006  16.855  0.00  0.00    +0.000 NA
ATOM     29  C   UNL     1       6.478   4.465  17.820  0.00  0.00    +0.000 A 
ATOM     30  H   UNL     1       7.182   6.240  14.042  0.00  0.00    +0.000 HD
ATOM     31  H   UNL     1       8.461   5.860  15.072  0.00  0.00    +0.000 HD
ENDBRANCH  20  23
ENDBRANCH   4  20
TORSDOF 6
ENDMDL
MODEL 6
REMARK VINA RESULT:      -8.2      0.534      1.166
REMARK  Name = 
REMARK  7 active torsions:
REMARK  status: ('A' for Active; 'I' for Inactive)
REMARK    1  A    between atoms: C_1  and  C_2
REMARK    2  A    between atoms: C_2  and  O_3
REMARK    3  A    between atoms: C_2  and  C_4
REMARK    4  A    between atoms: C_2  and  C_25
REMARK    5  A    between atoms: C_7  and  C_8
REMARK    6  A    between atoms: C_11  and  S_12
REMARK    7  A    between atoms: S_12  and  C_15
REMARK                            x       y       z     vdW  Elec       q    Type
REMARK                         _______ _______ _______ _____ _____    ______ ____
ROOT
ATOM      1  C   UNL     1       2.167   6.653  19.801  0.00  0.00    +0.000 A 
ATOM      2  C   UNL     1       1.940   5.825  20.889  0.00  0.00    +0.000 A 
ATOM      3  C   UNL     1       2.537   4.540  20.745  0.00  0.00    +0.000 A 
ATOM      4  C   UNL     1       3.188   4.402  19.535  0.00  0.00    +0.000 A 
ATOM      5  S   UNL     1       3.041   5.810  18.582  0.00  0.00    +0.000 S 
ENDROOT
BRANCH   1   9
ATOM      6  C   UNL     1       0.746  10.536  19.172  0.00  0.00    +0.000 A 
ATOM      7  C   UNL     1       1.390   9.796  18.196  0.00  0.00    +0.000 A 
ATOM      8  N   UNL     1       1.900   8.563  18.392  0.00  0.00    +0.000 NA
ATOM      9  C   UNL     1       1.789   8.062  19.635  0.00  0.00    +0.000 A 
ATOM     10  N   UNL     1       1.253   8.714  20.677  0.00  0.00    +0.000 NA
ATOM     11  C   UNL     1       0.758   9.942  20.424  0.00  0.00    +0.000 A 
BRANCH   6  13
ATOM     12  C   UNL     1       0.208  12.826  20.141  0.00  0.00    +0.000 C 
ATOM     13  C   UNL     1       0.094  11.884  18.927  0.00  0.00    +0.000 C 
BRANCH  13  14
ATOM     14  C   UNL     1      -1.411  11.740  18.510  0.00  0.00    +0.000 C 
ATOM     15  F   UNL     1      -1.633  12.194  17.252  0.00  0.00    +0.000 F 
ATOM     16  F   UNL     1      -1.827  10.453  18.546  0.00  0.00    +0.000 F 
ATOM     17  F   UNL     1      -2.237  12.440  19.324  0.00  0.00    +0.000 F 
ENDBRANCH  13  14
BRANCH  13  18
ATOM     18  O   UNL     1       0.865  12.549  17.892  0.00  0.00    +0.000 OA
ATOM     19  H   UNL     1       0.625  12.159  17.032  0.00  0.00    +0.000 HD
ENDBRANCH  13  18
ENDBRANCH   6  13
ENDBRANCH   1   9
BRANCH   4  20
ATOM     20  S   UNL     1       4.074   3.032  18.822  0.00  0.00    +0.000 S 
ATOM     21  O   UNL     1       4.792   2.375  19.896  0.00  0.00    +0.000 OA
ATOM     22  O   UNL     1       3.085   2.323  18.028  0.00  0.00    +0.000 OA
BRANCH  20  23
ATOM     23  C   UNL     1       5.230   3.763  17.727  0.00  0.00    +0.000 A 
ATOM     24  C   UNL     1       6.314   4.492  18.198  0.00  0.00    +0.000 A 
ATOM     25  C   UNL     1       7.154   5.105  17.272  0.00  0.00    +0.000 A 
ATOM     26  C   UNL     1       6.893   4.949  15.916  0.00  0.00    +0.000 A 
ATOM     27  N   UNL     1       7.659   5.616  14.967  0.00  0.00    +0.000 N 
ATOM     28  N   UNL     1       5.864   4.216  15.451  0.00  0.00    +0.000 NA
ATOM     29  C   UNL     1       5.054   3.626  16.364  0.00  0.00    +0.000 A 
ATOM     30  H   UNL     1       8.651   5.458  15.092  0.00  0.00    +0.000 HD
ATOM     31  H   UNL     1       7.333   5.323  14.050  0.00  0.00    +0.000 HD
ENDBRANCH  20  23
ENDBRANCH   4  20
TORSDOF 6
ENDMDL
MODEL 7
REMARK VINA RESULT:      -8.2      4.473      8.992
REMARK  Name = 
REMARK  7 active torsions:
REMARK  status: ('A' for Active; 'I' for Inactive)
REMARK    1  A    between atoms: C_1  and  C_2
REMARK    2  A    between atoms: C_2  and  O_3
REMARK    3  A    between atoms: C_2  and  C_4
REMARK    4  A    between atoms: C_2  and  C_25
REMARK    5  A    between atoms: C_7  and  C_8
REMARK    6  A    between atoms: C_11  and  S_12
REMARK    7  A    between atoms: S_12  and  C_15
REMARK                            x       y       z     vdW  Elec       q    Type
REMARK                         _______ _______ _______ _____ _____    ______ ____
ROOT
ATOM      1  C   UNL     1       1.770   8.109  19.811  0.00  0.00    +0.000 A 
ATOM      2  C   UNL     1       1.131   7.915  21.026  0.00  0.00    +0.000 A 
ATOM      3  C   UNL     1       0.235   8.971  21.358  0.00  0.00    +0.000 A 
ATOM      4  C   UNL     1       0.226   9.966  20.400  0.00  0.00    +0.000 A 
ATOM      5  S   UNL     1       1.320   9.626  19.136  0.00  0.00    +0.000 S 
ENDROOT
BRANCH   1   9
ATOM      6  C   UNL     1       4.668   5.753  17.929  0.00  0.00    +0.000 A 
ATOM      7  C   UNL     1       4.108   6.876  17.347  0.00  0.00    +0.000 A 
ATOM      8  N   UNL     1       3.137   7.620  17.914  0.00  0.00    +0.000 NA
ATOM      9  C   UNL     1       2.683   7.199  19.108  0.00  0.00    +0.000 A 
ATOM     10  N   UNL     1       3.096   6.087  19.734  0.00  0.00    +0.000 NA
ATOM     11  C   UNL     1       4.069   5.383  19.122  0.00  0.00    +0.000 A 
BRANCH   6  13
ATOM     12  C   UNL     1       7.086   5.829  17.140  0.00  0.00    +0.000 C 
ATOM     13  C   UNL     1       5.822   4.969  17.331  0.00  0.00    +0.000 C 
BRANCH  13  14
ATOM     14  C   UNL     1       5.430   4.298  15.968  0.00  0.00    +0.000 C 
ATOM     15  F   UNL     1       6.278   3.293  15.637  0.00  0.00    +0.000 F 
ATOM     16  F   UNL     1       4.184   3.771  16.001  0.00  0.00    +0.000 F 
ATOM     17  F   UNL     1       5.454   5.178  14.938  0.00  0.00    +0.000 F 
ENDBRANCH  13  14
BRANCH  13  18
ATOM     18  O   UNL     1       6.216   3.975  18.312  0.00  0.00    +0.000 OA
ATOM     19  H   UNL     1       6.724   3.279  17.858  0.00  0.00    +0.000 HD
ENDBRANCH  13  18
ENDBRANCH   6  13
ENDBRANCH   1   9
BRANCH   4  20
ATOM     20  S   UNL     1      -0.669  11.502  20.305  0.00  0.00    +0.000 S 
ATOM     21  O   UNL     1      -1.314  11.708  21.586  0.00  0.00    +0.000 OA
ATOM     22  O   UNL     1       0.290  12.458  19.777  0.00  0.00    +0.000 OA
BRANCH  20  23
ATOM     23  C   UNL     1      -1.898  11.233  19.084  0.00  0.00    +0.000 A 
ATOM     24  C   UNL     1      -1.724  10.295  18.075  0.00  0.00    +0.000 A 
ATOM     25  C   UNL     1      -2.710  10.183  17.098  0.00  0.00    +0.000 A 
ATOM     26  C   UNL     1      -3.837  10.991  17.179  0.00  0.00    +0.000 A 
ATOM     27  N   UNL     1      -4.798  10.966  16.175  0.00  0.00    +0.000 N 
ATOM     28  N   UNL     1      -4.028  11.878  18.173  0.00  0.00    +0.000 NA
ATOM     29  C   UNL     1      -3.060  11.978  19.116  0.00  0.00    +0.000 A 
ATOM     30  H   UNL     1      -5.127  10.028  15.980  0.00  0.00    +0.000 HD
ATOM     31  H   UNL     1      -5.552  11.588  16.457  0.00  0.00    +0.000 HD
ENDBRANCH  20  23
ENDBRANCH   4  20
TORSDOF 6
ENDMDL
MODEL 8
REMARK VINA RESULT:      -8.2      1.464      1.699
REMARK  Name = 
REMARK  7 active torsions:
REMARK  status: ('A' for Active; 'I' for Inactive)
REMARK    1  A    between atoms: C_1  and  C_2
REMARK    2  A    between atoms: C_2  and  O_3
REMARK    3  A    between atoms: C_2  and  C_4
REMARK    4  A    between atoms: C_2  and  C_25
REMARK    5  A    between atoms: C_7  and  C_8
REMARK    6  A    between atoms: C_11  and  S_12
REMARK    7  A    between atoms: S_12  and  C_15
REMARK                            x       y       z     vdW  Elec       q    Type
REMARK                         _______ _______ _______ _____ _____    ______ ____
ROOT
ATOM      1  C   UNL     1       2.152   6.694  19.825  0.00  0.00    +0.000 A 
ATOM      2  C   UNL     1       1.657   5.734  20.695  0.00  0.00    +0.000 A 
ATOM      3  C   UNL     1       2.284   4.465  20.538  0.00  0.00    +0.000 A 
ATOM      4  C   UNL     1       3.230   4.473  19.532  0.00  0.00    +0.000 A 
ATOM      5  S   UNL     1       3.322   6.000  18.774  0.00  0.00    +0.000 S 
ENDROOT
BRANCH   1   9
ATOM      6  C   UNL     1       0.839  10.650  19.490  0.00  0.00    +0.000 A 
ATOM      7  C   UNL     1       1.413   9.949  18.444  0.00  0.00    +0.000 A 
ATOM      8  N   UNL     1       1.889   8.692  18.544  0.00  0.00    +0.000 NA
ATOM      9  C   UNL     1       1.815   8.121  19.759  0.00  0.00    +0.000 A 
ATOM     10  N   UNL     1       1.349   8.727  20.861  0.00  0.00    +0.000 NA
ATOM     11  C   UNL     1       0.885   9.983  20.703  0.00  0.00    +0.000 A 
BRANCH   6  13
ATOM     12  C   UNL     1      -0.869  12.088  18.269  0.00  0.00    +0.000 C 
ATOM     13  C   UNL     1       0.223  12.031  19.354  0.00  0.00    +0.000 C 
BRANCH  13  14
ATOM     14  C   UNL     1       1.305  13.130  19.071  0.00  0.00    +0.000 C 
ATOM     15  F   UNL     1       1.772  13.065  17.800  0.00  0.00    +0.000 F 
ATOM     16  F   UNL     1       0.819  14.381  19.250  0.00  0.00    +0.000 F 
ATOM     17  F   UNL     1       2.382  13.010  19.884  0.00  0.00    +0.000 F 
ENDBRANCH  13  14
BRANCH  13  18
ATOM     18  O   UNL     1      -0.491  12.303  20.589  0.00  0.00    +0.000 OA
ATOM     19  H   UNL     1      -0.300  11.585  21.219  0.00  0.00    +0.000 HD
ENDBRANCH  13  18
ENDBRANCH   6  13
ENDBRANCH   1   9
BRANCH   4  20
ATOM     20  S   UNL     1       4.286   3.188  18.895  0.00  0.00    +0.000 S 
ATOM     21  O   UNL     1       5.187   2.800  19.962  0.00  0.00    +0.000 OA
ATOM     22  O   UNL     1       3.379   2.232  18.284  0.00  0.00    +0.000 OA
BRANCH  20  23
ATOM     23  C   UNL     1       5.211   3.956  17.619  0.00  0.00    +0.000 A 
ATOM     24  C   UNL     1       4.716   4.056  16.326  0.00  0.00    +0.000 A 
ATOM     25  C   UNL     1       5.533   4.614  15.346  0.00  0.00    +0.000 A 
ATOM     26  C   UNL     1       6.797   5.070  15.698  0.00  0.00    +0.000 A 
ATOM     27  N   UNL     1       7.669   5.553  14.729  0.00  0.00    +0.000 N 
ATOM     28  N   UNL     1       7.270   5.008  16.957  0.00  0.00    +0.000 NA
ATOM     29  C   UNL     1       6.465   4.460  17.900  0.00  0.00    +0.000 A 
ATOM     30  H   UNL     1       7.249   6.276  14.158  0.00  0.00    +0.000 HD
ATOM     31  H   UNL     1       8.507   5.877  15.207  0.00  0.00    +0.000 HD
ENDBRANCH  20  23
ENDBRANCH   4  20
TORSDOF 6
ENDMDL
MODEL 9
REMARK VINA RESULT:      -8.1      4.563      9.160
REMARK  Name = 
REMARK  7 active torsions:
REMARK  status: ('A' for Active; 'I' for Inactive)
REMARK    1  A    between atoms: C_1  and  C_2
REMARK    2  A    between atoms: C_2  and  O_3
REMARK    3  A    between atoms: C_2  and  C_4
REMARK    4  A    between atoms: C_2  and  C_25
REMARK    5  A    between atoms: C_7  and  C_8
REMARK    6  A    between atoms: C_11  and  S_12
REMARK    7  A    between atoms: S_12  and  C_15
REMARK                            x       y       z     vdW  Elec       q    Type
REMARK                         _______ _______ _______ _____ _____    ______ ____
ROOT
ATOM      1  C   UNL     1       2.307   7.956  18.791  0.00  0.00    +0.000 A 
ATOM      2  C   UNL     1       1.767   7.772  20.055  0.00  0.00    +0.000 A 
ATOM      3  C   UNL     1       0.962   8.867  20.481  0.00  0.00    +0.000 A 
ATOM      4  C   UNL     1       0.923   9.879  19.544  0.00  0.00    +0.000 A 
ATOM      5  S   UNL     1       1.883   9.508  18.182  0.00  0.00    +0.000 S 
ENDROOT
BRANCH   1   9
ATOM      6  C   UNL     1       4.852   5.290  16.816  0.00  0.00    +0.000 A 
ATOM      7  C   UNL     1       4.967   6.665  16.715  0.00  0.00    +0.000 A 
ATOM      8  N   UNL     1       4.127   7.541  17.302  0.00  0.00    +0.000 NA
ATOM      9  C   UNL     1       3.103   7.014  17.997  0.00  0.00    +0.000 A 
ATOM     10  N   UNL     1       2.848   5.701  18.103  0.00  0.00    +0.000 NA
ATOM     11  C   UNL     1       3.721   4.871  17.497  0.00  0.00    +0.000 A 
BRANCH   6  13
ATOM     12  C   UNL     1       7.247   4.433  16.862  0.00  0.00    +0.000 C 
ATOM     13  C   UNL     1       5.848   4.306  16.229  0.00  0.00    +0.000 C 
BRANCH  13  14
ATOM     14  C   UNL     1       5.960   4.444  14.671  0.00  0.00    +0.000 C 
ATOM     15  F   UNL     1       6.371   3.291  14.089  0.00  0.00    +0.000 F 
ATOM     16  F   UNL     1       4.775   4.773  14.104  0.00  0.00    +0.000 F 
ATOM     17  F   UNL     1       6.847   5.400  14.303  0.00  0.00    +0.000 F 
ENDBRANCH  13  14
BRANCH  13  18
ATOM     18  O   UNL     1       5.408   2.976  16.609  0.00  0.00    +0.000 OA
ATOM     19  H   UNL     1       5.132   2.502  15.804  0.00  0.00    +0.000 HD
ENDBRANCH  13  18
ENDBRANCH   6  13
ENDBRANCH   1   9
BRANCH   4  20
ATOM     20  S   UNL     1       0.108  11.463  19.551  0.00  0.00    +0.000 S 
ATOM     21  O   UNL     1      -0.153  11.808  20.934  0.00  0.00    +0.000 OA
ATOM     22  O   UNL     1       0.930  12.307  18.702  0.00  0.00    +0.000 OA
BRANCH  20  23
ATOM     23  C   UNL     1      -1.418  11.188  18.734  0.00  0.00    +0.000 A 
ATOM     24  C   UNL     1      -1.541  10.236  17.730  0.00  0.00    +0.000 A 
ATOM     25  C   UNL     1      -2.764  10.119  17.075  0.00  0.00    +0.000 A 
ATOM     26  C   UNL     1      -3.819  10.938  17.459  0.00  0.00    +0.000 A 
ATOM     27  N   UNL     1      -5.025  10.908  16.770  0.00  0.00    +0.000 N 
ATOM     28  N   UNL     1      -3.716  11.839  18.454  0.00  0.00    +0.000 NA
ATOM     29  C   UNL     1      -2.520  11.943  19.082  0.00  0.00    +0.000 A 
ATOM     30  H   UNL     1      -5.400   9.970  16.690  0.00  0.00    +0.000 HD
ATOM     31  H   UNL     1      -5.665  11.540  17.245  0.00  0.00    +0.000 HD
ENDBRANCH  20  23
ENDBRANCH   4  20
TORSDOF 6
ENDMDL
