MODEL 1
REMARK VINA RESULT:      -7.5      0.000      0.000
REMARK  Name = 
REMARK  12 active torsions:
REMARK  status: ('A' for Active; 'I' for Inactive)
REMARK    1  A    between atoms: C_1  and  C_2
REMARK    2  A    between atoms: C_2  and  C_19
REMARK    3  A    between atoms: C_3  and  C_4
REMARK    4  A    between atoms: C_4  and  C_5
REMARK    5  A    between atoms: C_5  and  C_6
REMARK    6  A    between atoms: C_5  and  C_7
REMARK    7  A    between atoms: C_15  and  C_16
REMARK    8  A    between atoms: C_15  and  O_17
REMARK    9  A    between atoms: C_19  and  O_20
REMARK   10  A    between atoms: C_19  and  C_21
REMARK   11  A    between atoms: C_21  and  C_22
REMARK   12  A    between atoms: C_21  and  O_23
REMARK                            x       y       z     vdW  Elec       q    Type
REMARK                         _______ _______ _______ _____ _____    ______ ____
ROOT
ATOM      1  C   UNL     1       2.435   6.534  18.233  0.00  0.00    +0.000 C 
ATOM      2  C   UNL     1       2.282   5.014  18.126  0.00  0.00    +0.000 C 
ENDROOT
BRANCH   1   3
ATOM      3  C   UNL     1       2.172   6.967  19.659  0.00  0.00    +0.000 C 
ATOM      4  C   UNL     1       1.743   8.179  20.073  0.00  0.00    +0.000 C 
ATOM      5  C   UNL     1       1.391   9.337  19.158  0.00  0.00    +0.000 C 
ATOM      6  N   UNL     1       0.083   9.877  19.526  0.00  0.00    +0.000 NA
ATOM      7  C   UNL     1      -0.354  11.006  18.716  0.00  0.00    +0.000 C 
ATOM      8  C   UNL     1      -1.538  11.521  19.523  0.00  0.00    +0.000 C 
ATOM      9  C   UNL     1      -1.216  11.181  20.978  0.00  0.00    +0.000 C 
ATOM     10  C   UNL     1       0.078  10.371  20.917  0.00  0.00    +0.000 C 
ATOM     11  C   UNL     1       0.182   9.148  21.851  0.00  0.00    +0.000 C 
ATOM     12  C   UNL     1       0.070   9.519  23.326  0.00  0.00    +0.000 C 
ATOM     13  C   UNL     1       1.528   8.442  21.561  0.00  0.00    +0.000 C 
BRANCH  11  14
ATOM     14  O   UNL     1      -0.888   8.232  21.561  0.00  0.00    +0.000 OA
ATOM     15  H   UNL     1      -0.601   7.787  20.736  0.00  0.00    +0.000 HD
ENDBRANCH  11  14
ENDBRANCH   1   3
BRANCH   1  16
ATOM     16  C   UNL     1       3.834   7.009  17.784  0.00  0.00    +0.000 C 
BRANCH  16  19
ATOM     17  C   UNL     1       6.896   6.734  17.585  0.00  0.00    +0.000 C 
ATOM     18  C   UNL     1       5.923   5.818  16.886  0.00  0.00    +0.000 C 
ATOM     19  C   UNL     1       4.585   5.982  16.975  0.00  0.00    +0.000 C 
BRANCH  18  20
ATOM     20  C   UNL     1       6.533   4.723  16.004  0.00  0.00    +0.000 C 
BRANCH  20  21
ATOM     21  O   UNL     1       7.879   4.461  16.429  0.00  0.00    +0.000 OA
ATOM     22  H   UNL     1       7.816   3.810  17.150  0.00  0.00    +0.000 HD
ENDBRANCH  20  21
BRANCH  20  23
ATOM     23  C   UNL     1       6.565   5.003  14.477  0.00  0.00    +0.000 C 
ATOM     24  C   UNL     1       6.218   3.762  13.654  0.00  0.00    +0.000 C 
BRANCH  23  25
ATOM     25  O   UNL     1       7.866   5.442  14.069  0.00  0.00    +0.000 OA
ATOM     26  H   UNL     1       8.505   4.861  14.518  0.00  0.00    +0.000 HD
ENDBRANCH  23  25
ENDBRANCH  20  23
ENDBRANCH  18  20
ENDBRANCH  16  19
ENDBRANCH   1  16
TORSDOF 8
ENDMDL
MODEL 2
REMARK VINA RESULT:      -7.0      1.499      2.268
REMARK  Name = 
REMARK  12 active torsions:
REMARK  status: ('A' for Active; 'I' for Inactive)
REMARK    1  A    between atoms: C_1  and  C_2
REMARK    2  A    between atoms: C_2  and  C_19
REMARK    3  A    between atoms: C_3  and  C_4
REMARK    4  A    between atoms: C_4  and  C_5
REMARK    5  A    between atoms: C_5  and  C_6
REMARK    6  A    between atoms: C_5  and  C_7
REMARK    7  A    between atoms: C_15  and  C_16
REMARK    8  A    between atoms: C_15  and  O_17
REMARK    9  A    between atoms: C_19  and  O_20
REMARK   10  A    between atoms: C_19  and  C_21
REMARK   11  A    between atoms: C_21  and  C_22
REMARK   12  A    between atoms: C_21  and  O_23
REMARK                            x       y       z     vdW  Elec       q    Type
REMARK                         _______ _______ _______ _____ _____    ______ ____
ROOT
ATOM      1  C   UNL     1       2.206   6.655  18.112  0.00  0.00    +0.000 C 
ATOM      2  C   UNL     1       2.155   5.130  17.988  0.00  0.00    +0.000 C 
ENDROOT
BRANCH   1   3
ATOM      3  C   UNL     1       2.033   7.048  19.563  0.00  0.00    +0.000 C 
ATOM      4  C   UNL     1       1.644   8.251  20.038  0.00  0.00    +0.000 C 
ATOM      5  C   UNL     1       1.254   9.440  19.180  0.00  0.00    +0.000 C 
ATOM      6  N   UNL     1      -0.023   9.983  19.640  0.00  0.00    +0.000 NA
ATOM      7  C   UNL     1      -0.493  11.141  18.891  0.00  0.00    +0.000 C 
ATOM      8  C   UNL     1      -1.621  11.644  19.781  0.00  0.00    +0.000 C 
ATOM      9  C   UNL     1      -1.218  11.256  21.204  0.00  0.00    +0.000 C 
ATOM     10  C   UNL     1       0.059  10.435  21.043  0.00  0.00    +0.000 C 
ATOM     11  C   UNL     1       0.202   9.183  21.933  0.00  0.00    +0.000 C 
ATOM     12  C   UNL     1       0.182   9.510  23.422  0.00  0.00    +0.000 C 
ATOM     13  C   UNL     1       1.520   8.471  21.543  0.00  0.00    +0.000 C 
BRANCH  11  14
ATOM     14  O   UNL     1      -0.894   8.288  21.679  0.00  0.00    +0.000 OA
ATOM     15  H   UNL     1      -1.601   8.871  21.330  0.00  0.00    +0.000 HD
ENDBRANCH  11  14
ENDBRANCH   1   3
BRANCH   1  16
ATOM     16  C   UNL     1       3.524   7.239  17.559  0.00  0.00    +0.000 C 
BRANCH  16  19
ATOM     17  C   UNL     1       5.453   5.495  15.907  0.00  0.00    +0.000 C 
ATOM     18  C   UNL     1       5.633   5.787  17.375  0.00  0.00    +0.000 C 
ATOM     19  C   UNL     1       4.754   6.537  18.077  0.00  0.00    +0.000 C 
BRANCH  18  20
ATOM     20  C   UNL     1       6.837   5.127  18.058  0.00  0.00    +0.000 C 
BRANCH  20  21
ATOM     21  O   UNL     1       6.428   3.886  18.652  0.00  0.00    +0.000 OA
ATOM     22  H   UNL     1       6.086   4.105  19.535  0.00  0.00    +0.000 HD
ENDBRANCH  20  21
BRANCH  20  23
ATOM     23  C   UNL     1       7.555   5.963  19.152  0.00  0.00    +0.000 C 
ATOM     24  C   UNL     1       8.251   7.195  18.574  0.00  0.00    +0.000 C 
BRANCH  23  25
ATOM     25  O   UNL     1       8.550   5.178  19.818  0.00  0.00    +0.000 OA
ATOM     26  H   UNL     1       9.367   5.270  19.298  0.00  0.00    +0.000 HD
ENDBRANCH  23  25
ENDBRANCH  20  23
ENDBRANCH  18  20
ENDBRANCH  16  19
ENDBRANCH   1  16
TORSDOF 8
ENDMDL
MODEL 3
REMARK VINA RESULT:      -7.0      3.091      5.365
REMARK  Name = 
REMARK  12 active torsions:
REMARK  status: ('A' for Active; 'I' for Inactive)
REMARK    1  A    between atoms: C_1  and  C_2
REMARK    2  A    between atoms: C_2  and  C_19
REMARK    3  A    between atoms: C_3  and  C_4
REMARK    4  A    between atoms: C_4  and  C_5
REMARK    5  A    between atoms: C_5  and  C_6
REMARK    6  A    between atoms: C_5  and  C_7
REMARK    7  A    between atoms: C_15  and  C_16
REMARK    8  A    between atoms: C_15  and  O_17
REMARK    9  A    between atoms: C_19  and  O_20
REMARK   10  A    between atoms: C_19  and  C_21
REMARK   11  A    between atoms: C_21  and  C_22
REMARK   12  A    between atoms: C_21  and  O_23
REMARK                            x       y       z     vdW  Elec       q    Type
REMARK                         _______ _______ _______ _____ _____    ______ ____
ROOT
ATOM      1  C   UNL     1       2.759   8.251  18.215  0.00  0.00    +0.000 C 
ATOM      2  C   UNL     1       1.516   9.037  17.786  0.00  0.00    +0.000 C 
ENDROOT
BRANCH   1   3
ATOM      3  C   UNL     1       2.404   7.344  19.373  0.00  0.00    +0.000 C 
ATOM      4  C   UNL     1       2.027   6.049  19.304  0.00  0.00    +0.000 C 
ATOM      5  C   UNL     1       1.936   5.236  18.025  0.00  0.00    +0.000 C 
ATOM      6  N   UNL     1       2.639   3.966  18.197  0.00  0.00    +0.000 NA
ATOM      7  C   UNL     1       2.607   3.095  17.029  0.00  0.00    +0.000 C 
ATOM      8  C   UNL     1       3.116   1.783  17.612  0.00  0.00    +0.000 C 
ATOM      9  C   UNL     1       2.676   1.793  19.076  0.00  0.00    +0.000 C 
ATOM     10  C   UNL     1       2.050   3.169  19.292  0.00  0.00    +0.000 C 
ATOM     11  C   UNL     1       2.374   3.884  20.620  0.00  0.00    +0.000 C 
ATOM     12  C   UNL     1       1.916   3.096  21.843  0.00  0.00    +0.000 C 
ATOM     13  C   UNL     1       1.707   5.280  20.583  0.00  0.00    +0.000 C 
BRANCH  11  14
ATOM     14  O   UNL     1       3.796   4.059  20.735  0.00  0.00    +0.000 OA
ATOM     15  H   UNL     1       4.093   3.270  21.237  0.00  0.00    +0.000 HD
ENDBRANCH  11  14
ENDBRANCH   1   3
BRANCH   1  16
ATOM     16  C   UNL     1       3.350   7.423  17.054  0.00  0.00    +0.000 C 
BRANCH  16  19
ATOM     17  C   UNL     1       4.970   5.391  15.399  0.00  0.00    +0.000 C 
ATOM     18  C   UNL     1       5.551   6.214  16.522  0.00  0.00    +0.000 C 
ATOM     19  C   UNL     1       4.806   7.079  17.245  0.00  0.00    +0.000 C 
BRANCH  18  20
ATOM     20  C   UNL     1       7.028   5.967  16.853  0.00  0.00    +0.000 C 
BRANCH  20  21
ATOM     21  O   UNL     1       7.699   5.455  15.692  0.00  0.00    +0.000 OA
ATOM     22  H   UNL     1       8.049   6.228  15.216  0.00  0.00    +0.000 HD
ENDBRANCH  20  21
BRANCH  20  23
ATOM     23  C   UNL     1       7.319   5.002  18.034  0.00  0.00    +0.000 C 
ATOM     24  C   UNL     1       7.810   5.743  19.278  0.00  0.00    +0.000 C 
BRANCH  23  25
ATOM     25  O   UNL     1       8.326   4.050  17.673  0.00  0.00    +0.000 OA
ATOM     26  H   UNL     1       7.859   3.223  17.461  0.00  0.00    +0.000 HD
ENDBRANCH  23  25
ENDBRANCH  20  23
ENDBRANCH  18  20
ENDBRANCH  16  19
ENDBRANCH   1  16
TORSDOF 8
ENDMDL
MODEL 4
REMARK VINA RESULT:      -6.9      3.411      5.624
REMARK  Name = 
REMARK  12 active torsions:
REMARK  status: ('A' for Active; 'I' for Inactive)
REMARK    1  A    between atoms: C_1  and  C_2
REMARK    2  A    between atoms: C_2  and  C_19
REMARK    3  A    between atoms: C_3  and  C_4
REMARK    4  A    between atoms: C_4  and  C_5
REMARK    5  A    between atoms: C_5  and  C_6
REMARK    6  A    between atoms: C_5  and  C_7
REMARK    7  A    between atoms: C_15  and  C_16
REMARK    8  A    between atoms: C_15  and  O_17
REMARK    9  A    between atoms: C_19  and  O_20
REMARK   10  A    between atoms: C_19  and  C_21
REMARK   11  A    between atoms: C_21  and  C_22
REMARK   12  A    between atoms: C_21  and  O_23
REMARK                            x       y       z     vdW  Elec       q    Type
REMARK                         _______ _______ _______ _____ _____    ______ ____
ROOT
ATOM      1  C   UNL     1       6.608   4.589  16.725  0.00  0.00    +0.000 C 
ATOM      2  C   UNL     1       7.812   4.420  17.655  0.00  0.00    +0.000 C 
ENDROOT
BRANCH   1   3
ATOM      3  C   UNL     1       5.631   5.568  17.339  0.00  0.00    +0.000 C 
ATOM      4  C   UNL     1       4.324   5.352  17.603  0.00  0.00    +0.000 C 
ATOM      5  C   UNL     1       3.594   4.042  17.372  0.00  0.00    +0.000 C 
ATOM      6  N   UNL     1       2.852   3.673  18.577  0.00  0.00    +0.000 NA
ATOM      7  C   UNL     1       2.100   2.430  18.466  0.00  0.00    +0.000 C 
ATOM      8  C   UNL     1       1.218   2.494  19.706  0.00  0.00    +0.000 C 
ATOM      9  C   UNL     1       0.985   3.983  19.960  0.00  0.00    +0.000 C 
ATOM     10  C   UNL     1       1.852   4.701  18.929  0.00  0.00    +0.000 C 
ATOM     11  C   UNL     1       2.615   5.954  19.408  0.00  0.00    +0.000 C 
ATOM     12  C   UNL     1       1.688   7.054  19.912  0.00  0.00    +0.000 C 
ATOM     13  C   UNL     1       3.482   6.461  18.230  0.00  0.00    +0.000 C 
BRANCH  11  14
ATOM     14  O   UNL     1       3.484   5.598  20.497  0.00  0.00    +0.000 OA
ATOM     15  H   UNL     1       3.484   4.617  20.489  0.00  0.00    +0.000 HD
ENDBRANCH  11  14
ENDBRANCH   1   3
BRANCH   1  16
ATOM     16  C   UNL     1       7.024   5.068  15.317  0.00  0.00    +0.000 C 
BRANCH  16  19
ATOM     17  C   UNL     1       7.720   5.260  12.322  0.00  0.00    +0.000 C 
ATOM     18  C   UNL     1       6.683   4.321  12.885  0.00  0.00    +0.000 C 
ATOM     19  C   UNL     1       6.384   4.279  14.202  0.00  0.00    +0.000 C 
BRANCH  18  20
ATOM     20  C   UNL     1       5.926   3.456  11.871  0.00  0.00    +0.000 C 
BRANCH  20  21
ATOM     21  O   UNL     1       4.524   3.472  12.181  0.00  0.00    +0.000 OA
ATOM     22  H   UNL     1       4.099   4.020  11.499  0.00  0.00    +0.000 HD
ENDBRANCH  20  21
BRANCH  20  23
ATOM     23  C   UNL     1       6.370   1.972  11.760  0.00  0.00    +0.000 C 
ATOM     24  C   UNL     1       7.615   1.805  10.890  0.00  0.00    +0.000 C 
BRANCH  23  25
ATOM     25  O   UNL     1       5.330   1.174  11.183  0.00  0.00    +0.000 OA
ATOM     26  H   UNL     1       4.813   0.817  11.926  0.00  0.00    +0.000 HD
ENDBRANCH  23  25
ENDBRANCH  20  23
ENDBRANCH  18  20
ENDBRANCH  16  19
ENDBRANCH   1  16
TORSDOF 8
ENDMDL
MODEL 5
REMARK VINA RESULT:      -6.9      3.358      5.533
REMARK  Name = 
REMARK  12 active torsions:
REMARK  status: ('A' for Active; 'I' for Inactive)
REMARK    1  A    between atoms: C_1  and  C_2
REMARK    2  A    between atoms: C_2  and  C_19
REMARK    3  A    between atoms: C_3  and  C_4
REMARK    4  A    between atoms: C_4  and  C_5
REMARK    5  A    between atoms: C_5  and  C_6
REMARK    6  A    between atoms: C_5  and  C_7
REMARK    7  A    between atoms: C_15  and  C_16
REMARK    8  A    between atoms: C_15  and  O_17
REMARK    9  A    between atoms: C_19  and  O_20
REMARK   10  A    between atoms: C_19  and  C_21
REMARK   11  A    between atoms: C_21  and  C_22
REMARK   12  A    between atoms: C_21  and  O_23
REMARK                            x       y       z     vdW  Elec       q    Type
REMARK                         _______ _______ _______ _____ _____    ______ ____
ROOT
ATOM      1  C   UNL     1       2.689   8.200  18.341  0.00  0.00    +0.000 C 
ATOM      2  C   UNL     1       1.415   8.757  17.699  0.00  0.00    +0.000 C 
ENDROOT
BRANCH   1   3
ATOM      3  C   UNL     1       2.315   7.257  19.465  0.00  0.00    +0.000 C 
ATOM      4  C   UNL     1       1.963   5.958  19.351  0.00  0.00    +0.000 C 
ATOM      5  C   UNL     1       1.926   5.177  18.050  0.00  0.00    +0.000 C 
ATOM      6  N   UNL     1       2.646   3.915  18.212  0.00  0.00    +0.000 NA
ATOM      7  C   UNL     1       2.666   3.074  17.022  0.00  0.00    +0.000 C 
ATOM      8  C   UNL     1       3.179   1.757  17.587  0.00  0.00    +0.000 C 
ATOM      9  C   UNL     1       2.693   1.721  19.037  0.00  0.00    +0.000 C 
ATOM     10  C   UNL     1       2.037   3.080  19.267  0.00  0.00    +0.000 C 
ATOM     11  C   UNL     1       2.306   3.766  20.623  0.00  0.00    +0.000 C 
ATOM     12  C   UNL     1       1.824   2.939  21.810  0.00  0.00    +0.000 C 
ATOM     13  C   UNL     1       1.616   5.152  20.599  0.00  0.00    +0.000 C 
BRANCH  11  14
ATOM     14  O   UNL     1       3.721   3.962  20.787  0.00  0.00    +0.000 OA
ATOM     15  H   UNL     1       4.027   3.135  21.217  0.00  0.00    +0.000 HD
ENDBRANCH  11  14
ENDBRANCH   1   3
BRANCH   1  16
ATOM     16  C   UNL     1       3.586   7.473  17.316  0.00  0.00    +0.000 C 
BRANCH  16  19
ATOM     17  C   UNL     1       5.362   5.384  15.911  0.00  0.00    +0.000 C 
ATOM     18  C   UNL     1       5.515   5.780  17.358  0.00  0.00    +0.000 C 
ATOM     19  C   UNL     1       4.702   6.683  17.951  0.00  0.00    +0.000 C 
BRANCH  18  20
ATOM     20  C   UNL     1       6.604   5.049  18.153  0.00  0.00    +0.000 C 
BRANCH  20  21
ATOM     21  O   UNL     1       6.014   3.967  18.889  0.00  0.00    +0.000 OA
ATOM     22  H   UNL     1       5.829   3.265  18.242  0.00  0.00    +0.000 HD
ENDBRANCH  20  21
BRANCH  20  23
ATOM     23  C   UNL     1       7.426   5.909  19.150  0.00  0.00    +0.000 C 
ATOM     24  C   UNL     1       8.101   7.099  18.468  0.00  0.00    +0.000 C 
BRANCH  23  25
ATOM     25  O   UNL     1       8.454   5.125  19.767  0.00  0.00    +0.000 OA
ATOM     26  H   UNL     1       9.254   5.247  19.226  0.00  0.00    +0.000 HD
ENDBRANCH  23  25
ENDBRANCH  20  23
ENDBRANCH  18  20
ENDBRANCH  16  19
ENDBRANCH   1  16
TORSDOF 8
ENDMDL
MODEL 6
REMARK VINA RESULT:      -6.8      1.612      2.399
REMARK  Name = 
REMARK  12 active torsions:
REMARK  status: ('A' for Active; 'I' for Inactive)
REMARK    1  A    between atoms: C_1  and  C_2
REMARK    2  A    between atoms: C_2  and  C_19
REMARK    3  A    between atoms: C_3  and  C_4
REMARK    4  A    between atoms: C_4  and  C_5
REMARK    5  A    between atoms: C_5  and  C_6
REMARK    6  A    between atoms: C_5  and  C_7
REMARK    7  A    between atoms: C_15  and  C_16
REMARK    8  A    between atoms: C_15  and  O_17
REMARK    9  A    between atoms: C_19  and  O_20
REMARK   10  A    between atoms: C_19  and  C_21
REMARK   11  A    between atoms: C_21  and  C_22
REMARK   12  A    between atoms: C_21  and  O_23
REMARK                            x       y       z     vdW  Elec       q    Type
REMARK                         _______ _______ _______ _____ _____    ______ ____
ROOT
ATOM      1  C   UNL     1       2.529   5.180  18.602  0.00  0.00    +0.000 C 
ATOM      2  C   UNL     1       1.230   4.598  18.036  0.00  0.00    +0.000 C 
ENDROOT
BRANCH   1   3
ATOM      3  C   UNL     1       2.235   5.895  19.903  0.00  0.00    +0.000 C 
ATOM      4  C   UNL     1       2.032   7.219  20.072  0.00  0.00    +0.000 C 
ATOM      5  C   UNL     1       2.013   8.248  18.956  0.00  0.00    +0.000 C 
ATOM      6  N   UNL     1       0.818   9.082  19.075  0.00  0.00    +0.000 NA
ATOM      7  C   UNL     1       0.699  10.116  18.056  0.00  0.00    +0.000 C 
ATOM      8  C   UNL     1      -0.419  10.979  18.624  0.00  0.00    +0.000 C 
ATOM      9  C   UNL     1      -0.306  10.841  20.142  0.00  0.00    +0.000 C 
ATOM     10  C   UNL     1       0.790   9.802  20.364  0.00  0.00    +0.000 C 
ATOM     11  C   UNL     1       0.553   8.761  21.479  0.00  0.00    +0.000 C 
ATOM     12  C   UNL     1       0.389   9.396  22.855  0.00  0.00    +0.000 C 
ATOM     13  C   UNL     1       1.744   7.772  21.466  0.00  0.00    +0.000 C 
BRANCH  11  14
ATOM     14  O   UNL     1      -0.653   8.030  21.201  0.00  0.00    +0.000 OA
ATOM     15  H   UNL     1      -0.353   7.278  20.647  0.00  0.00    +0.000 HD
ENDBRANCH  11  14
ENDBRANCH   1   3
BRANCH   1  16
ATOM     16  C   UNL     1       3.602   4.093  18.826  0.00  0.00    +0.000 C 
BRANCH  16  19
ATOM     17  C   UNL     1       5.258   4.068  16.228  0.00  0.00    +0.000 C 
ATOM     18  C   UNL     1       5.756   4.629  17.536  0.00  0.00    +0.000 C 
ATOM     19  C   UNL     1       5.013   4.602  18.664  0.00  0.00    +0.000 C 
BRANCH  18  20
ATOM     20  C   UNL     1       7.189   5.173  17.542  0.00  0.00    +0.000 C 
BRANCH  20  21
ATOM     21  O   UNL     1       8.096   4.129  17.927  0.00  0.00    +0.000 OA
ATOM     22  H   UNL     1       7.726   3.302  17.574  0.00  0.00    +0.000 HD
ENDBRANCH  20  21
BRANCH  20  23
ATOM     23  C   UNL     1       7.459   6.398  18.457  0.00  0.00    +0.000 C 
ATOM     24  C   UNL     1       7.864   7.638  17.660  0.00  0.00    +0.000 C 
BRANCH  23  25
ATOM     25  O   UNL     1       8.516   6.116  19.382  0.00  0.00    +0.000 OA
ATOM     26  H   UNL     1       9.034   5.389  18.994  0.00  0.00    +0.000 HD
ENDBRANCH  23  25
ENDBRANCH  20  23
ENDBRANCH  18  20
ENDBRANCH  16  19
ENDBRANCH   1  16
TORSDOF 8
ENDMDL
MODEL 7
REMARK VINA RESULT:      -6.8      1.225      1.927
REMARK  Name = 
REMARK  12 active torsions:
REMARK  status: ('A' for Active; 'I' for Inactive)
REMARK    1  A    between atoms: C_1  and  C_2
REMARK    2  A    between atoms: C_2  and  C_19
REMARK    3  A    between atoms: C_3  and  C_4
REMARK    4  A    between atoms: C_4  and  C_5
REMARK    5  A    between atoms: C_5  and  C_6
REMARK    6  A    between atoms: C_5  and  C_7
REMARK    7  A    between atoms: C_15  and  C_16
REMARK    8  A    between atoms: C_15  and  O_17
REMARK    9  A    between atoms: C_19  and  O_20
REMARK   10  A    between atoms: C_19  and  C_21
REMARK   11  A    between atoms: C_21  and  C_22
REMARK   12  A    between atoms: C_21  and  O_23
REMARK                            x       y       z     vdW  Elec       q    Type
REMARK                         _______ _______ _______ _____ _____    ______ ____
ROOT
ATOM      1  C   UNL     1       2.392   6.005  18.751  0.00  0.00    +0.000 C 
ATOM      2  C   UNL     1       3.048   4.640  18.974  0.00  0.00    +0.000 C 
ENDROOT
BRANCH   1   3
ATOM      3  C   UNL     1       2.094   6.644  20.090  0.00  0.00    +0.000 C 
ATOM      4  C   UNL     1       1.708   7.919  20.313  0.00  0.00    +0.000 C 
ATOM      5  C   UNL     1       1.449   8.952  19.232  0.00  0.00    +0.000 C 
ATOM      6  N   UNL     1       0.155   9.593  19.461  0.00  0.00    +0.000 NA
ATOM      7  C   UNL     1      -0.195  10.615  18.484  0.00  0.00    +0.000 C 
ATOM      8  C   UNL     1      -1.383  11.288  19.157  0.00  0.00    +0.000 C 
ATOM      9  C   UNL     1      -1.135  11.141  20.659  0.00  0.00    +0.000 C 
ATOM     10  C   UNL     1       0.119  10.277  20.770  0.00  0.00    +0.000 C 
ATOM     11  C   UNL     1       0.127   9.193  21.868  0.00  0.00    +0.000 C 
ATOM     12  C   UNL     1      -0.025   9.772  23.270  0.00  0.00    +0.000 C 
ATOM     13  C   UNL     1       1.448   8.397  21.739  0.00  0.00    +0.000 C 
BRANCH  11  14
ATOM     14  O   UNL     1      -0.974   8.292  21.658  0.00  0.00    +0.000 OA
ATOM     15  H   UNL     1      -1.619   8.539  22.354  0.00  0.00    +0.000 HD
ENDBRANCH  11  14
ENDBRANCH   1   3
BRANCH   1  16
ATOM     16  C   UNL     1       3.276   6.943  17.901  0.00  0.00    +0.000 C 
BRANCH  16  19
ATOM     17  C   UNL     1       5.090   6.894  15.411  0.00  0.00    +0.000 C 
ATOM     18  C   UNL     1       5.555   6.520  16.797  0.00  0.00    +0.000 C 
ATOM     19  C   UNL     1       4.726   6.528  17.864  0.00  0.00    +0.000 C 
BRANCH  18  20
ATOM     20  C   UNL     1       7.010   6.056  16.925  0.00  0.00    +0.000 C 
BRANCH  20  21
ATOM     21  O   UNL     1       7.416   5.416  15.705  0.00  0.00    +0.000 OA
ATOM     22  H   UNL     1       8.254   4.961  15.901  0.00  0.00    +0.000 HD
ENDBRANCH  20  21
BRANCH  20  23
ATOM     23  C   UNL     1       7.327   5.089  18.097  0.00  0.00    +0.000 C 
ATOM     24  C   UNL     1       8.053   5.791  19.245  0.00  0.00    +0.000 C 
BRANCH  23  25
ATOM     25  O   UNL     1       8.160   4.012  17.654  0.00  0.00    +0.000 OA
ATOM     26  H   UNL     1       7.681   3.190  17.861  0.00  0.00    +0.000 HD
ENDBRANCH  23  25
ENDBRANCH  20  23
ENDBRANCH  18  20
ENDBRANCH  16  19
ENDBRANCH   1  16
TORSDOF 8
ENDMDL
MODEL 8
REMARK VINA RESULT:      -6.8      3.766      5.636
REMARK  Name = 
REMARK  12 active torsions:
REMARK  status: ('A' for Active; 'I' for Inactive)
REMARK    1  A    between atoms: C_1  and  C_2
REMARK    2  A    between atoms: C_2  and  C_19
REMARK    3  A    between atoms: C_3  and  C_4
REMARK    4  A    between atoms: C_4  and  C_5
REMARK    5  A    between atoms: C_5  and  C_6
REMARK    6  A    between atoms: C_5  and  C_7
REMARK    7  A    between atoms: C_15  and  C_16
REMARK    8  A    between atoms: C_15  and  O_17
REMARK    9  A    between atoms: C_19  and  O_20
REMARK   10  A    between atoms: C_19  and  C_21
REMARK   11  A    between atoms: C_21  and  C_22
REMARK   12  A    between atoms: C_21  and  O_23
REMARK                            x       y       z     vdW  Elec       q    Type
REMARK                         _______ _______ _______ _____ _____    ______ ____
ROOT
ATOM      1  C   UNL     1       5.984   5.383  16.414  0.00  0.00    +0.000 C 
ATOM      2  C   UNL     1       5.162   6.583  15.933  0.00  0.00    +0.000 C 
ENDROOT
BRANCH   1   3
ATOM      3  C   UNL     1       5.056   4.223  16.707  0.00  0.00    +0.000 C 
ATOM      4  C   UNL     1       4.324   4.032  17.825  0.00  0.00    +0.000 C 
ATOM      5  C   UNL     1       4.259   4.993  18.998  0.00  0.00    +0.000 C 
ATOM      6  N   UNL     1       2.863   5.247  19.351  0.00  0.00    +0.000 NA
ATOM      7  C   UNL     1       2.680   6.153  20.477  0.00  0.00    +0.000 C 
ATOM      8  C   UNL     1       1.202   5.960  20.787  0.00  0.00    +0.000 C 
ATOM      9  C   UNL     1       0.887   4.520  20.381  0.00  0.00    +0.000 C 
ATOM     10  C   UNL     1       2.171   4.002  19.737  0.00  0.00    +0.000 C 
ATOM     11  C   UNL     1       2.017   3.136  18.469  0.00  0.00    +0.000 C 
ATOM     12  C   UNL     1       1.210   1.866  18.714  0.00  0.00    +0.000 C 
ATOM     13  C   UNL     1       3.435   2.797  17.950  0.00  0.00    +0.000 C 
BRANCH  11  14
ATOM     14  O   UNL     1       1.327   3.890  17.457  0.00  0.00    +0.000 OA
ATOM     15  H   UNL     1       2.023   4.096  16.798  0.00  0.00    +0.000 HD
ENDBRANCH  11  14
ENDBRANCH   1   3
BRANCH   1  16
ATOM     16  C   UNL     1       7.052   4.960  15.383  0.00  0.00    +0.000 C 
BRANCH  16  19
ATOM     17  C   UNL     1       7.764   5.335  12.409  0.00  0.00    +0.000 C 
ATOM     18  C   UNL     1       6.799   4.293  12.917  0.00  0.00    +0.000 C 
ATOM     19  C   UNL     1       6.490   4.172  14.227  0.00  0.00    +0.000 C 
BRANCH  18  20
ATOM     20  C   UNL     1       6.125   3.415  11.857  0.00  0.00    +0.000 C 
BRANCH  20  21
ATOM     21  O   UNL     1       4.713   3.356  12.112  0.00  0.00    +0.000 OA
ATOM     22  H   UNL     1       4.604   3.479  13.071  0.00  0.00    +0.000 HD
ENDBRANCH  20  21
BRANCH  20  23
ATOM     23  C   UNL     1       6.646   1.958  11.733  0.00  0.00    +0.000 C 
ATOM     24  C   UNL     1       7.740   1.823  10.675  0.00  0.00    +0.000 C 
BRANCH  23  25
ATOM     25  O   UNL     1       5.583   1.069  11.370  0.00  0.00    +0.000 OA
ATOM     26  H   UNL     1       4.754   1.555  11.524  0.00  0.00    +0.000 HD
ENDBRANCH  23  25
ENDBRANCH  20  23
ENDBRANCH  18  20
ENDBRANCH  16  19
ENDBRANCH   1  16
TORSDOF 8
ENDMDL
MODEL 9
REMARK VINA RESULT:      -6.8      1.559      2.266
REMARK  Name = 
REMARK  12 active torsions:
REMARK  status: ('A' for Active; 'I' for Inactive)
REMARK    1  A    between atoms: C_1  and  C_2
REMARK    2  A    between atoms: C_2  and  C_19
REMARK    3  A    between atoms: C_3  and  C_4
REMARK    4  A    between atoms: C_4  and  C_5
REMARK    5  A    between atoms: C_5  and  C_6
REMARK    6  A    between atoms: C_5  and  C_7
REMARK    7  A    between atoms: C_15  and  C_16
REMARK    8  A    between atoms: C_15  and  O_17
REMARK    9  A    between atoms: C_19  and  O_20
REMARK   10  A    between atoms: C_19  and  C_21
REMARK   11  A    between atoms: C_21  and  C_22
REMARK   12  A    between atoms: C_21  and  O_23
REMARK                            x       y       z     vdW  Elec       q    Type
REMARK                         _______ _______ _______ _____ _____    ______ ____
ROOT
ATOM      1  C   UNL     1       2.037   5.039  19.655  0.00  0.00    +0.000 C 
ATOM      2  C   UNL     1       1.170   3.783  19.779  0.00  0.00    +0.000 C 
ENDROOT
BRANCH   1   3
ATOM      3  C   UNL     1       1.706   5.993  20.782  0.00  0.00    +0.000 C 
ATOM      4  C   UNL     1       1.630   7.339  20.711  0.00  0.00    +0.000 C 
ATOM      5  C   UNL     1       1.819   8.155  19.446  0.00  0.00    +0.000 C 
ATOM      6  N   UNL     1       0.714   9.101  19.299  0.00  0.00    +0.000 NA
ATOM      7  C   UNL     1       0.797   9.949  18.118  0.00  0.00    +0.000 C 
ATOM      8  C   UNL     1      -0.270  10.994  18.415  0.00  0.00    +0.000 C 
ATOM      9  C   UNL     1      -0.308  11.112  19.939  0.00  0.00    +0.000 C 
ATOM     10  C   UNL     1       0.648  10.033  20.443  0.00  0.00    +0.000 C 
ATOM     11  C   UNL     1       0.204   9.227  21.681  0.00  0.00    +0.000 C 
ATOM     12  C   UNL     1      -0.013  10.103  22.910  0.00  0.00    +0.000 C 
ATOM     13  C   UNL     1       1.280   8.148  21.957  0.00  0.00    +0.000 C 
BRANCH  11  14
ATOM     14  O   UNL     1      -1.044   8.569  21.402  0.00  0.00    +0.000 OA
ATOM     15  H   UNL     1      -1.696   9.301  21.371  0.00  0.00    +0.000 HD
ENDBRANCH  11  14
ENDBRANCH   1   3
BRANCH   1  16
ATOM     16  C   UNL     1       3.545   4.707  19.667  0.00  0.00    +0.000 C 
BRANCH  16  19
ATOM     17  C   UNL     1       4.303   4.403  16.696  0.00  0.00    +0.000 C 
ATOM     18  C   UNL     1       4.705   5.579  17.550  0.00  0.00    +0.000 C 
ATOM     19  C   UNL     1       4.377   5.670  18.858  0.00  0.00    +0.000 C 
BRANCH  18  20
ATOM     20  C   UNL     1       5.574   6.645  16.873  0.00  0.00    +0.000 C 
BRANCH  20  21
ATOM     21  O   UNL     1       5.313   6.649  15.462  0.00  0.00    +0.000 OA
ATOM     22  H   UNL     1       6.159   6.855  15.027  0.00  0.00    +0.000 HD
ENDBRANCH  20  21
BRANCH  20  23
ATOM     23  C   UNL     1       7.109   6.514  17.071  0.00  0.00    +0.000 C 
ATOM     24  C   UNL     1       7.737   7.805  17.595  0.00  0.00    +0.000 C 
BRANCH  23  25
ATOM     25  O   UNL     1       7.753   6.192  15.833  0.00  0.00    +0.000 OA
ATOM     26  H   UNL     1       7.096   5.715  15.297  0.00  0.00    +0.000 HD
ENDBRANCH  23  25
ENDBRANCH  20  23
ENDBRANCH  18  20
ENDBRANCH  16  19
ENDBRANCH   1  16
TORSDOF 8
ENDMDL
