MODEL 1
REMARK VINA RESULT:      -8.7      0.000      0.000
REMARK  Name = 
REMARK  5 active torsions:
REMARK  status: ('A' for Active; 'I' for Inactive)
REMARK    1  A    between atoms: C_1  and  C_2
REMARK    2  A    between atoms: C_4  and  N_5
REMARK    3  A    between atoms: C_6  and  C_8
REMARK    4  A    between atoms: C_10  and  C_11
REMARK    5  A    between atoms: N_19  and  C_20
REMARK                            x       y       z     vdW  Elec       q    Type
REMARK                         _______ _______ _______ _____ _____    ______ ____
ROOT
ATOM      1  N   UNL     1       5.548   6.050  18.229  0.00  0.00    +0.000 N 
ATOM      2  C   UNL     1       6.225   6.765  17.194  0.00  0.00    +0.000 C 
ATOM      3  O   UNL     1       5.878   6.738  16.027  0.00  0.00    +0.000 OA
ATOM      4  H   UNL     1       5.815   6.255  19.192  0.00  0.00    +0.000 HD
ENDROOT
BRANCH   1   8
ATOM      5  C   UNL     1       2.548   2.179  17.358  0.00  0.00    +0.000 C 
ATOM      6  C   UNL     1       3.109   3.518  17.674  0.00  0.00    +0.000 A 
ATOM      7  C   UNL     1       4.449   3.951  17.547  0.00  0.00    +0.000 A 
ATOM      8  C   UNL     1       4.440   5.250  17.994  0.00  0.00    +0.000 A 
ATOM      9  N   UNL     1       3.117   5.568  18.268  0.00  0.00    +0.000 N 
ATOM     10  N   UNL     1       2.319   4.476  18.171  0.00  0.00    +0.000 NA
BRANCH   9  11
ATOM     11  C   UNL     1       2.588   6.850  18.580  0.00  0.00    +0.000 A 
ATOM     12  C   UNL     1       2.123   7.140  19.873  0.00  0.00    +0.000 A 
ATOM     13  C   UNL     1       1.561   8.385  20.153  0.00  0.00    +0.000 A 
ATOM     14  C   UNL     1       1.469   9.348  19.149  0.00  0.00    +0.000 A 
ATOM     15  C   UNL     1       1.967   9.078  17.876  0.00  0.00    +0.000 A 
ATOM     16  C   UNL     1       2.545   7.839  17.592  0.00  0.00    +0.000 A 
ENDBRANCH   9  11
ENDBRANCH   1   8
BRANCH   2  17
ATOM     17  C   UNL     1       7.261   7.592  17.795  0.00  0.00    +0.000 A 
ATOM     18  C   UNL     1       7.479   8.984  17.635  0.00  0.00    +0.000 A 
ATOM     19  C   UNL     1       8.565   9.269  18.432  0.00  0.00    +0.000 A 
ATOM     20  O   UNL     1       8.971   8.112  19.031  0.00  0.00    +0.000 OA
ATOM     21  N   UNL     1       8.155   7.066  18.652  0.00  0.00    +0.000 NA
BRANCH  19  22
ATOM     22  C   UNL     1       9.316  10.474  18.765  0.00  0.00    +0.000 A 
ATOM     23  C   UNL     1       9.724  10.722  20.084  0.00  0.00    +0.000 A 
ATOM     24  C   UNL     1      10.458  11.869  20.405  0.00  0.00    +0.000 A 
ATOM     25  C   UNL     1      10.796  12.784  19.413  0.00  0.00    +0.000 A 
ATOM     26  C   UNL     1      10.395  12.558  18.099  0.00  0.00    +0.000 A 
ATOM     27  C   UNL     1       9.663  11.411  17.778  0.00  0.00    +0.000 A 
ENDBRANCH  19  22
ENDBRANCH   2  17
TORSDOF 4
ENDMDL
MODEL 2
REMARK VINA RESULT:      -8.5      0.417      1.036
REMARK  Name = 
REMARK  5 active torsions:
REMARK  status: ('A' for Active; 'I' for Inactive)
REMARK    1  A    between atoms: C_1  and  C_2
REMARK    2  A    between atoms: C_4  and  N_5
REMARK    3  A    between atoms: C_6  and  C_8
REMARK    4  A    between atoms: C_10  and  C_11
REMARK    5  A    between atoms: N_19  and  C_20
REMARK                            x       y       z     vdW  Elec       q    Type
REMARK                         _______ _______ _______ _____ _____    ______ ____
ROOT
ATOM      1  N   UNL     1       5.648   6.082  18.268  0.00  0.00    +0.000 N 
ATOM      2  C   UNL     1       6.251   6.802  17.192  0.00  0.00    +0.000 C 
ATOM      3  O   UNL     1       5.870   6.719  16.038  0.00  0.00    +0.000 OA
ATOM      4  H   UNL     1       5.931   6.333  19.216  0.00  0.00    +0.000 HD
ENDROOT
BRANCH   1   8
ATOM      5  C   UNL     1       2.847   2.018  17.652  0.00  0.00    +0.000 C 
ATOM      6  C   UNL     1       3.340   3.400  17.886  0.00  0.00    +0.000 A 
ATOM      7  C   UNL     1       4.653   3.895  17.718  0.00  0.00    +0.000 A 
ATOM      8  C   UNL     1       4.582   5.214  18.093  0.00  0.00    +0.000 A 
ATOM      9  N   UNL     1       3.246   5.478  18.367  0.00  0.00    +0.000 N 
ATOM     10  N   UNL     1       2.506   4.341  18.342  0.00  0.00    +0.000 NA
BRANCH   9  11
ATOM     11  C   UNL     1       2.654   6.745  18.616  0.00  0.00    +0.000 A 
ATOM     12  C   UNL     1       2.567   7.709  17.599  0.00  0.00    +0.000 A 
ATOM     13  C   UNL     1       2.029   8.968  17.870  0.00  0.00    +0.000 A 
ATOM     14  C   UNL     1       1.569   9.266  19.151  0.00  0.00    +0.000 A 
ATOM     15  C   UNL     1       1.616   8.298  20.151  0.00  0.00    +0.000 A 
ATOM     16  C   UNL     1       2.139   7.031  19.884  0.00  0.00    +0.000 A 
ENDBRANCH   9  11
ENDBRANCH   1   8
BRANCH   2  17
ATOM     17  C   UNL     1       7.256   7.704  17.735  0.00  0.00    +0.000 A 
ATOM     18  C   UNL     1       7.418   9.092  17.487  0.00  0.00    +0.000 A 
ATOM     19  C   UNL     1       8.494   9.468  18.259  0.00  0.00    +0.000 A 
ATOM     20  O   UNL     1       8.947   8.367  18.927  0.00  0.00    +0.000 OA
ATOM     21  N   UNL     1       8.171   7.268  18.618  0.00  0.00    +0.000 NA
BRANCH  19  22
ATOM     22  C   UNL     1       9.199  10.719  18.512  0.00  0.00    +0.000 A 
ATOM     23  C   UNL     1      10.226  10.782  19.466  0.00  0.00    +0.000 A 
ATOM     24  C   UNL     1      10.914  11.977  19.701  0.00  0.00    +0.000 A 
ATOM     25  C   UNL     1      10.588  13.126  18.986  0.00  0.00    +0.000 A 
ATOM     26  C   UNL     1       9.568  13.084  18.041  0.00  0.00    +0.000 A 
ATOM     27  C   UNL     1       8.880  11.890  17.804  0.00  0.00    +0.000 A 
ENDBRANCH  19  22
ENDBRANCH   2  17
TORSDOF 4
ENDMDL
MODEL 3
REMARK VINA RESULT:      -8.1      4.149      7.207
REMARK  Name = 
REMARK  5 active torsions:
REMARK  status: ('A' for Active; 'I' for Inactive)
REMARK    1  A    between atoms: C_1  and  C_2
REMARK    2  A    between atoms: C_4  and  N_5
REMARK    3  A    between atoms: C_6  and  C_8
REMARK    4  A    between atoms: C_10  and  C_11
REMARK    5  A    between atoms: N_19  and  C_20
REMARK                            x       y       z     vdW  Elec       q    Type
REMARK                         _______ _______ _______ _____ _____    ______ ____
ROOT
ATOM      1  N   UNL     1       3.360   6.964  18.846  0.00  0.00    +0.000 N 
ATOM      2  C   UNL     1       2.875   7.893  17.874  0.00  0.00    +0.000 C 
ATOM      3  O   UNL     1       3.232   7.887  16.710  0.00  0.00    +0.000 OA
ATOM      4  H   UNL     1       2.891   6.947  19.751  0.00  0.00    +0.000 HD
ENDROOT
BRANCH   1   8
ATOM      5  C   UNL     1       7.548   4.537  17.702  0.00  0.00    +0.000 C 
ATOM      6  C   UNL     1       6.167   4.904  18.109  0.00  0.00    +0.000 A 
ATOM      7  C   UNL     1       5.542   6.169  18.020  0.00  0.00    +0.000 A 
ATOM      8  C   UNL     1       4.290   5.980  18.551  0.00  0.00    +0.000 A 
ATOM      9  N   UNL     1       4.180   4.625  18.838  0.00  0.00    +0.000 N 
ATOM     10  N   UNL     1       5.365   3.989  18.664  0.00  0.00    +0.000 NA
BRANCH   9  11
ATOM     11  C   UNL     1       3.010   3.923  19.231  0.00  0.00    +0.000 A 
ATOM     12  C   UNL     1       2.234   3.233  18.285  0.00  0.00    +0.000 A 
ATOM     13  C   UNL     1       1.060   2.589  18.677  0.00  0.00    +0.000 A 
ATOM     14  C   UNL     1       0.660   2.623  20.011  0.00  0.00    +0.000 A 
ATOM     15  C   UNL     1       1.448   3.272  20.959  0.00  0.00    +0.000 A 
ATOM     16  C   UNL     1       2.633   3.906  20.578  0.00  0.00    +0.000 A 
ENDBRANCH   9  11
ENDBRANCH   1   8
BRANCH   2  17
ATOM     17  C   UNL     1       1.832   8.706  18.481  0.00  0.00    +0.000 A 
ATOM     18  C   UNL     1       1.542   8.881  19.858  0.00  0.00    +0.000 A 
ATOM     19  C   UNL     1       0.484   9.761  19.891  0.00  0.00    +0.000 A 
ATOM     20  O   UNL     1       0.162  10.091  18.606  0.00  0.00    +0.000 OA
ATOM     21  N   UNL     1       1.007   9.450  17.723  0.00  0.00    +0.000 NA
BRANCH  19  22
ATOM     22  C   UNL     1      -0.307  10.391  20.943  0.00  0.00    +0.000 A 
ATOM     23  C   UNL     1      -0.330   9.854  22.239  0.00  0.00    +0.000 A 
ATOM     24  C   UNL     1      -1.075  10.464  23.254  0.00  0.00    +0.000 A 
ATOM     25  C   UNL     1      -1.806  11.618  22.990  0.00  0.00    +0.000 A 
ATOM     26  C   UNL     1      -1.801  12.160  21.708  0.00  0.00    +0.000 A 
ATOM     27  C   UNL     1      -1.055  11.553  20.693  0.00  0.00    +0.000 A 
ENDBRANCH  19  22
ENDBRANCH   2  17
TORSDOF 4
ENDMDL
MODEL 4
REMARK VINA RESULT:      -8.0      2.866      6.850
REMARK  Name = 
REMARK  5 active torsions:
REMARK  status: ('A' for Active; 'I' for Inactive)
REMARK    1  A    between atoms: C_1  and  C_2
REMARK    2  A    between atoms: C_4  and  N_5
REMARK    3  A    between atoms: C_6  and  C_8
REMARK    4  A    between atoms: C_10  and  C_11
REMARK    5  A    between atoms: N_19  and  C_20
REMARK                            x       y       z     vdW  Elec       q    Type
REMARK                         _______ _______ _______ _____ _____    ______ ____
ROOT
ATOM      1  N   UNL     1       4.094   5.685  17.324  0.00  0.00    +0.000 N 
ATOM      2  C   UNL     1       3.802   4.962  18.522  0.00  0.00    +0.000 C 
ATOM      3  O   UNL     1       4.326   3.899  18.804  0.00  0.00    +0.000 OA
ATOM      4  H   UNL     1       3.726   6.633  17.249  0.00  0.00    +0.000 HD
ENDROOT
BRANCH   1   8
ATOM      5  C   UNL     1       6.142   3.705  13.247  0.00  0.00    +0.000 C 
ATOM      6  C   UNL     1       5.892   4.414  14.528  0.00  0.00    +0.000 A 
ATOM      7  C   UNL     1       4.718   4.401  15.314  0.00  0.00    +0.000 A 
ATOM      8  C   UNL     1       4.993   5.234  16.370  0.00  0.00    +0.000 A 
ATOM      9  N   UNL     1       6.319   5.625  16.233  0.00  0.00    +0.000 N 
ATOM     10  N   UNL     1       6.835   5.206  15.051  0.00  0.00    +0.000 NA
BRANCH   9  11
ATOM     11  C   UNL     1       7.107   6.337  17.177  0.00  0.00    +0.000 A 
ATOM     12  C   UNL     1       7.595   5.702  18.331  0.00  0.00    +0.000 A 
ATOM     13  C   UNL     1       8.325   6.426  19.274  0.00  0.00    +0.000 A 
ATOM     14  C   UNL     1       8.577   7.782  19.067  0.00  0.00    +0.000 A 
ATOM     15  C   UNL     1       8.129   8.405  17.905  0.00  0.00    +0.000 A 
ATOM     16  C   UNL     1       7.411   7.683  16.948  0.00  0.00    +0.000 A 
ENDBRANCH   9  11
ENDBRANCH   1   8
BRANCH   2  17
ATOM     17  C   UNL     1       2.915   5.764  19.350  0.00  0.00    +0.000 A 
ATOM     18  C   UNL     1       2.658   7.157  19.272  0.00  0.00    +0.000 A 
ATOM     19  C   UNL     1       1.732   7.405  20.261  0.00  0.00    +0.000 A 
ATOM     20  O   UNL     1       1.454   6.227  20.892  0.00  0.00    +0.000 OA
ATOM     21  N   UNL     1       2.175   5.197  20.320  0.00  0.00    +0.000 NA
BRANCH  19  22
ATOM     22  C   UNL     1       1.017   8.583  20.736  0.00  0.00    +0.000 A 
ATOM     23  C   UNL     1       0.671   9.616  19.851  0.00  0.00    +0.000 A 
ATOM     24  C   UNL     1      -0.029  10.741  20.301  0.00  0.00    +0.000 A 
ATOM     25  C   UNL     1      -0.394  10.850  21.639  0.00  0.00    +0.000 A 
ATOM     26  C   UNL     1      -0.054   9.839  22.532  0.00  0.00    +0.000 A 
ATOM     27  C   UNL     1       0.644   8.713  22.084  0.00  0.00    +0.000 A 
ENDBRANCH  19  22
ENDBRANCH   2  17
TORSDOF 4
ENDMDL
MODEL 5
REMARK VINA RESULT:      -8.0      4.622      7.823
REMARK  Name = 
REMARK  5 active torsions:
REMARK  status: ('A' for Active; 'I' for Inactive)
REMARK    1  A    between atoms: C_1  and  C_2
REMARK    2  A    between atoms: C_4  and  N_5
REMARK    3  A    between atoms: C_6  and  C_8
REMARK    4  A    between atoms: C_10  and  C_11
REMARK    5  A    between atoms: N_19  and  C_20
REMARK                            x       y       z     vdW  Elec       q    Type
REMARK                         _______ _______ _______ _____ _____    ______ ____
ROOT
ATOM      1  N   UNL     1       2.466   7.616  19.001  0.00  0.00    +0.000 N 
ATOM      2  C   UNL     1       1.864   8.813  18.504  0.00  0.00    +0.000 C 
ATOM      3  O   UNL     1       1.947   9.169  17.342  0.00  0.00    +0.000 OA
ATOM      4  H   UNL     1       2.213   7.322  19.944  0.00  0.00    +0.000 HD
ENDROOT
BRANCH   1   8
ATOM      5  C   UNL     1       5.757   5.737  15.780  0.00  0.00    +0.000 C 
ATOM      6  C   UNL     1       4.718   5.925  16.825  0.00  0.00    +0.000 A 
ATOM      7  C   UNL     1       4.036   7.115  17.168  0.00  0.00    +0.000 A 
ATOM      8  C   UNL     1       3.211   6.759  18.206  0.00  0.00    +0.000 A 
ATOM      9  N   UNL     1       3.353   5.388  18.375  0.00  0.00    +0.000 N 
ATOM     10  N   UNL     1       4.352   4.898  17.600  0.00  0.00    +0.000 NA
BRANCH   9  11
ATOM     11  C   UNL     1       2.570   4.539  19.203  0.00  0.00    +0.000 A 
ATOM     12  C   UNL     1       2.806   4.467  20.585  0.00  0.00    +0.000 A 
ATOM     13  C   UNL     1       2.064   3.592  21.379  0.00  0.00    +0.000 A 
ATOM     14  C   UNL     1       1.079   2.794  20.800  0.00  0.00    +0.000 A 
ATOM     15  C   UNL     1       0.814   2.893  19.436  0.00  0.00    +0.000 A 
ATOM     16  C   UNL     1       1.542   3.777  18.637  0.00  0.00    +0.000 A 
ENDBRANCH   9  11
ENDBRANCH   1   8
BRANCH   2  17
ATOM     17  C   UNL     1       1.064   9.411  19.562  0.00  0.00    +0.000 A 
ATOM     18  C   UNL     1       0.158  10.498  19.472  0.00  0.00    +0.000 A 
ATOM     19  C   UNL     1      -0.348  10.647  20.744  0.00  0.00    +0.000 A 
ATOM     20  O   UNL     1       0.225   9.702  21.546  0.00  0.00    +0.000 OA
ATOM     21  N   UNL     1       1.095   8.919  20.814  0.00  0.00    +0.000 NA
BRANCH  19  22
ATOM     22  C   UNL     1      -1.319  11.533  21.375  0.00  0.00    +0.000 A 
ATOM     23  C   UNL     1      -2.066  12.439  20.606  0.00  0.00    +0.000 A 
ATOM     24  C   UNL     1      -3.010  13.280  21.205  0.00  0.00    +0.000 A 
ATOM     25  C   UNL     1      -3.221  13.229  22.580  0.00  0.00    +0.000 A 
ATOM     26  C   UNL     1      -2.485  12.342  23.359  0.00  0.00    +0.000 A 
ATOM     27  C   UNL     1      -1.543  11.499  22.761  0.00  0.00    +0.000 A 
ENDBRANCH  19  22
ENDBRANCH   2  17
TORSDOF 4
ENDMDL
MODEL 6
REMARK VINA RESULT:      -8.0      4.612      5.724
REMARK  Name = 
REMARK  5 active torsions:
REMARK  status: ('A' for Active; 'I' for Inactive)
REMARK    1  A    between atoms: C_1  and  C_2
REMARK    2  A    between atoms: C_4  and  N_5
REMARK    3  A    between atoms: C_6  and  C_8
REMARK    4  A    between atoms: C_10  and  C_11
REMARK    5  A    between atoms: N_19  and  C_20
REMARK                            x       y       z     vdW  Elec       q    Type
REMARK                         _______ _______ _______ _____ _____    ______ ____
ROOT
ATOM      1  N   UNL     1       4.058   4.266  18.506  0.00  0.00    +0.000 N 
ATOM      2  C   UNL     1       5.438   4.535  18.759  0.00  0.00    +0.000 C 
ATOM      3  O   UNL     1       5.905   4.627  19.880  0.00  0.00    +0.000 OA
ATOM      4  H   UNL     1       3.792   4.054  17.544  0.00  0.00    +0.000 HD
ENDROOT
BRANCH   1   8
ATOM      5  C   UNL     1       1.394   2.460  22.298  0.00  0.00    +0.000 C 
ATOM      6  C   UNL     1       1.988   3.320  21.241  0.00  0.00    +0.000 A 
ATOM      7  C   UNL     1       2.840   2.931  20.182  0.00  0.00    +0.000 A 
ATOM      8  C   UNL     1       3.123   4.098  19.516  0.00  0.00    +0.000 A 
ATOM      9  N   UNL     1       2.373   5.096  20.123  0.00  0.00    +0.000 N 
ATOM     10  N   UNL     1       1.761   4.638  21.243  0.00  0.00    +0.000 NA
BRANCH   9  11
ATOM     11  C   UNL     1       2.194   6.431  19.672  0.00  0.00    +0.000 A 
ATOM     12  C   UNL     1       1.690   7.419  20.533  0.00  0.00    +0.000 A 
ATOM     13  C   UNL     1       1.472   8.715  20.062  0.00  0.00    +0.000 A 
ATOM     14  C   UNL     1       1.763   9.031  18.737  0.00  0.00    +0.000 A 
ATOM     15  C   UNL     1       2.302   8.064  17.891  0.00  0.00    +0.000 A 
ATOM     16  C   UNL     1       2.538   6.769  18.359  0.00  0.00    +0.000 A 
ENDBRANCH   9  11
ENDBRANCH   1   8
BRANCH   2  17
ATOM     17  C   UNL     1       6.156   4.538  17.494  0.00  0.00    +0.000 A 
ATOM     18  C   UNL     1       5.626   4.447  16.181  0.00  0.00    +0.000 A 
ATOM     19  C   UNL     1       6.721   4.518  15.349  0.00  0.00    +0.000 A 
ATOM     20  O   UNL     1       7.839   4.644  16.122  0.00  0.00    +0.000 OA
ATOM     21  N   UNL     1       7.494   4.672  17.459  0.00  0.00    +0.000 NA
BRANCH  19  22
ATOM     22  C   UNL     1       6.926   4.507  13.905  0.00  0.00    +0.000 A 
ATOM     23  C   UNL     1       6.275   3.562  13.097  0.00  0.00    +0.000 A 
ATOM     24  C   UNL     1       6.457   3.558  11.710  0.00  0.00    +0.000 A 
ATOM     25  C   UNL     1       7.291   4.496  11.110  0.00  0.00    +0.000 A 
ATOM     26  C   UNL     1       7.951   5.436  11.896  0.00  0.00    +0.000 A 
ATOM     27  C   UNL     1       7.768   5.442  13.282  0.00  0.00    +0.000 A 
ENDBRANCH  19  22
ENDBRANCH   2  17
TORSDOF 4
ENDMDL
MODEL 7
REMARK VINA RESULT:      -8.0      4.563      7.555
REMARK  Name = 
REMARK  5 active torsions:
REMARK  status: ('A' for Active; 'I' for Inactive)
REMARK    1  A    between atoms: C_1  and  C_2
REMARK    2  A    between atoms: C_4  and  N_5
REMARK    3  A    between atoms: C_6  and  C_8
REMARK    4  A    between atoms: C_10  and  C_11
REMARK    5  A    between atoms: N_19  and  C_20
REMARK                            x       y       z     vdW  Elec       q    Type
REMARK                         _______ _______ _______ _____ _____    ______ ____
ROOT
ATOM      1  N   UNL     1       2.720   7.324  18.848  0.00  0.00    +0.000 N 
ATOM      2  C   UNL     1       2.082   8.503  18.354  0.00  0.00    +0.000 C 
ATOM      3  O   UNL     1       2.123   8.843  17.185  0.00  0.00    +0.000 OA
ATOM      4  H   UNL     1       2.502   7.040  19.803  0.00  0.00    +0.000 HD
ENDROOT
BRANCH   1   8
ATOM      5  C   UNL     1       6.057   5.424  15.687  0.00  0.00    +0.000 C 
ATOM      6  C   UNL     1       4.978   5.618  16.690  0.00  0.00    +0.000 A 
ATOM      7  C   UNL     1       4.351   6.828  17.067  0.00  0.00    +0.000 A 
ATOM      8  C   UNL     1       3.453   6.467  18.042  0.00  0.00    +0.000 A 
ATOM      9  N   UNL     1       3.505   5.082  18.138  0.00  0.00    +0.000 N 
ATOM     10  N   UNL     1       4.513   4.575  17.385  0.00  0.00    +0.000 NA
BRANCH   9  11
ATOM     11  C   UNL     1       2.632   4.239  18.877  0.00  0.00    +0.000 A 
ATOM     12  C   UNL     1       2.748   4.131  20.272  0.00  0.00    +0.000 A 
ATOM     13  C   UNL     1       1.917   3.262  20.979  0.00  0.00    +0.000 A 
ATOM     14  C   UNL     1       0.963   2.505  20.301  0.00  0.00    +0.000 A 
ATOM     15  C   UNL     1       0.817   2.642  18.922  0.00  0.00    +0.000 A 
ATOM     16  C   UNL     1       1.635   3.521  18.209  0.00  0.00    +0.000 A 
ENDBRANCH   9  11
ENDBRANCH   1   8
BRANCH   2  17
ATOM     17  C   UNL     1       1.307   9.104  19.429  0.00  0.00    +0.000 A 
ATOM     18  C   UNL     1       0.430  10.217  19.364  0.00  0.00    +0.000 A 
ATOM     19  C   UNL     1      -0.062  10.357  20.643  0.00  0.00    +0.000 A 
ATOM     20  O   UNL     1       0.491   9.383  21.423  0.00  0.00    +0.000 OA
ATOM     21  N   UNL     1       1.333   8.589  20.671  0.00  0.00    +0.000 NA
BRANCH  19  22
ATOM     22  C   UNL     1      -1.005  11.258  21.296  0.00  0.00    +0.000 A 
ATOM     23  C   UNL     1      -1.163  11.240  22.690  0.00  0.00    +0.000 A 
ATOM     24  C   UNL     1      -2.055  12.114  23.322  0.00  0.00    +0.000 A 
ATOM     25  C   UNL     1      -2.800  13.017  22.571  0.00  0.00    +0.000 A 
ATOM     26  C   UNL     1      -2.662  13.044  21.187  0.00  0.00    +0.000 A 
ATOM     27  C   UNL     1      -1.769  12.173  20.554  0.00  0.00    +0.000 A 
ENDBRANCH  19  22
ENDBRANCH   2  17
TORSDOF 4
ENDMDL
MODEL 8
REMARK VINA RESULT:      -8.0      2.825      6.863
REMARK  Name = 
REMARK  5 active torsions:
REMARK  status: ('A' for Active; 'I' for Inactive)
REMARK    1  A    between atoms: C_1  and  C_2
REMARK    2  A    between atoms: C_4  and  N_5
REMARK    3  A    between atoms: C_6  and  C_8
REMARK    4  A    between atoms: C_10  and  C_11
REMARK    5  A    between atoms: N_19  and  C_20
REMARK                            x       y       z     vdW  Elec       q    Type
REMARK                         _______ _______ _______ _____ _____    ______ ____
ROOT
ATOM      1  N   UNL     1       4.048   5.712  17.410  0.00  0.00    +0.000 N 
ATOM      2  C   UNL     1       3.848   5.049  18.660  0.00  0.00    +0.000 C 
ATOM      3  O   UNL     1       4.464   4.052  18.992  0.00  0.00    +0.000 OA
ATOM      4  H   UNL     1       3.603   6.621  17.286  0.00  0.00    +0.000 HD
ENDROOT
BRANCH   1   8
ATOM      5  C   UNL     1       6.126   3.705  13.360  0.00  0.00    +0.000 C 
ATOM      6  C   UNL     1       5.863   4.437  14.627  0.00  0.00    +0.000 A 
ATOM      7  C   UNL     1       4.698   4.401  15.426  0.00  0.00    +0.000 A 
ATOM      8  C   UNL     1       4.953   5.270  16.457  0.00  0.00    +0.000 A 
ATOM      9  N   UNL     1       6.262   5.706  16.296  0.00  0.00    +0.000 N 
ATOM     10  N   UNL     1       6.781   5.277  15.118  0.00  0.00    +0.000 NA
BRANCH   9  11
ATOM     11  C   UNL     1       7.032   6.471  17.213  0.00  0.00    +0.000 A 
ATOM     12  C   UNL     1       7.270   7.837  16.988  0.00  0.00    +0.000 A 
ATOM     13  C   UNL     1       8.069   8.564  17.870  0.00  0.00    +0.000 A 
ATOM     14  C   UNL     1       8.627   7.936  18.982  0.00  0.00    +0.000 A 
ATOM     15  C   UNL     1       8.359   6.592  19.231  0.00  0.00    +0.000 A 
ATOM     16  C   UNL     1       7.547   5.860  18.361  0.00  0.00    +0.000 A 
ENDBRANCH   9  11
ENDBRANCH   1   8
BRANCH   2  17
ATOM     17  C   UNL     1       2.923   5.833  19.464  0.00  0.00    +0.000 A 
ATOM     18  C   UNL     1       2.615   7.213  19.356  0.00  0.00    +0.000 A 
ATOM     19  C   UNL     1       1.670   7.445  20.331  0.00  0.00    +0.000 A 
ATOM     20  O   UNL     1       1.430   6.269  20.982  0.00  0.00    +0.000 OA
ATOM     21  N   UNL     1       2.195   5.257  20.438  0.00  0.00    +0.000 NA
BRANCH  19  22
ATOM     22  C   UNL     1       0.906   8.604  20.777  0.00  0.00    +0.000 A 
ATOM     23  C   UNL     1       0.425   8.682  22.093  0.00  0.00    +0.000 A 
ATOM     24  C   UNL     1      -0.296   9.799  22.528  0.00  0.00    +0.000 A 
ATOM     25  C   UNL     1      -0.546  10.854  21.657  0.00  0.00    +0.000 A 
ATOM     26  C   UNL     1      -0.083  10.792  20.346  0.00  0.00    +0.000 A 
ATOM     27  C   UNL     1       0.639   9.677  19.910  0.00  0.00    +0.000 A 
ENDBRANCH  19  22
ENDBRANCH   2  17
TORSDOF 4
ENDMDL
MODEL 9
REMARK VINA RESULT:      -8.0      4.202      7.234
REMARK  Name = 
REMARK  5 active torsions:
REMARK  status: ('A' for Active; 'I' for Inactive)
REMARK    1  A    between atoms: C_1  and  C_2
REMARK    2  A    between atoms: C_4  and  N_5
REMARK    3  A    between atoms: C_6  and  C_8
REMARK    4  A    between atoms: C_10  and  C_11
REMARK    5  A    between atoms: N_19  and  C_20
REMARK                            x       y       z     vdW  Elec       q    Type
REMARK                         _______ _______ _______ _____ _____    ______ ____
ROOT
ATOM      1  N   UNL     1       3.255   6.989  18.775  0.00  0.00    +0.000 N 
ATOM      2  C   UNL     1       2.814   7.978  17.843  0.00  0.00    +0.000 C 
ATOM      3  O   UNL     1       3.197   8.024  16.688  0.00  0.00    +0.000 OA
ATOM      4  H   UNL     1       2.765   6.936  19.668  0.00  0.00    +0.000 HD
ENDROOT
BRANCH   1   8
ATOM      5  C   UNL     1       7.389   4.541  17.488  0.00  0.00    +0.000 C 
ATOM      6  C   UNL     1       6.025   4.915  17.943  0.00  0.00    +0.000 A 
ATOM      7  C   UNL     1       5.404   6.183  17.874  0.00  0.00    +0.000 A 
ATOM      8  C   UNL     1       4.171   6.000  18.450  0.00  0.00    +0.000 A 
ATOM      9  N   UNL     1       4.065   4.646  18.743  0.00  0.00    +0.000 N 
ATOM     10  N   UNL     1       5.240   4.004  18.529  0.00  0.00    +0.000 NA
BRANCH   9  11
ATOM     11  C   UNL     1       2.906   3.950  19.179  0.00  0.00    +0.000 A 
ATOM     12  C   UNL     1       2.554   3.920  20.538  0.00  0.00    +0.000 A 
ATOM     13  C   UNL     1       1.442   3.191  20.959  0.00  0.00    +0.000 A 
ATOM     14  C   UNL     1       0.672   2.497  20.027  0.00  0.00    +0.000 A 
ATOM     15  C   UNL     1       0.994   2.558  18.673  0.00  0.00    +0.000 A 
ATOM     16  C   UNL     1       2.097   3.299  18.242  0.00  0.00    +0.000 A 
ENDBRANCH   9  11
ENDBRANCH   1   8
BRANCH   2  17
ATOM     17  C   UNL     1       1.775   8.782  18.468  0.00  0.00    +0.000 A 
ATOM     18  C   UNL     1       1.510   8.956  19.851  0.00  0.00    +0.000 A 
ATOM     19  C   UNL     1       0.444   9.827  19.903  0.00  0.00    +0.000 A 
ATOM     20  O   UNL     1       0.094  10.151  18.624  0.00  0.00    +0.000 OA
ATOM     21  N   UNL     1       0.928   9.517  17.725  0.00  0.00    +0.000 NA
BRANCH  19  22
ATOM     22  C   UNL     1      -0.331  10.451  20.968  0.00  0.00    +0.000 A 
ATOM     23  C   UNL     1      -1.091  11.604  20.720  0.00  0.00    +0.000 A 
ATOM     24  C   UNL     1      -1.848  12.197  21.736  0.00  0.00    +0.000 A 
ATOM     25  C   UNL     1      -1.858  11.647  23.014  0.00  0.00    +0.000 A 
ATOM     26  C   UNL     1      -1.106  10.507  23.281  0.00  0.00    +0.000 A 
ATOM     27  C   UNL     1      -0.350   9.913  22.266  0.00  0.00    +0.000 A 
ENDBRANCH  19  22
ENDBRANCH   2  17
TORSDOF 4
ENDMDL
