MODEL 1
REMARK VINA RESULT:      -7.0      0.000      0.000
REMARK  Name = 
REMARK  4 active torsions:
REMARK  status: ('A' for Active; 'I' for Inactive)
REMARK    1  A    between atoms: C_1  and  S_2
REMARK    2  A    between atoms: S_2  and  C_5
REMARK    3  A    between atoms: C_5  and  C_6
REMARK    4  A    between atoms: C_16  and  C_17
REMARK                            x       y       z     vdW  Elec       q    Type
REMARK                         _______ _______ _______ _____ _____    ______ ____
ROOT
ATOM      1  C   UNL     1       4.469   5.089  17.906  0.00  0.00    +0.000 A 
ATOM      2  N   UNL     1       4.049   6.301  17.458  0.00  0.00    +0.000 NA
ATOM      3  C   UNL     1       3.169   7.011  18.183  0.00  0.00    +0.000 A 
ATOM      4  C   UNL     1       2.695   8.226  17.706  0.00  0.00    +0.000 A 
ATOM      5  C   UNL     1       1.804   9.011  18.445  0.00  0.00    +0.000 A 
ATOM      6  C   UNL     1       1.378   8.586  19.697  0.00  0.00    +0.000 A 
ATOM      7  C   UNL     1       1.819   7.360  20.185  0.00  0.00    +0.000 A 
ATOM      8  C   UNL     1       2.695   6.555  19.424  0.00  0.00    +0.000 A 
ATOM      9  N   UNL     1       3.117   5.286  19.868  0.00  0.00    +0.000 N 
ATOM     10  O   UNL     1       2.695   4.838  20.992  0.00  0.00    +0.000 OA
ATOM     11  C   UNL     1       3.982   4.537  19.090  0.00  0.00    +0.000 A 
ENDROOT
BRANCH  11  12
ATOM     12  C   UNL     1       4.343   3.240  19.559  0.00  0.00    +0.000 C 
ATOM     13  N   UNL     1       4.678   2.223  20.008  0.00  0.00    +0.000 NA
ENDBRANCH  11  12
BRANCH   1  14
ATOM     14  C   UNL     1       5.511   4.421  17.051  0.00  0.00    +0.000 C 
BRANCH  14  16
ATOM     15  C   UNL     1       7.120   5.677  19.012  0.00  0.00    +0.000 C 
ATOM     16  S   UNL     1       7.086   5.211  17.297  0.00  0.00    +0.000 S 
ATOM     17  O   UNL     1       7.101   6.441  16.521  0.00  0.00    +0.000 OA
ATOM     18  O   UNL     1       8.113   4.201  17.105  0.00  0.00    +0.000 OA
ENDBRANCH  14  16
ENDBRANCH   1  14
TORSDOF 3
ENDMDL
MODEL 2
REMARK VINA RESULT:      -6.9      0.815      1.020
REMARK  Name = 
REMARK  4 active torsions:
REMARK  status: ('A' for Active; 'I' for Inactive)
REMARK    1  A    between atoms: C_1  and  S_2
REMARK    2  A    between atoms: S_2  and  C_5
REMARK    3  A    between atoms: C_5  and  C_6
REMARK    4  A    between atoms: C_16  and  C_17
REMARK                            x       y       z     vdW  Elec       q    Type
REMARK                         _______ _______ _______ _____ _____    ______ ____
ROOT
ATOM      1  C   UNL     1       4.481   5.199  18.003  0.00  0.00    +0.000 A 
ATOM      2  N   UNL     1       4.077   6.422  17.569  0.00  0.00    +0.000 NA
ATOM      3  C   UNL     1       3.157   7.107  18.268  0.00  0.00    +0.000 A 
ATOM      4  C   UNL     1       2.701   8.333  17.803  0.00  0.00    +0.000 A 
ATOM      5  C   UNL     1       1.769   9.093  18.517  0.00  0.00    +0.000 A 
ATOM      6  C   UNL     1       1.282   8.630  19.734  0.00  0.00    +0.000 A 
ATOM      7  C   UNL     1       1.706   7.392  20.209  0.00  0.00    +0.000 A 
ATOM      8  C   UNL     1       2.624   6.613  19.469  0.00  0.00    +0.000 A 
ATOM      9  N   UNL     1       3.030   5.334  19.898  0.00  0.00    +0.000 N 
ATOM     10  O   UNL     1       2.554   4.851  20.986  0.00  0.00    +0.000 OA
ATOM     11  C   UNL     1       3.938   4.611  19.144  0.00  0.00    +0.000 A 
ENDROOT
BRANCH  11  12
ATOM     12  C   UNL     1       4.282   3.303  19.594  0.00  0.00    +0.000 C 
ATOM     13  N   UNL     1       4.591   2.274  20.034  0.00  0.00    +0.000 NA
ENDBRANCH  11  12
BRANCH   1  14
ATOM     14  C   UNL     1       5.568   4.561  17.183  0.00  0.00    +0.000 C 
BRANCH  14  16
ATOM     15  C   UNL     1       7.464   6.664  17.159  0.00  0.00    +0.000 C 
ATOM     16  S   UNL     1       7.160   5.041  17.818  0.00  0.00    +0.000 S 
ATOM     17  O   UNL     1       8.161   4.155  17.246  0.00  0.00    +0.000 OA
ATOM     18  O   UNL     1       7.028   5.179  19.258  0.00  0.00    +0.000 OA
ENDBRANCH  14  16
ENDBRANCH   1  14
TORSDOF 3
ENDMDL
MODEL 3
REMARK VINA RESULT:      -6.7      2.325      3.344
REMARK  Name = 
REMARK  4 active torsions:
REMARK  status: ('A' for Active; 'I' for Inactive)
REMARK    1  A    between atoms: C_1  and  S_2
REMARK    2  A    between atoms: S_2  and  C_5
REMARK    3  A    between atoms: C_5  and  C_6
REMARK    4  A    between atoms: C_16  and  C_17
REMARK                            x       y       z     vdW  Elec       q    Type
REMARK                         _______ _______ _______ _____ _____    ______ ____
ROOT
ATOM      1  C   UNL     1       4.488   5.751  17.422  0.00  0.00    +0.000 A 
ATOM      2  N   UNL     1       3.678   6.150  18.438  0.00  0.00    +0.000 NA
ATOM      3  C   UNL     1       2.934   5.243  19.092  0.00  0.00    +0.000 A 
ATOM      4  C   UNL     1       2.065   5.650  20.096  0.00  0.00    +0.000 A 
ATOM      5  C   UNL     1       1.298   4.735  20.824  0.00  0.00    +0.000 A 
ATOM      6  C   UNL     1       1.402   3.375  20.557  0.00  0.00    +0.000 A 
ATOM      7  C   UNL     1       2.247   2.945  19.539  0.00  0.00    +0.000 A 
ATOM      8  C   UNL     1       2.998   3.875  18.786  0.00  0.00    +0.000 A 
ATOM      9  N   UNL     1       3.821   3.474  17.715  0.00  0.00    +0.000 N 
ATOM     10  O   UNL     1       3.895   2.232  17.404  0.00  0.00    +0.000 OA
ATOM     11  C   UNL     1       4.544   4.421  17.010  0.00  0.00    +0.000 A 
ENDROOT
BRANCH  11  12
ATOM     12  C   UNL     1       5.326   3.972  15.905  0.00  0.00    +0.000 C 
ATOM     13  N   UNL     1       5.948   3.684  14.968  0.00  0.00    +0.000 NA
ENDBRANCH  11  12
BRANCH   1  14
ATOM     14  C   UNL     1       5.329   6.840  16.815  0.00  0.00    +0.000 C 
BRANCH  14  16
ATOM     15  C   UNL     1       7.587   8.328  17.655  0.00  0.00    +0.000 C 
ATOM     16  S   UNL     1       7.015   6.671  17.360  0.00  0.00    +0.000 S 
ATOM     17  O   UNL     1       7.797   6.141  16.254  0.00  0.00    +0.000 OA
ATOM     18  O   UNL     1       6.990   5.989  18.643  0.00  0.00    +0.000 OA
ENDBRANCH  14  16
ENDBRANCH   1  14
TORSDOF 3
ENDMDL
MODEL 4
REMARK VINA RESULT:      -6.7      2.869      3.607
REMARK  Name = 
REMARK  4 active torsions:
REMARK  status: ('A' for Active; 'I' for Inactive)
REMARK    1  A    between atoms: C_1  and  S_2
REMARK    2  A    between atoms: S_2  and  C_5
REMARK    3  A    between atoms: C_5  and  C_6
REMARK    4  A    between atoms: C_16  and  C_17
REMARK                            x       y       z     vdW  Elec       q    Type
REMARK                         _______ _______ _______ _____ _____    ______ ____
ROOT
ATOM      1  C   UNL     1       5.292   4.512  18.124  0.00  0.00    +0.000 A 
ATOM      2  N   UNL     1       4.728   4.614  19.356  0.00  0.00    +0.000 NA
ATOM      3  C   UNL     1       3.445   4.258  19.532  0.00  0.00    +0.000 A 
ATOM      4  C   UNL     1       2.847   4.409  20.777  0.00  0.00    +0.000 A 
ATOM      5  C   UNL     1       1.524   4.020  21.012  0.00  0.00    +0.000 A 
ATOM      6  C   UNL     1       0.776   3.454  19.988  0.00  0.00    +0.000 A 
ATOM      7  C   UNL     1       1.345   3.314  18.726  0.00  0.00    +0.000 A 
ATOM      8  C   UNL     1       2.671   3.737  18.484  0.00  0.00    +0.000 A 
ATOM      9  N   UNL     1       3.257   3.657  17.205  0.00  0.00    +0.000 N 
ATOM     10  O   UNL     1       2.573   3.195  16.224  0.00  0.00    +0.000 OA
ATOM     11  C   UNL     1       4.562   4.077  17.018  0.00  0.00    +0.000 A 
ENDROOT
BRANCH  11  12
ATOM     12  C   UNL     1       5.096   4.021  15.697  0.00  0.00    +0.000 C 
ATOM     13  N   UNL     1       5.460   4.021  14.595  0.00  0.00    +0.000 NA
ENDBRANCH  11  12
BRANCH   1  14
ATOM     14  C   UNL     1       6.753   4.866  18.061  0.00  0.00    +0.000 C 
BRANCH  14  16
ATOM     15  C   UNL     1       8.063   7.354  18.398  0.00  0.00    +0.000 C 
ATOM     16  S   UNL     1       6.949   6.476  17.327  0.00  0.00    +0.000 S 
ATOM     17  O   UNL     1       5.667   7.161  17.392  0.00  0.00    +0.000 OA
ATOM     18  O   UNL     1       7.628   6.294  16.056  0.00  0.00    +0.000 OA
ENDBRANCH  14  16
ENDBRANCH   1  14
TORSDOF 3
ENDMDL
MODEL 5
REMARK VINA RESULT:      -6.7      3.332      5.043
REMARK  Name = 
REMARK  4 active torsions:
REMARK  status: ('A' for Active; 'I' for Inactive)
REMARK    1  A    between atoms: C_1  and  S_2
REMARK    2  A    between atoms: S_2  and  C_5
REMARK    3  A    between atoms: C_5  and  C_6
REMARK    4  A    between atoms: C_16  and  C_17
REMARK                            x       y       z     vdW  Elec       q    Type
REMARK                         _______ _______ _______ _____ _____    ______ ____
ROOT
ATOM      1  C   UNL     1       4.653   3.688  19.105  0.00  0.00    +0.000 A 
ATOM      2  N   UNL     1       5.766   4.236  19.659  0.00  0.00    +0.000 NA
ATOM      3  C   UNL     1       6.412   5.224  19.018  0.00  0.00    +0.000 A 
ATOM      4  C   UNL     1       7.580   5.752  19.554  0.00  0.00    +0.000 A 
ATOM      5  C   UNL     1       8.265   6.804  18.936  0.00  0.00    +0.000 A 
ATOM      6  C   UNL     1       7.773   7.356  17.759  0.00  0.00    +0.000 A 
ATOM      7  C   UNL     1       6.619   6.827  17.191  0.00  0.00    +0.000 A 
ATOM      8  C   UNL     1       5.946   5.745  17.801  0.00  0.00    +0.000 A 
ATOM      9  N   UNL     1       4.806   5.154  17.222  0.00  0.00    +0.000 N 
ATOM     10  O   UNL     1       4.360   5.601  16.106  0.00  0.00    +0.000 OA
ATOM     11  C   UNL     1       4.176   4.100  17.861  0.00  0.00    +0.000 A 
ENDROOT
BRANCH  11  12
ATOM     12  C   UNL     1       3.055   3.505  17.213  0.00  0.00    +0.000 C 
ATOM     13  N   UNL     1       2.194   2.957  16.659  0.00  0.00    +0.000 NA
ENDBRANCH  11  12
BRANCH   1  14
ATOM     14  C   UNL     1       3.971   2.644  19.946  0.00  0.00    +0.000 C 
BRANCH  14  16
ATOM     15  C   UNL     1       1.149   2.846  20.047  0.00  0.00    +0.000 C 
ATOM     16  S   UNL     1       2.635   3.387  20.857  0.00  0.00    +0.000 S 
ATOM     17  O   UNL     1       2.715   4.829  20.682  0.00  0.00    +0.000 OA
ATOM     18  O   UNL     1       2.638   2.802  22.187  0.00  0.00    +0.000 OA
ENDBRANCH  14  16
ENDBRANCH   1  14
TORSDOF 3
ENDMDL
MODEL 6
REMARK VINA RESULT:      -6.6      2.563      3.617
REMARK  Name = 
REMARK  4 active torsions:
REMARK  status: ('A' for Active; 'I' for Inactive)
REMARK    1  A    between atoms: C_1  and  S_2
REMARK    2  A    between atoms: S_2  and  C_5
REMARK    3  A    between atoms: C_5  and  C_6
REMARK    4  A    between atoms: C_16  and  C_17
REMARK                            x       y       z     vdW  Elec       q    Type
REMARK                         _______ _______ _______ _____ _____    ______ ____
ROOT
ATOM      1  C   UNL     1       4.626   5.578  17.881  0.00  0.00    +0.000 A 
ATOM      2  N   UNL     1       3.931   5.740  19.038  0.00  0.00    +0.000 NA
ATOM      3  C   UNL     1       2.890   4.934  19.308  0.00  0.00    +0.000 A 
ATOM      4  C   UNL     1       2.143   5.128  20.463  0.00  0.00    +0.000 A 
ATOM      5  C   UNL     1       1.073   4.292  20.797  0.00  0.00    +0.000 A 
ATOM      6  C   UNL     1       0.740   3.226  19.970  0.00  0.00    +0.000 A 
ATOM      7  C   UNL     1       1.458   3.027  18.795  0.00  0.00    +0.000 A 
ATOM      8  C   UNL     1       2.519   3.892  18.445  0.00  0.00    +0.000 A 
ATOM      9  N   UNL     1       3.229   3.748  17.236  0.00  0.00    +0.000 N 
ATOM     10  O   UNL     1       2.908   2.811  16.422  0.00  0.00    +0.000 OA
ATOM     11  C   UNL     1       4.266   4.615  16.939  0.00  0.00    +0.000 A 
ENDROOT
BRANCH  11  12
ATOM     12  C   UNL     1       4.924   4.459  15.684  0.00  0.00    +0.000 C 
ATOM     13  N   UNL     1       5.511   4.399  14.684  0.00  0.00    +0.000 NA
ENDBRANCH  11  12
BRANCH   1  14
ATOM     14  C   UNL     1       5.815   6.485  17.722  0.00  0.00    +0.000 C 
BRANCH  14  16
ATOM     15  C   UNL     1       7.831   4.498  17.638  0.00  0.00    +0.000 C 
ATOM     16  S   UNL     1       7.197   5.828  18.632  0.00  0.00    +0.000 S 
ATOM     17  O   UNL     1       6.689   5.237  19.860  0.00  0.00    +0.000 OA
ATOM     18  O   UNL     1       8.219   6.860  18.674  0.00  0.00    +0.000 OA
ENDBRANCH  14  16
ENDBRANCH   1  14
TORSDOF 3
ENDMDL
MODEL 7
REMARK VINA RESULT:      -6.5      2.676      3.834
REMARK  Name = 
REMARK  4 active torsions:
REMARK  status: ('A' for Active; 'I' for Inactive)
REMARK    1  A    between atoms: C_1  and  S_2
REMARK    2  A    between atoms: S_2  and  C_5
REMARK    3  A    between atoms: C_5  and  C_6
REMARK    4  A    between atoms: C_16  and  C_17
REMARK                            x       y       z     vdW  Elec       q    Type
REMARK                         _______ _______ _______ _____ _____    ______ ____
ROOT
ATOM      1  C   UNL     1       5.790   4.153  17.074  0.00  0.00    +0.000 A 
ATOM      2  N   UNL     1       4.705   3.364  16.857  0.00  0.00    +0.000 NA
ATOM      3  C   UNL     1       3.635   3.466  17.662  0.00  0.00    +0.000 A 
ATOM      4  C   UNL     1       2.544   2.626  17.478  0.00  0.00    +0.000 A 
ATOM      5  C   UNL     1       1.397   2.721  18.273  0.00  0.00    +0.000 A 
ATOM      6  C   UNL     1       1.324   3.683  19.272  0.00  0.00    +0.000 A 
ATOM      7  C   UNL     1       2.414   4.520  19.492  0.00  0.00    +0.000 A 
ATOM      8  C   UNL     1       3.583   4.401  18.708  0.00  0.00    +0.000 A 
ATOM      9  N   UNL     1       4.721   5.197  18.941  0.00  0.00    +0.000 N 
ATOM     10  O   UNL     1       4.709   6.054  19.894  0.00  0.00    +0.000 OA
ATOM     11  C   UNL     1       5.841   5.049  18.141  0.00  0.00    +0.000 A 
ENDROOT
BRANCH  11  12
ATOM     12  C   UNL     1       6.985   5.844  18.446  0.00  0.00    +0.000 C 
ATOM     13  N   UNL     1       7.874   6.559  18.659  0.00  0.00    +0.000 NA
ENDBRANCH  11  12
BRANCH   1  14
ATOM     14  C   UNL     1       6.896   4.006  16.066  0.00  0.00    +0.000 C 
BRANCH  14  16
ATOM     15  C   UNL     1       5.869   3.895  13.430  0.00  0.00    +0.000 C 
ATOM     16  S   UNL     1       6.544   5.010  14.639  0.00  0.00    +0.000 S 
ATOM     17  O   UNL     1       7.806   5.499  14.108  0.00  0.00    +0.000 OA
ATOM     18  O   UNL     1       5.487   5.935  15.008  0.00  0.00    +0.000 OA
ENDBRANCH  14  16
ENDBRANCH   1  14
TORSDOF 3
ENDMDL
MODEL 8
REMARK VINA RESULT:      -6.4      2.653      3.602
REMARK  Name = 
REMARK  4 active torsions:
REMARK  status: ('A' for Active; 'I' for Inactive)
REMARK    1  A    between atoms: C_1  and  S_2
REMARK    2  A    between atoms: S_2  and  C_5
REMARK    3  A    between atoms: C_5  and  C_6
REMARK    4  A    between atoms: C_16  and  C_17
REMARK                            x       y       z     vdW  Elec       q    Type
REMARK                         _______ _______ _______ _____ _____    ______ ____
ROOT
ATOM      1  C   UNL     1       5.407   4.423  18.086  0.00  0.00    +0.000 A 
ATOM      2  N   UNL     1       4.842   4.580  19.313  0.00  0.00    +0.000 NA
ATOM      3  C   UNL     1       3.541   4.294  19.488  0.00  0.00    +0.000 A 
ATOM      4  C   UNL     1       2.945   4.502  20.726  0.00  0.00    +0.000 A 
ATOM      5  C   UNL     1       1.603   4.188  20.960  0.00  0.00    +0.000 A 
ATOM      6  C   UNL     1       0.831   3.640  19.942  0.00  0.00    +0.000 A 
ATOM      7  C   UNL     1       1.399   3.446  18.687  0.00  0.00    +0.000 A 
ATOM      8  C   UNL     1       2.747   3.794  18.445  0.00  0.00    +0.000 A 
ATOM      9  N   UNL     1       3.334   3.658  17.172  0.00  0.00    +0.000 N 
ATOM     10  O   UNL     1       2.632   3.212  16.196  0.00  0.00    +0.000 OA
ATOM     11  C   UNL     1       4.661   4.005  16.985  0.00  0.00    +0.000 A 
ENDROOT
BRANCH  11  12
ATOM     12  C   UNL     1       5.197   3.895  15.669  0.00  0.00    +0.000 C 
ATOM     13  N   UNL     1       5.611   3.888  14.584  0.00  0.00    +0.000 NA
ENDBRANCH  11  12
BRANCH   1  14
ATOM     14  C   UNL     1       6.884   4.699  18.026  0.00  0.00    +0.000 C 
BRANCH  14  16
ATOM     15  C   UNL     1       5.555   7.119  17.400  0.00  0.00    +0.000 C 
ATOM     16  S   UNL     1       7.161   6.359  17.448  0.00  0.00    +0.000 S 
ATOM     17  O   UNL     1       7.638   6.286  16.076  0.00  0.00    +0.000 OA
ATOM     18  O   UNL     1       7.934   7.050  18.465  0.00  0.00    +0.000 OA
ENDBRANCH  14  16
ENDBRANCH   1  14
TORSDOF 3
ENDMDL
MODEL 9
REMARK VINA RESULT:      -6.4      2.201      3.233
REMARK  Name = 
REMARK  4 active torsions:
REMARK  status: ('A' for Active; 'I' for Inactive)
REMARK    1  A    between atoms: C_1  and  S_2
REMARK    2  A    between atoms: S_2  and  C_5
REMARK    3  A    between atoms: C_5  and  C_6
REMARK    4  A    between atoms: C_16  and  C_17
REMARK                            x       y       z     vdW  Elec       q    Type
REMARK                         _______ _______ _______ _____ _____    ______ ____
ROOT
ATOM      1  C   UNL     1       4.488   5.802  17.280  0.00  0.00    +0.000 A 
ATOM      2  N   UNL     1       3.705   6.242  18.300  0.00  0.00    +0.000 NA
ATOM      3  C   UNL     1       2.987   5.361  19.016  0.00  0.00    +0.000 A 
ATOM      4  C   UNL     1       2.145   5.808  20.025  0.00  0.00    +0.000 A 
ATOM      5  C   UNL     1       1.405   4.922  20.815  0.00  0.00    +0.000 A 
ATOM      6  C   UNL     1       1.511   3.552  20.607  0.00  0.00    +0.000 A 
ATOM      7  C   UNL     1       2.330   3.081  19.586  0.00  0.00    +0.000 A 
ATOM      8  C   UNL     1       3.052   3.980  18.769  0.00  0.00    +0.000 A 
ATOM      9  N   UNL     1       3.847   3.536  17.694  0.00  0.00    +0.000 N 
ATOM     10  O   UNL     1       3.920   2.282  17.437  0.00  0.00    +0.000 OA
ATOM     11  C   UNL     1       4.542   4.454  16.926  0.00  0.00    +0.000 A 
ENDROOT
BRANCH  11  12
ATOM     12  C   UNL     1       5.295   3.961  15.821  0.00  0.00    +0.000 C 
ATOM     13  N   UNL     1       5.966   3.623  14.936  0.00  0.00    +0.000 NA
ENDBRANCH  11  12
BRANCH   1  14
ATOM     14  C   UNL     1       5.304   6.867  16.599  0.00  0.00    +0.000 C 
BRANCH  14  16
ATOM     15  C   UNL     1       6.914   5.826  18.683  0.00  0.00    +0.000 C 
ATOM     16  S   UNL     1       6.972   6.833  17.219  0.00  0.00    +0.000 S 
ATOM     17  O   UNL     1       7.325   8.179  17.641  0.00  0.00    +0.000 OA
ATOM     18  O   UNL     1       7.783   6.126  16.243  0.00  0.00    +0.000 OA
ENDBRANCH  14  16
ENDBRANCH   1  14
TORSDOF 3
ENDMDL
