MODEL 1
REMARK VINA RESULT:      -9.9      0.000      0.000
REMARK  Name = 
REMARK  5 active torsions:
REMARK  status: ('A' for Active; 'I' for Inactive)
REMARK    1  A    between atoms: C_2  and  C_3
REMARK    2  A    between atoms: C_3  and  C_4
REMARK    3  A    between atoms: C_4  and  C_5
REMARK    4  A    between atoms: C_5  and  N_6
REMARK    5  A    between atoms: N_27  and  O_28
REMARK                            x       y       z     vdW  Elec       q    Type
REMARK                         _______ _______ _______ _____ _____    ______ ____
ROOT
ATOM      1  N   UNL     1       4.340   5.107  16.867  0.00  0.00    +0.000 N 
ATOM      2  C   UNL     1       3.555   5.594  17.898  0.00  0.00    +0.000 A 
ATOM      3  N   UNL     1       3.171   6.838  17.851  0.00  0.00    +0.000 NA
ATOM      4  N   UNL     1       2.391   7.382  18.841  0.00  0.00    +0.000 N 
ATOM      5  C   UNL     1       1.993   8.707  18.634  0.00  0.00    +0.000 A 
ATOM      6  O   UNL     1       2.266   9.398  17.655  0.00  0.00    +0.000 OA
ATOM      7  C   UNL     1       1.164   9.298  19.703  0.00  0.00    +0.000 A 
ATOM      8  C   UNL     1       0.704  10.618  19.610  0.00  0.00    +0.000 A 
ATOM      9  C   UNL     1      -0.053  11.151  20.651  0.00  0.00    +0.000 A 
ATOM     10 BR   UNL     1      -0.678  12.930  20.544  0.00  0.00    +0.000 Br
ATOM     11  C   UNL     1      -0.352  10.381  21.773  0.00  0.00    +0.000 A 
ATOM     12  C   UNL     1       0.106   9.061  21.850  0.00  0.00    +0.000 A 
ATOM     13  C   UNL     1       0.864   8.510  20.813  0.00  0.00    +0.000 A 
ATOM     14  N   UNL     1       1.287   7.185  20.934  0.00  0.00    +0.000 NA
ATOM     15  C   UNL     1       2.015   6.671  19.966  0.00  0.00    +0.000 A 
ATOM     16  C   UNL     1       2.462   5.271  20.072  0.00  0.00    +0.000 A 
ATOM     17  C   UNL     1       2.155   4.511  21.210  0.00  0.00    +0.000 A 
ATOM     18  C   UNL     1       2.606   3.196  21.315  0.00  0.00    +0.000 A 
ATOM     19  C   UNL     1       3.358   2.638  20.284  0.00  0.00    +0.000 A 
ATOM     20  C   UNL     1       3.662   3.394  19.151  0.00  0.00    +0.000 A 
ATOM     21  C   UNL     1       3.209   4.716  19.042  0.00  0.00    +0.000 A 
ATOM     22  H   UNL     1       4.625   4.135  16.862  0.00  0.00    +0.000 HD
ENDROOT
BRANCH   1  23
ATOM     23  C   UNL     1       5.238   5.980  16.122  0.00  0.00    +0.000 C 
BRANCH  23  24
ATOM     24  C   UNL     1       6.698   5.624  16.411  0.00  0.00    +0.000 C 
BRANCH  24  25
ATOM     25  C   UNL     1       7.245   6.337  17.648  0.00  0.00    +0.000 C 
BRANCH  25  27
ATOM     26  O   UNL     1       6.714   4.380  18.932  0.00  0.00    +0.000 OA
ATOM     27  C   UNL     1       7.321   5.443  18.883  0.00  0.00    +0.000 C 
ATOM     28  N   UNL     1       8.188   5.857  19.847  0.00  0.00    +0.000 N 
ATOM     29  H   UNL     1       8.700   6.721  19.765  0.00  0.00    +0.000 HD
BRANCH  28  30
ATOM     30  O   UNL     1       8.388   5.132  21.046  0.00  0.00    +0.000 OA
ATOM     31  H   UNL     1       8.078   5.719  21.766  0.00  0.00    +0.000 HD
ENDBRANCH  28  30
ENDBRANCH  25  27
ENDBRANCH  24  25
ENDBRANCH  23  24
ENDBRANCH   1  23
TORSDOF 5
ENDMDL
MODEL 2
REMARK VINA RESULT:      -9.2      2.608      4.733
REMARK  Name = 
REMARK  5 active torsions:
REMARK  status: ('A' for Active; 'I' for Inactive)
REMARK    1  A    between atoms: C_2  and  C_3
REMARK    2  A    between atoms: C_3  and  C_4
REMARK    3  A    between atoms: C_4  and  C_5
REMARK    4  A    between atoms: C_5  and  N_6
REMARK    5  A    between atoms: N_27  and  O_28
REMARK                            x       y       z     vdW  Elec       q    Type
REMARK                         _______ _______ _______ _____ _____    ______ ____
ROOT
ATOM      1  N   UNL     1       5.199   2.979  19.069  0.00  0.00    +0.000 N 
ATOM      2  C   UNL     1       4.761   4.219  18.636  0.00  0.00    +0.000 A 
ATOM      3  N   UNL     1       3.870   4.846  19.349  0.00  0.00    +0.000 NA
ATOM      4  N   UNL     1       3.394   6.079  18.975  0.00  0.00    +0.000 N 
ATOM      5  C   UNL     1       2.492   6.671  19.864  0.00  0.00    +0.000 A 
ATOM      6  O   UNL     1       2.113   6.195  20.932  0.00  0.00    +0.000 OA
ATOM      7  C   UNL     1       1.970   7.991  19.458  0.00  0.00    +0.000 A 
ATOM      8  C   UNL     1       1.059   8.684  20.266  0.00  0.00    +0.000 A 
ATOM      9  C   UNL     1       0.568   9.915  19.838  0.00  0.00    +0.000 A 
ATOM     10 BR   UNL     1      -0.664  10.861  20.913  0.00  0.00    +0.000 Br
ATOM     11  C   UNL     1       0.977  10.454  18.620  0.00  0.00    +0.000 A 
ATOM     12  C   UNL     1       1.894   9.756  17.826  0.00  0.00    +0.000 A 
ATOM     13  C   UNL     1       2.399   8.521  18.242  0.00  0.00    +0.000 A 
ATOM     14  N   UNL     1       3.320   7.871  17.419  0.00  0.00    +0.000 NA
ATOM     15  C   UNL     1       3.784   6.701  17.802  0.00  0.00    +0.000 A 
ATOM     16  C   UNL     1       4.763   6.004  16.951  0.00  0.00    +0.000 A 
ATOM     17  C   UNL     1       5.163   6.559  15.727  0.00  0.00    +0.000 A 
ATOM     18  C   UNL     1       6.069   5.880  14.913  0.00  0.00    +0.000 A 
ATOM     19  C   UNL     1       6.581   4.652  15.323  0.00  0.00    +0.000 A 
ATOM     20  C   UNL     1       6.185   4.101  16.543  0.00  0.00    +0.000 A 
ATOM     21  C   UNL     1       5.275   4.781  17.363  0.00  0.00    +0.000 A 
ATOM     22  H   UNL     1       5.916   2.486  18.552  0.00  0.00    +0.000 HD
ENDROOT
BRANCH   1  23
ATOM     23  C   UNL     1       4.336   2.103  19.850  0.00  0.00    +0.000 C 
BRANCH  23  24
ATOM     24  C   UNL     1       3.528   1.185  18.930  0.00  0.00    +0.000 C 
BRANCH  24  25
ATOM     25  C   UNL     1       2.582   1.958  18.010  0.00  0.00    +0.000 C 
BRANCH  25  27
ATOM     26  O   UNL     1       0.211   1.942  18.383  0.00  0.00    +0.000 OA
ATOM     27  C   UNL     1       1.297   2.411  18.700  0.00  0.00    +0.000 C 
ATOM     28  N   UNL     1       1.470   3.263  19.746  0.00  0.00    +0.000 N 
ATOM     29  H   UNL     1       2.381   3.608  20.007  0.00  0.00    +0.000 HD
BRANCH  28  30
ATOM     30  O   UNL     1       0.382   3.763  20.501  0.00  0.00    +0.000 OA
ATOM     31  H   UNL     1      -0.358   3.862  19.867  0.00  0.00    +0.000 HD
ENDBRANCH  28  30
ENDBRANCH  25  27
ENDBRANCH  24  25
ENDBRANCH  23  24
ENDBRANCH   1  23
TORSDOF 5
ENDMDL
MODEL 3
REMARK VINA RESULT:      -9.1      1.992      2.394
REMARK  Name = 
REMARK  5 active torsions:
REMARK  status: ('A' for Active; 'I' for Inactive)
REMARK    1  A    between atoms: C_2  and  C_3
REMARK    2  A    between atoms: C_3  and  C_4
REMARK    3  A    between atoms: C_4  and  C_5
REMARK    4  A    between atoms: C_5  and  N_6
REMARK    5  A    between atoms: N_27  and  O_28
REMARK                            x       y       z     vdW  Elec       q    Type
REMARK                         _______ _______ _______ _____ _____    ______ ____
ROOT
ATOM      1  N   UNL     1       4.184   5.493  16.961  0.00  0.00    +0.000 N 
ATOM      2  C   UNL     1       3.399   5.889  18.031  0.00  0.00    +0.000 A 
ATOM      3  N   UNL     1       3.000   7.127  18.084  0.00  0.00    +0.000 NA
ATOM      4  N   UNL     1       2.219   7.583  19.118  0.00  0.00    +0.000 N 
ATOM      5  C   UNL     1       1.805   8.915  19.017  0.00  0.00    +0.000 A 
ATOM      6  O   UNL     1       2.065   9.684  18.094  0.00  0.00    +0.000 OA
ATOM      7  C   UNL     1       0.976   9.410  20.133  0.00  0.00    +0.000 A 
ATOM      8  C   UNL     1       0.500  10.728  20.146  0.00  0.00    +0.000 A 
ATOM      9  C   UNL     1      -0.258  11.168  21.229  0.00  0.00    +0.000 A 
ATOM     10 BR   UNL     1      -0.904  12.943  21.264  0.00  0.00    +0.000 Br
ATOM     11  C   UNL     1      -0.542  10.309  22.288  0.00  0.00    +0.000 A 
ATOM     12  C   UNL     1      -0.068   8.992  22.259  0.00  0.00    +0.000 A 
ATOM     13  C   UNL     1       0.691   8.534  21.179  0.00  0.00    +0.000 A 
ATOM     14  N   UNL     1       1.129   7.209  21.193  0.00  0.00    +0.000 NA
ATOM     15  C   UNL     1       1.858   6.781  20.185  0.00  0.00    +0.000 A 
ATOM     16  C   UNL     1       2.322   5.383  20.178  0.00  0.00    +0.000 A 
ATOM     17  C   UNL     1       2.029   4.532  21.254  0.00  0.00    +0.000 A 
ATOM     18  C   UNL     1       2.496   3.218  21.253  0.00  0.00    +0.000 A 
ATOM     19  C   UNL     1       3.248   2.752  20.178  0.00  0.00    +0.000 A 
ATOM     20  C   UNL     1       3.537   3.598  19.106  0.00  0.00    +0.000 A 
ATOM     21  C   UNL     1       3.069   4.919  19.104  0.00  0.00    +0.000 A 
ATOM     22  H   UNL     1       4.480   4.528  16.879  0.00  0.00    +0.000 HD
ENDROOT
BRANCH   1  23
ATOM     23  C   UNL     1       5.068   6.433  16.284  0.00  0.00    +0.000 C 
BRANCH  23  24
ATOM     24  C   UNL     1       6.509   6.262  16.769  0.00  0.00    +0.000 C 
BRANCH  24  25
ATOM     25  C   UNL     1       7.120   4.927  16.342  0.00  0.00    +0.000 C 
BRANCH  25  27
ATOM     26  O   UNL     1       7.731   5.386  14.067  0.00  0.00    +0.000 OA
ATOM     27  C   UNL     1       7.077   4.692  14.834  0.00  0.00    +0.000 C 
ATOM     28  N   UNL     1       6.366   3.601  14.438  0.00  0.00    +0.000 N 
ATOM     29  H   UNL     1       5.863   3.026  15.095  0.00  0.00    +0.000 HD
BRANCH  28  30
ATOM     30  O   UNL     1       6.241   3.234  13.077  0.00  0.00    +0.000 OA
ATOM     31  H   UNL     1       6.615   2.330  13.010  0.00  0.00    +0.000 HD
ENDBRANCH  28  30
ENDBRANCH  25  27
ENDBRANCH  24  25
ENDBRANCH  23  24
ENDBRANCH   1  23
TORSDOF 5
ENDMDL
MODEL 4
REMARK VINA RESULT:      -9.0      2.390      2.777
REMARK  Name = 
REMARK  5 active torsions:
REMARK  status: ('A' for Active; 'I' for Inactive)
REMARK    1  A    between atoms: C_2  and  C_3
REMARK    2  A    between atoms: C_3  and  C_4
REMARK    3  A    between atoms: C_4  and  C_5
REMARK    4  A    between atoms: C_5  and  N_6
REMARK    5  A    between atoms: N_27  and  O_28
REMARK                            x       y       z     vdW  Elec       q    Type
REMARK                         _______ _______ _______ _____ _____    ______ ____
ROOT
ATOM      1  N   UNL     1       4.244   4.337  16.974  0.00  0.00    +0.000 N 
ATOM      2  C   UNL     1       3.520   5.010  17.943  0.00  0.00    +0.000 A 
ATOM      3  N   UNL     1       3.239   6.267  17.746  0.00  0.00    +0.000 NA
ATOM      4  N   UNL     1       2.525   6.992  18.668  0.00  0.00    +0.000 N 
ATOM      5  C   UNL     1       2.235   8.310  18.301  0.00  0.00    +0.000 A 
ATOM      6  O   UNL     1       2.547   8.852  17.243  0.00  0.00    +0.000 OA
ATOM      7  C   UNL     1       1.477   9.095  19.296  0.00  0.00    +0.000 A 
ATOM      8  C   UNL     1       1.126  10.428  19.044  0.00  0.00    +0.000 A 
ATOM      9  C   UNL     1       0.434  11.146  20.017  0.00  0.00    +0.000 A 
ATOM     10 BR   UNL     1      -0.043  12.946  19.696  0.00  0.00    +0.000 Br
ATOM     11  C   UNL     1       0.092  10.547  21.227  0.00  0.00    +0.000 A 
ATOM     12  C   UNL     1       0.440   9.212  21.462  0.00  0.00    +0.000 A 
ATOM     13  C   UNL     1       1.132   8.477  20.496  0.00  0.00    +0.000 A 
ATOM     14  N   UNL     1       1.445   7.146  20.776  0.00  0.00    +0.000 NA
ATOM     15  C   UNL     1       2.111   6.457  19.874  0.00  0.00    +0.000 A 
ATOM     16  C   UNL     1       2.442   5.049  20.148  0.00  0.00    +0.000 A 
ATOM     17  C   UNL     1       2.093   4.462  21.373  0.00  0.00    +0.000 A 
ATOM     18  C   UNL     1       2.435   3.136  21.636  0.00  0.00    +0.000 A 
ATOM     19  C   UNL     1       3.120   2.395  20.676  0.00  0.00    +0.000 A 
ATOM     20  C   UNL     1       3.466   2.978  19.456  0.00  0.00    +0.000 A 
ATOM     21  C   UNL     1       3.123   4.311  19.189  0.00  0.00    +0.000 A 
ATOM     22  H   UNL     1       4.447   3.351  17.087  0.00  0.00    +0.000 HD
ENDROOT
BRANCH   1  23
ATOM     23  C   UNL     1       5.198   5.034  16.122  0.00  0.00    +0.000 C 
BRANCH  23  24
ATOM     24  C   UNL     1       6.109   4.034  15.404  0.00  0.00    +0.000 C 
BRANCH  24  25
ATOM     25  C   UNL     1       5.909   4.039  13.888  0.00  0.00    +0.000 C 
BRANCH  25  27
ATOM     26  O   UNL     1       7.294   4.280  11.943  0.00  0.00    +0.000 OA
ATOM     27  C   UNL     1       7.112   4.577  13.117  0.00  0.00    +0.000 C 
ATOM     28  N   UNL     1       7.875   5.481  13.790  0.00  0.00    +0.000 N 
ATOM     29  H   UNL     1       7.683   5.732  14.746  0.00  0.00    +0.000 HD
BRANCH  28  30
ATOM     30  O   UNL     1       9.016   6.087  13.210  0.00  0.00    +0.000 OA
ATOM     31  H   UNL     1       8.794   6.220  12.265  0.00  0.00    +0.000 HD
ENDBRANCH  28  30
ENDBRANCH  25  27
ENDBRANCH  24  25
ENDBRANCH  23  24
ENDBRANCH   1  23
TORSDOF 5
ENDMDL
MODEL 5
REMARK VINA RESULT:      -8.7      1.319      1.427
REMARK  Name = 
REMARK  5 active torsions:
REMARK  status: ('A' for Active; 'I' for Inactive)
REMARK    1  A    between atoms: C_2  and  C_3
REMARK    2  A    between atoms: C_3  and  C_4
REMARK    3  A    between atoms: C_4  and  C_5
REMARK    4  A    between atoms: C_5  and  N_6
REMARK    5  A    between atoms: N_27  and  O_28
REMARK                            x       y       z     vdW  Elec       q    Type
REMARK                         _______ _______ _______ _____ _____    ______ ____
ROOT
ATOM      1  N   UNL     1       4.166   4.200  16.903  0.00  0.00    +0.000 N 
ATOM      2  C   UNL     1       3.476   4.882  17.890  0.00  0.00    +0.000 A 
ATOM      3  N   UNL     1       3.213   6.144  17.704  0.00  0.00    +0.000 NA
ATOM      4  N   UNL     1       2.533   6.878  18.644  0.00  0.00    +0.000 N 
ATOM      5  C   UNL     1       2.258   8.203  18.289  0.00  0.00    +0.000 A 
ATOM      6  O   UNL     1       2.555   8.742  17.226  0.00  0.00    +0.000 OA
ATOM      7  C   UNL     1       1.537   8.997  19.304  0.00  0.00    +0.000 A 
ATOM      8  C   UNL     1       1.204  10.337  19.065  0.00  0.00    +0.000 A 
ATOM      9  C   UNL     1       0.547  11.063  20.056  0.00  0.00    +0.000 A 
ATOM     10 BR   UNL     1       0.094  12.872  19.752  0.00  0.00    +0.000 Br
ATOM     11  C   UNL     1       0.222  10.465  21.271  0.00  0.00    +0.000 A 
ATOM     12  C   UNL     1       0.552   9.123  21.494  0.00  0.00    +0.000 A 
ATOM     13  C   UNL     1       1.208   8.380  20.510  0.00  0.00    +0.000 A 
ATOM     14  N   UNL     1       1.505   7.043  20.778  0.00  0.00    +0.000 NA
ATOM     15  C   UNL     1       2.137   6.346  19.858  0.00  0.00    +0.000 A 
ATOM     16  C   UNL     1       2.450   4.930  20.119  0.00  0.00    +0.000 A 
ATOM     17  C   UNL     1       2.118   4.345  21.350  0.00  0.00    +0.000 A 
ATOM     18  C   UNL     1       2.443   3.012  21.600  0.00  0.00    +0.000 A 
ATOM     19  C   UNL     1       3.092   2.263  20.623  0.00  0.00    +0.000 A 
ATOM     20  C   UNL     1       3.420   2.845  19.397  0.00  0.00    +0.000 A 
ATOM     21  C   UNL     1       3.095   4.185  19.142  0.00  0.00    +0.000 A 
ATOM     22  H   UNL     1       4.353   3.210  17.007  0.00  0.00    +0.000 HD
ENDROOT
BRANCH   1  23
ATOM     23  C   UNL     1       5.112   4.883  16.031  0.00  0.00    +0.000 C 
BRANCH  23  24
ATOM     24  C   UNL     1       6.550   4.509  16.399  0.00  0.00    +0.000 C 
BRANCH  24  25
ATOM     25  C   UNL     1       6.873   4.786  17.867  0.00  0.00    +0.000 C 
BRANCH  25  27
ATOM     26  O   UNL     1       8.188   6.373  19.096  0.00  0.00    +0.000 OA
ATOM     27  C   UNL     1       7.503   6.156  18.105  0.00  0.00    +0.000 C 
ATOM     28  N   UNL     1       7.342   7.052  17.092  0.00  0.00    +0.000 N 
ATOM     29  H   UNL     1       6.800   6.835  16.272  0.00  0.00    +0.000 HD
BRANCH  28  30
ATOM     30  O   UNL     1       7.880   8.360  17.148  0.00  0.00    +0.000 OA
ATOM     31  H   UNL     1       8.583   8.329  17.830  0.00  0.00    +0.000 HD
ENDBRANCH  28  30
ENDBRANCH  25  27
ENDBRANCH  24  25
ENDBRANCH  23  24
ENDBRANCH   1  23
TORSDOF 5
ENDMDL
MODEL 6
REMARK VINA RESULT:      -8.7      2.575      3.340
REMARK  Name = 
REMARK  5 active torsions:
REMARK  status: ('A' for Active; 'I' for Inactive)
REMARK    1  A    between atoms: C_2  and  C_3
REMARK    2  A    between atoms: C_3  and  C_4
REMARK    3  A    between atoms: C_4  and  C_5
REMARK    4  A    between atoms: C_5  and  N_6
REMARK    5  A    between atoms: N_27  and  O_28
REMARK                            x       y       z     vdW  Elec       q    Type
REMARK                         _______ _______ _______ _____ _____    ______ ____
ROOT
ATOM      1  N   UNL     1       4.488   4.442  16.842  0.00  0.00    +0.000 N 
ATOM      2  C   UNL     1       3.725   5.061  17.817  0.00  0.00    +0.000 A 
ATOM      3  N   UNL     1       3.396   6.310  17.649  0.00  0.00    +0.000 NA
ATOM      4  N   UNL     1       2.641   6.982  18.579  0.00  0.00    +0.000 N 
ATOM      5  C   UNL     1       2.303   8.296  18.242  0.00  0.00    +0.000 A 
ATOM      6  O   UNL     1       2.607   8.877  17.203  0.00  0.00    +0.000 OA
ATOM      7  C   UNL     1       1.502   9.024  19.246  0.00  0.00    +0.000 A 
ATOM      8  C   UNL     1       1.101  10.349  19.024  0.00  0.00    +0.000 A 
ATOM      9  C   UNL     1       0.368  11.012  20.005  0.00  0.00    +0.000 A 
ATOM     10 BR   UNL     1      -0.177  12.799  19.724  0.00  0.00    +0.000 Br
ATOM     11  C   UNL     1       0.035  10.369  21.195  0.00  0.00    +0.000 A 
ATOM     12  C   UNL     1       0.433   9.043  21.401  0.00  0.00    +0.000 A 
ATOM     13  C   UNL     1       1.167   8.362  20.425  0.00  0.00    +0.000 A 
ATOM     14  N   UNL     1       1.530   7.037  20.676  0.00  0.00    +0.000 NA
ATOM     15  C   UNL     1       2.234   6.400  19.765  0.00  0.00    +0.000 A 
ATOM     16  C   UNL     1       2.618   4.998  20.007  0.00  0.00    +0.000 A 
ATOM     17  C   UNL     1       2.277   4.366  21.212  0.00  0.00    +0.000 A 
ATOM     18  C   UNL     1       2.669   3.048  21.445  0.00  0.00    +0.000 A 
ATOM     19  C   UNL     1       3.395   2.361  20.477  0.00  0.00    +0.000 A 
ATOM     20  C   UNL     1       3.733   2.989  19.277  0.00  0.00    +0.000 A 
ATOM     21  C   UNL     1       3.340   4.314  19.039  0.00  0.00    +0.000 A 
ATOM     22  H   UNL     1       4.728   3.462  16.931  0.00  0.00    +0.000 HD
ENDROOT
BRANCH   1  23
ATOM     23  C   UNL     1       5.424   5.199  16.020  0.00  0.00    +0.000 C 
BRANCH  23  24
ATOM     24  C   UNL     1       6.169   4.270  15.059  0.00  0.00    +0.000 C 
BRANCH  24  25
ATOM     25  C   UNL     1       5.437   4.089  13.729  0.00  0.00    +0.000 C 
BRANCH  25  27
ATOM     26  O   UNL     1       7.272   4.257  12.190  0.00  0.00    +0.000 OA
ATOM     27  C   UNL     1       6.337   3.584  12.603  0.00  0.00    +0.000 C 
ATOM     28  N   UNL     1       6.091   2.309  12.193  0.00  0.00    +0.000 N 
ATOM     29  H   UNL     1       5.334   1.764  12.574  0.00  0.00    +0.000 HD
BRANCH  28  30
ATOM     30  O   UNL     1       6.846   1.686  11.171  0.00  0.00    +0.000 OA
ATOM     31  H   UNL     1       6.196   1.404  10.495  0.00  0.00    +0.000 HD
ENDBRANCH  28  30
ENDBRANCH  25  27
ENDBRANCH  24  25
ENDBRANCH  23  24
ENDBRANCH   1  23
TORSDOF 5
ENDMDL
MODEL 7
REMARK VINA RESULT:      -8.2      1.516      1.779
REMARK  Name = 
REMARK  5 active torsions:
REMARK  status: ('A' for Active; 'I' for Inactive)
REMARK    1  A    between atoms: C_2  and  C_3
REMARK    2  A    between atoms: C_3  and  C_4
REMARK    3  A    between atoms: C_4  and  C_5
REMARK    4  A    between atoms: C_5  and  N_6
REMARK    5  A    between atoms: N_27  and  O_28
REMARK                            x       y       z     vdW  Elec       q    Type
REMARK                         _______ _______ _______ _____ _____    ______ ____
ROOT
ATOM      1  N   UNL     1       3.781   6.106  17.074  0.00  0.00    +0.000 N 
ATOM      2  C   UNL     1       3.036   6.405  18.201  0.00  0.00    +0.000 A 
ATOM      3  N   UNL     1       2.618   7.629  18.362  0.00  0.00    +0.000 NA
ATOM      4  N   UNL     1       1.875   7.991  19.459  0.00  0.00    +0.000 N 
ATOM      5  C   UNL     1       1.434   9.318  19.474  0.00  0.00    +0.000 A 
ATOM      6  O   UNL     1       1.641  10.158  18.602  0.00  0.00    +0.000 OA
ATOM      7  C   UNL     1       0.645   9.713  20.658  0.00  0.00    +0.000 A 
ATOM      8  C   UNL     1       0.147  11.016  20.789  0.00  0.00    +0.000 A 
ATOM      9  C   UNL     1      -0.571  11.360  21.931  0.00  0.00    +0.000 A 
ATOM     10 BR   UNL     1      -1.245  13.114  22.126  0.00  0.00    +0.000 Br
ATOM     11  C   UNL     1      -0.794  10.420  22.935  0.00  0.00    +0.000 A 
ATOM     12  C   UNL     1      -0.300   9.119  22.788  0.00  0.00    +0.000 A 
ATOM     13  C   UNL     1       0.420   8.757  21.646  0.00  0.00    +0.000 A 
ATOM     14  N   UNL     1       0.881   7.443  21.544  0.00  0.00    +0.000 NA
ATOM     15  C   UNL     1       1.573   7.105  20.477  0.00  0.00    +0.000 A 
ATOM     16  C   UNL     1       2.060   5.721  20.347  0.00  0.00    +0.000 A 
ATOM     17  C   UNL     1       1.829   4.788  21.368  0.00  0.00    +0.000 A 
ATOM     18  C   UNL     1       2.317   3.487  21.250  0.00  0.00    +0.000 A 
ATOM     19  C   UNL     1       3.031   3.117  20.114  0.00  0.00    +0.000 A 
ATOM     20  C   UNL     1       3.259   4.045  19.096  0.00  0.00    +0.000 A 
ATOM     21  C   UNL     1       2.769   5.353  19.212  0.00  0.00    +0.000 A 
ATOM     22  H   UNL     1       4.089   5.156  16.907  0.00  0.00    +0.000 HD
ENDROOT
BRANCH   1  23
ATOM     23  C   UNL     1       4.619   7.111  16.432  0.00  0.00    +0.000 C 
BRANCH  23  24
ATOM     24  C   UNL     1       5.356   6.510  15.233  0.00  0.00    +0.000 C 
BRANCH  24  25
ATOM     25  C   UNL     1       5.562   5.001  15.363  0.00  0.00    +0.000 C 
BRANCH  25  27
ATOM     26  O   UNL     1       7.922   4.686  15.063  0.00  0.00    +0.000 OA
ATOM     27  C   UNL     1       6.965   4.615  15.823  0.00  0.00    +0.000 C 
ATOM     28  N   UNL     1       7.078   4.309  17.145  0.00  0.00    +0.000 N 
ATOM     29  H   UNL     1       6.278   4.290  17.757  0.00  0.00    +0.000 HD
BRANCH  28  30
ATOM     30  O   UNL     1       8.314   3.947  17.734  0.00  0.00    +0.000 OA
ATOM     31  H   UNL     1       8.630   4.748  18.200  0.00  0.00    +0.000 HD
ENDBRANCH  28  30
ENDBRANCH  25  27
ENDBRANCH  24  25
ENDBRANCH  23  24
ENDBRANCH   1  23
TORSDOF 5
ENDMDL
MODEL 8
REMARK VINA RESULT:      -8.1      2.591      4.407
REMARK  Name = 
REMARK  5 active torsions:
REMARK  status: ('A' for Active; 'I' for Inactive)
REMARK    1  A    between atoms: C_2  and  C_3
REMARK    2  A    between atoms: C_3  and  C_4
REMARK    3  A    between atoms: C_4  and  C_5
REMARK    4  A    between atoms: C_5  and  N_6
REMARK    5  A    between atoms: N_27  and  O_28
REMARK                            x       y       z     vdW  Elec       q    Type
REMARK                         _______ _______ _______ _____ _____    ______ ____
ROOT
ATOM      1  N   UNL     1       2.894   4.419  20.638  0.00  0.00    +0.000 N 
ATOM      2  C   UNL     1       2.742   5.649  20.021  0.00  0.00    +0.000 A 
ATOM      3  N   UNL     1       1.890   6.495  20.525  0.00  0.00    +0.000 NA
ATOM      4  N   UNL     1       1.692   7.731  19.961  0.00  0.00    +0.000 N 
ATOM      5  C   UNL     1       0.801   8.567  20.641  0.00  0.00    +0.000 A 
ATOM      6  O   UNL     1       0.208   8.295  21.682  0.00  0.00    +0.000 OA
ATOM      7  C   UNL     1       0.578   9.892  20.029  0.00  0.00    +0.000 A 
ATOM      8  C   UNL     1      -0.294  10.818  20.617  0.00  0.00    +0.000 A 
ATOM      9  C   UNL     1      -0.501  12.048  19.998  0.00  0.00    +0.000 A 
ATOM     10 BR   UNL     1      -1.676  13.307  20.775  0.00  0.00    +0.000 Br
ATOM     11  C   UNL     1       0.152  12.358  18.807  0.00  0.00    +0.000 A 
ATOM     12  C   UNL     1       1.027  11.427  18.234  0.00  0.00    +0.000 A 
ATOM     13  C   UNL     1       1.248  10.190  18.844  0.00  0.00    +0.000 A 
ATOM     14  N   UNL     1       2.138   9.303  18.238  0.00  0.00    +0.000 NA
ATOM     15  C   UNL     1       2.335   8.131  18.803  0.00  0.00    +0.000 A 
ATOM     16  C   UNL     1       3.279   7.185  18.183  0.00  0.00    +0.000 A 
ATOM     17  C   UNL     1       3.926   7.511  16.982  0.00  0.00    +0.000 A 
ATOM     18  C   UNL     1       4.796   6.599  16.386  0.00  0.00    +0.000 A 
ATOM     19  C   UNL     1       5.025   5.366  16.990  0.00  0.00    +0.000 A 
ATOM     20  C   UNL     1       4.383   5.042  18.187  0.00  0.00    +0.000 A 
ATOM     21  C   UNL     1       3.508   5.957  18.788  0.00  0.00    +0.000 A 
ATOM     22  H   UNL     1       3.574   3.755  20.286  0.00  0.00    +0.000 HD
ENDROOT
BRANCH   1  23
ATOM     23  C   UNL     1       1.796   3.796  21.365  0.00  0.00    +0.000 C 
BRANCH  23  24
ATOM     24  C   UNL     1       1.366   2.496  20.681  0.00  0.00    +0.000 C 
BRANCH  24  25
ATOM     25  C   UNL     1       0.974   2.701  19.218  0.00  0.00    +0.000 C 
BRANCH  25  27
ATOM     26  O   UNL     1       2.124   2.732  17.112  0.00  0.00    +0.000 OA
ATOM     27  C   UNL     1       2.043   2.240  18.230  0.00  0.00    +0.000 C 
ATOM     28  N   UNL     1       2.945   1.350  18.726  0.00  0.00    +0.000 N 
ATOM     29  H   UNL     1       2.874   0.986  19.663  0.00  0.00    +0.000 HD
BRANCH  28  30
ATOM     30  O   UNL     1       4.009   0.837  17.945  0.00  0.00    +0.000 OA
ATOM     31  H   UNL     1       4.809   1.322  18.236  0.00  0.00    +0.000 HD
ENDBRANCH  28  30
ENDBRANCH  25  27
ENDBRANCH  24  25
ENDBRANCH  23  24
ENDBRANCH   1  23
TORSDOF 5
ENDMDL
MODEL 9
REMARK VINA RESULT:      -8.1      3.622      7.364
REMARK  Name = 
REMARK  5 active torsions:
REMARK  status: ('A' for Active; 'I' for Inactive)
REMARK    1  A    between atoms: C_2  and  C_3
REMARK    2  A    between atoms: C_3  and  C_4
REMARK    3  A    between atoms: C_4  and  C_5
REMARK    4  A    between atoms: C_5  and  N_6
REMARK    5  A    between atoms: N_27  and  O_28
REMARK                            x       y       z     vdW  Elec       q    Type
REMARK                         _______ _______ _______ _____ _____    ______ ____
ROOT
ATOM      1  N   UNL     1       1.927   7.192  20.487  0.00  0.00    +0.000 N 
ATOM      2  C   UNL     1       2.473   6.271  19.610  0.00  0.00    +0.000 A 
ATOM      3  N   UNL     1       3.311   6.695  18.707  0.00  0.00    +0.000 NA
ATOM      4  N   UNL     1       3.887   5.832  17.806  0.00  0.00    +0.000 N 
ATOM      5  C   UNL     1       4.819   6.407  16.936  0.00  0.00    +0.000 A 
ATOM      6  O   UNL     1       5.164   7.586  16.923  0.00  0.00    +0.000 OA
ATOM      7  C   UNL     1       5.431   5.484  15.960  0.00  0.00    +0.000 A 
ATOM      8  C   UNL     1       6.379   5.941  15.034  0.00  0.00    +0.000 A 
ATOM      9  C   UNL     1       6.916   5.048  14.110  0.00  0.00    +0.000 A 
ATOM     10 BR   UNL     1       8.191   5.648  12.853  0.00  0.00    +0.000 Br
ATOM     11  C   UNL     1       6.517   3.713  14.105  0.00  0.00    +0.000 A 
ATOM     12  C   UNL     1       5.576   3.267  15.041  0.00  0.00    +0.000 A 
ATOM     13  C   UNL     1       5.030   4.149  15.976  0.00  0.00    +0.000 A 
ATOM     14  N   UNL     1       4.104   3.651  16.894  0.00  0.00    +0.000 NA
ATOM     15  C   UNL     1       3.577   4.485  17.765  0.00  0.00    +0.000 A 
ATOM     16  C   UNL     1       2.605   3.976  18.748  0.00  0.00    +0.000 A 
ATOM     17  C   UNL     1       2.213   2.630  18.727  0.00  0.00    +0.000 A 
ATOM     18  C   UNL     1       1.271   2.161  19.643  0.00  0.00    +0.000 A 
ATOM     19  C   UNL     1       0.726   3.033  20.581  0.00  0.00    +0.000 A 
ATOM     20  C   UNL     1       1.119   4.373  20.603  0.00  0.00    +0.000 A 
ATOM     21  C   UNL     1       2.065   4.846  19.684  0.00  0.00    +0.000 A 
ATOM     22  H   UNL     1       1.299   6.884  21.220  0.00  0.00    +0.000 HD
ENDROOT
BRANCH   1  23
ATOM     23  C   UNL     1       1.731   8.582  20.099  0.00  0.00    +0.000 C 
BRANCH  23  24
ATOM     24  C   UNL     1       0.302   9.032  20.412  0.00  0.00    +0.000 C 
BRANCH  24  25
ATOM     25  C   UNL     1      -0.151   8.621  21.813  0.00  0.00    +0.000 C 
BRANCH  25  27
ATOM     26  O   UNL     1       0.327   9.631  23.937  0.00  0.00    +0.000 OA
ATOM     27  C   UNL     1      -0.147   9.772  22.817  0.00  0.00    +0.000 C 
ATOM     28  N   UNL     1      -0.592  10.964  22.334  0.00  0.00    +0.000 N 
ATOM     29  H   UNL     1      -0.946  11.059  21.395  0.00  0.00    +0.000 HD
BRANCH  28  30
ATOM     30  O   UNL     1      -0.635  12.133  23.131  0.00  0.00    +0.000 OA
ATOM     31  H   UNL     1       0.222  12.165  23.603  0.00  0.00    +0.000 HD
ENDBRANCH  28  30
ENDBRANCH  25  27
ENDBRANCH  24  25
ENDBRANCH  23  24
ENDBRANCH   1  23
TORSDOF 5
ENDMDL
