MODEL 1
REMARK VINA RESULT:      -6.8      0.000      0.000
REMARK  Name = 
REMARK  1 active torsions:
REMARK  status: ('A' for Active; 'I' for Inactive)
REMARK    1  A    between atoms: C_14  and  S_15
REMARK                            x       y       z     vdW  Elec       q    Type
REMARK                         _______ _______ _______ _____ _____    ______ ____
ROOT
ATOM      1  O   UNL     1       4.157   1.844  19.918  0.00  0.00    +0.000 OA
ATOM      2  C   UNL     1       4.242   2.926  19.380  0.00  0.00    +0.000 C 
ATOM      3  O   UNL     1       5.129   3.244  18.387  0.00  0.00    +0.000 OA
ATOM      4  C   UNL     1       5.007   4.615  17.934  0.00  0.00    +0.000 C 
ATOM      5  C   UNL     1       4.652   4.599  16.439  0.00  0.00    +0.000 C 
ATOM      6  C   UNL     1       5.800   4.059  15.583  0.00  0.00    +0.000 C 
ATOM      7  C   UNL     1       7.093   4.827  15.842  0.00  0.00    +0.000 C 
ATOM      8  C   UNL     1       7.469   4.778  17.319  0.00  0.00    +0.000 C 
ATOM      9  C   UNL     1       6.342   5.329  18.198  0.00  0.00    +0.000 C 
ATOM     10  C   UNL     1       3.899   5.129  18.785  0.00  0.00    +0.000 A 
ATOM     11  C   UNL     1       3.306   6.378  18.828  0.00  0.00    +0.000 A 
ATOM     12  C   UNL     1       2.278   6.549  19.743  0.00  0.00    +0.000 A 
ATOM     13  N   UNL     1       1.835   5.575  20.580  0.00  0.00    +0.000 NA
ATOM     14  C   UNL     1       2.433   4.357  20.519  0.00  0.00    +0.000 A 
ATOM     15  C   UNL     1       3.459   4.124  19.629  0.00  0.00    +0.000 A 
ENDROOT
BRANCH  14  16
ATOM     16  S   UNL     1       1.783   3.159  21.645  0.00  0.00    +0.000 S 
ATOM     17  H   UNL     1       0.774   3.938  22.057  0.00  0.00    +0.000 HD
ENDBRANCH  14  16
TORSDOF 1
ENDMDL
MODEL 2
REMARK VINA RESULT:      -6.8      2.872      4.694
REMARK  Name = 
REMARK  1 active torsions:
REMARK  status: ('A' for Active; 'I' for Inactive)
REMARK    1  A    between atoms: C_14  and  S_15
REMARK                            x       y       z     vdW  Elec       q    Type
REMARK                         _______ _______ _______ _____ _____    ______ ____
ROOT
ATOM      1  O   UNL     1       6.288   4.012  18.770  0.00  0.00    +0.000 OA
ATOM      2  C   UNL     1       5.144   4.399  18.862  0.00  0.00    +0.000 C 
ATOM      3  O   UNL     1       4.138   3.736  19.510  0.00  0.00    +0.000 OA
ATOM      4  C   UNL     1       2.868   4.433  19.454  0.00  0.00    +0.000 C 
ATOM      5  C   UNL     1       2.429   4.750  20.892  0.00  0.00    +0.000 C 
ATOM      6  C   UNL     1       2.086   3.482  21.678  0.00  0.00    +0.000 C 
ATOM      7  C   UNL     1       1.043   2.642  20.947  0.00  0.00    +0.000 C 
ATOM      8  C   UNL     1       1.521   2.279  19.545  0.00  0.00    +0.000 C 
ATOM      9  C   UNL     1       1.856   3.531  18.730  0.00  0.00    +0.000 C 
ATOM     10  C   UNL     1       3.216   5.653  18.675  0.00  0.00    +0.000 A 
ATOM     11  C   UNL     1       2.430   6.724  18.287  0.00  0.00    +0.000 A 
ATOM     12  C   UNL     1       3.055   7.724  17.558  0.00  0.00    +0.000 A 
ATOM     13  N   UNL     1       4.369   7.706  17.214  0.00  0.00    +0.000 NA
ATOM     14  C   UNL     1       5.121   6.645  17.607  0.00  0.00    +0.000 A 
ATOM     15  C   UNL     1       4.557   5.619  18.334  0.00  0.00    +0.000 A 
ENDROOT
BRANCH  14  16
ATOM     16  S   UNL     1       6.816   6.718  17.112  0.00  0.00    +0.000 S 
ATOM     17  H   UNL     1       7.256   5.976  18.137  0.00  0.00    +0.000 HD
ENDBRANCH  14  16
TORSDOF 1
ENDMDL
MODEL 3
REMARK VINA RESULT:      -6.6      3.161      4.838
REMARK  Name = 
REMARK  1 active torsions:
REMARK  status: ('A' for Active; 'I' for Inactive)
REMARK    1  A    between atoms: C_14  and  S_15
REMARK                            x       y       z     vdW  Elec       q    Type
REMARK                         _______ _______ _______ _____ _____    ______ ____
ROOT
ATOM      1  O   UNL     1       5.818   5.615  19.974  0.00  0.00    +0.000 OA
ATOM      2  C   UNL     1       5.237   5.114  19.036  0.00  0.00    +0.000 C 
ATOM      3  O   UNL     1       4.145   4.295  19.133  0.00  0.00    +0.000 OA
ATOM      4  C   UNL     1       3.660   3.839  17.845  0.00  0.00    +0.000 C 
ATOM      5  C   UNL     1       2.213   4.327  17.675  0.00  0.00    +0.000 C 
ATOM      6  C   UNL     1       1.259   3.645  18.658  0.00  0.00    +0.000 C 
ATOM      7  C   UNL     1       1.353   2.125  18.557  0.00  0.00    +0.000 C 
ATOM      8  C   UNL     1       2.782   1.650  18.794  0.00  0.00    +0.000 C 
ATOM      9  C   UNL     1       3.756   2.306  17.811  0.00  0.00    +0.000 C 
ATOM     10  C   UNL     1       4.606   4.498  16.904  0.00  0.00    +0.000 A 
ATOM     11  C   UNL     1       4.669   4.461  15.522  0.00  0.00    +0.000 A 
ATOM     12  C   UNL     1       5.681   5.195  14.924  0.00  0.00    +0.000 A 
ATOM     13  N   UNL     1       6.594   5.932  15.609  0.00  0.00    +0.000 NA
ATOM     14  C   UNL     1       6.512   5.954  16.965  0.00  0.00    +0.000 A 
ATOM     15  C   UNL     1       5.526   5.245  17.619  0.00  0.00    +0.000 A 
ENDROOT
BRANCH  14  16
ATOM     16  S   UNL     1       7.741   6.942  17.763  0.00  0.00    +0.000 S 
ATOM     17  H   UNL     1       8.678   6.716  16.832  0.00  0.00    +0.000 HD
ENDBRANCH  14  16
TORSDOF 1
ENDMDL
MODEL 4
REMARK VINA RESULT:      -6.6      1.684      1.741
REMARK  Name = 
REMARK  1 active torsions:
REMARK  status: ('A' for Active; 'I' for Inactive)
REMARK    1  A    between atoms: C_14  and  S_15
REMARK                            x       y       z     vdW  Elec       q    Type
REMARK                         _______ _______ _______ _____ _____    ______ ____
ROOT
ATOM      1  O   UNL     1       3.711   2.149  17.453  0.00  0.00    +0.000 OA
ATOM      2  C   UNL     1       3.880   3.251  17.927  0.00  0.00    +0.000 C 
ATOM      3  O   UNL     1       4.960   4.056  17.684  0.00  0.00    +0.000 OA
ATOM      4  C   UNL     1       4.897   5.320  18.390  0.00  0.00    +0.000 C 
ATOM      5  C   UNL     1       4.898   6.453  17.351  0.00  0.00    +0.000 C 
ATOM      6  C   UNL     1       6.232   6.545  16.607  0.00  0.00    +0.000 C 
ATOM      7  C   UNL     1       7.401   6.676  17.579  0.00  0.00    +0.000 C 
ATOM      8  C   UNL     1       7.426   5.510  18.562  0.00  0.00    +0.000 C 
ATOM      9  C   UNL     1       6.108   5.405  19.333  0.00  0.00    +0.000 C 
ATOM     10  C   UNL     1       3.604   5.207  19.119  0.00  0.00    +0.000 A 
ATOM     11  C   UNL     1       2.972   6.098  19.969  0.00  0.00    +0.000 A 
ATOM     12  C   UNL     1       1.755   5.698  20.498  0.00  0.00    +0.000 A 
ATOM     13  N   UNL     1       1.165   4.503  20.233  0.00  0.00    +0.000 NA
ATOM     14  C   UNL     1       1.804   3.645  19.396  0.00  0.00    +0.000 A 
ATOM     15  C   UNL     1       3.017   3.986  18.836  0.00  0.00    +0.000 A 
ENDROOT
BRANCH  14  16
ATOM     16  S   UNL     1       0.956   2.121  19.113  0.00  0.00    +0.000 S 
ATOM     17  H   UNL     1      -0.240   2.595  19.488  0.00  0.00    +0.000 HD
ENDBRANCH  14  16
TORSDOF 1
ENDMDL
MODEL 5
REMARK VINA RESULT:      -6.4      2.996      5.004
REMARK  Name = 
REMARK  1 active torsions:
REMARK  status: ('A' for Active; 'I' for Inactive)
REMARK    1  A    between atoms: C_14  and  S_15
REMARK                            x       y       z     vdW  Elec       q    Type
REMARK                         _______ _______ _______ _____ _____    ______ ____
ROOT
ATOM      1  O   UNL     1       3.875   3.702  15.802  0.00  0.00    +0.000 OA
ATOM      2  C   UNL     1       4.203   4.013  16.926  0.00  0.00    +0.000 C 
ATOM      3  O   UNL     1       3.423   3.869  18.041  0.00  0.00    +0.000 OA
ATOM      4  C   UNL     1       4.073   4.329  19.253  0.00  0.00    +0.000 C 
ATOM      5  C   UNL     1       4.185   3.141  20.221  0.00  0.00    +0.000 C 
ATOM      6  C   UNL     1       2.814   2.683  20.724  0.00  0.00    +0.000 C 
ATOM      7  C   UNL     1       2.036   3.839  21.345  0.00  0.00    +0.000 C 
ATOM      8  C   UNL     1       1.875   4.983  20.350  0.00  0.00    +0.000 C 
ATOM      9  C   UNL     1       3.234   5.474  19.843  0.00  0.00    +0.000 C 
ATOM     10  C   UNL     1       5.395   4.786  18.744  0.00  0.00    +0.000 A 
ATOM     11  C   UNL     1       6.477   5.328  19.416  0.00  0.00    +0.000 A 
ATOM     12  C   UNL     1       7.585   5.655  18.651  0.00  0.00    +0.000 A 
ATOM     13  N   UNL     1       7.663   5.474  17.307  0.00  0.00    +0.000 NA
ATOM     14  C   UNL     1       6.590   4.939  16.669  0.00  0.00    +0.000 A 
ATOM     15  C   UNL     1       5.457   4.592  17.375  0.00  0.00    +0.000 A 
ENDROOT
BRANCH  14  16
ATOM     16  S   UNL     1       6.790   4.742  14.925  0.00  0.00    +0.000 S 
ATOM     17  H   UNL     1       7.987   4.148  15.023  0.00  0.00    +0.000 HD
ENDBRANCH  14  16
TORSDOF 1
ENDMDL
MODEL 6
REMARK VINA RESULT:      -6.2      2.145      3.028
REMARK  Name = 
REMARK  1 active torsions:
REMARK  status: ('A' for Active; 'I' for Inactive)
REMARK    1  A    between atoms: C_14  and  S_15
REMARK                            x       y       z     vdW  Elec       q    Type
REMARK                         _______ _______ _______ _____ _____    ______ ____
ROOT
ATOM      1  O   UNL     1       2.489   6.037  20.466  0.00  0.00    +0.000 OA
ATOM      2  C   UNL     1       3.214   5.474  19.675  0.00  0.00    +0.000 C 
ATOM      3  O   UNL     1       4.338   6.015  19.114  0.00  0.00    +0.000 OA
ATOM      4  C   UNL     1       5.008   5.113  18.198  0.00  0.00    +0.000 C 
ATOM      5  C   UNL     1       6.429   4.858  18.725  0.00  0.00    +0.000 C 
ATOM      6  C   UNL     1       7.298   6.116  18.658  0.00  0.00    +0.000 C 
ATOM      7  C   UNL     1       7.320   6.700  17.249  0.00  0.00    +0.000 C 
ATOM      8  C   UNL     1       5.907   7.010  16.765  0.00  0.00    +0.000 C 
ATOM      9  C   UNL     1       5.020   5.763  16.805  0.00  0.00    +0.000 C 
ATOM     10  C   UNL     1       4.143   3.903  18.263  0.00  0.00    +0.000 A 
ATOM     11  C   UNL     1       4.254   2.685  17.616  0.00  0.00    +0.000 A 
ATOM     12  C   UNL     1       3.275   1.742  17.891  0.00  0.00    +0.000 A 
ATOM     13  N   UNL     1       2.237   1.948  18.743  0.00  0.00    +0.000 NA
ATOM     14  C   UNL     1       2.150   3.151  19.367  0.00  0.00    +0.000 A 
ATOM     15  C   UNL     1       3.093   4.130  19.136  0.00  0.00    +0.000 A 
ENDROOT
BRANCH  14  16
ATOM     16  S   UNL     1       0.769   3.319  20.456  0.00  0.00    +0.000 S 
ATOM     17  H   UNL     1       0.073   4.105  19.624  0.00  0.00    +0.000 HD
ENDBRANCH  14  16
TORSDOF 1
ENDMDL
MODEL 7
REMARK VINA RESULT:      -6.2      1.895      2.883
REMARK  Name = 
REMARK  1 active torsions:
REMARK  status: ('A' for Active; 'I' for Inactive)
REMARK    1  A    between atoms: C_14  and  S_15
REMARK                            x       y       z     vdW  Elec       q    Type
REMARK                         _______ _______ _______ _____ _____    ______ ____
ROOT
ATOM      1  O   UNL     1       2.883   7.384  18.317  0.00  0.00    +0.000 OA
ATOM      2  C   UNL     1       3.502   6.348  18.215  0.00  0.00    +0.000 C 
ATOM      3  O   UNL     1       4.468   6.097  17.280  0.00  0.00    +0.000 OA
ATOM      4  C   UNL     1       5.037   4.768  17.392  0.00  0.00    +0.000 C 
ATOM      5  C   UNL     1       6.543   4.910  17.666  0.00  0.00    +0.000 C 
ATOM      6  C   UNL     1       7.289   5.500  16.467  0.00  0.00    +0.000 C 
ATOM      7  C   UNL     1       7.025   4.694  15.199  0.00  0.00    +0.000 C 
ATOM      8  C   UNL     1       5.531   4.618  14.903  0.00  0.00    +0.000 C 
ATOM      9  C   UNL     1       4.761   4.015  16.081  0.00  0.00    +0.000 C 
ATOM     10  C   UNL     1       4.291   4.205  18.550  0.00  0.00    +0.000 A 
ATOM     11  C   UNL     1       4.380   2.966  19.159  0.00  0.00    +0.000 A 
ATOM     12  C   UNL     1       3.538   2.738  20.236  0.00  0.00    +0.000 A 
ATOM     13  N   UNL     1       2.649   3.648  20.713  0.00  0.00    +0.000 NA
ATOM     14  C   UNL     1       2.580   4.858  20.099  0.00  0.00    +0.000 A 
ATOM     15  C   UNL     1       3.392   5.146  19.024  0.00  0.00    +0.000 A 
ENDROOT
BRANCH  14  16
ATOM     16  S   UNL     1       1.396   5.971  20.795  0.00  0.00    +0.000 S 
ATOM     17  H   UNL     1       1.053   6.509  19.618  0.00  0.00    +0.000 HD
ENDBRANCH  14  16
TORSDOF 1
ENDMDL
MODEL 8
REMARK VINA RESULT:      -6.1      2.885      4.793
REMARK  Name = 
REMARK  1 active torsions:
REMARK  status: ('A' for Active; 'I' for Inactive)
REMARK    1  A    between atoms: C_14  and  S_15
REMARK                            x       y       z     vdW  Elec       q    Type
REMARK                         _______ _______ _______ _____ _____    ______ ____
ROOT
ATOM      1  O   UNL     1       5.035   2.631  16.707  0.00  0.00    +0.000 OA
ATOM      2  C   UNL     1       4.352   3.393  17.355  0.00  0.00    +0.000 C 
ATOM      3  O   UNL     1       3.495   3.024  18.356  0.00  0.00    +0.000 OA
ATOM      4  C   UNL     1       2.804   4.149  18.956  0.00  0.00    +0.000 C 
ATOM      5  C   UNL     1       3.167   4.197  20.448  0.00  0.00    +0.000 C 
ATOM      6  C   UNL     1       2.599   3.001  21.215  0.00  0.00    +0.000 C 
ATOM      7  C   UNL     1       1.092   2.877  21.010  0.00  0.00    +0.000 C 
ATOM      8  C   UNL     1       0.751   2.762  19.528  0.00  0.00    +0.000 C 
ATOM      9  C   UNL     1       1.295   3.957  18.739  0.00  0.00    +0.000 C 
ATOM     10  C   UNL     1       3.356   5.299  18.190  0.00  0.00    +0.000 A 
ATOM     11  C   UNL     1       3.095   6.655  18.294  0.00  0.00    +0.000 A 
ATOM     12  C   UNL     1       3.782   7.490  17.426  0.00  0.00    +0.000 A 
ATOM     13  N   UNL     1       4.676   7.056  16.500  0.00  0.00    +0.000 NA
ATOM     14  C   UNL     1       4.916   5.721  16.417  0.00  0.00    +0.000 A 
ATOM     15  C   UNL     1       4.265   4.839  17.253  0.00  0.00    +0.000 A 
ENDROOT
BRANCH  14  16
ATOM     16  S   UNL     1       6.095   5.259  15.185  0.00  0.00    +0.000 S 
ATOM     17  H   UNL     1       5.584   6.062  14.242  0.00  0.00    +0.000 HD
ENDBRANCH  14  16
TORSDOF 1
ENDMDL
MODEL 9
REMARK VINA RESULT:      -6.1      1.932      2.945
REMARK  Name = 
REMARK  1 active torsions:
REMARK  status: ('A' for Active; 'I' for Inactive)
REMARK    1  A    between atoms: C_14  and  S_15
REMARK                            x       y       z     vdW  Elec       q    Type
REMARK                         _______ _______ _______ _____ _____    ______ ____
ROOT
ATOM      1  O   UNL     1       2.938   6.766  18.873  0.00  0.00    +0.000 OA
ATOM      2  C   UNL     1       3.465   5.781  18.403  0.00  0.00    +0.000 C 
ATOM      3  O   UNL     1       4.516   5.793  17.528  0.00  0.00    +0.000 OA
ATOM      4  C   UNL     1       4.940   4.465  17.129  0.00  0.00    +0.000 C 
ATOM      5  C   UNL     1       6.405   4.278  17.556  0.00  0.00    +0.000 C 
ATOM      6  C   UNL     1       7.350   5.187  16.768  0.00  0.00    +0.000 C 
ATOM      7  C   UNL     1       7.177   4.997  15.264  0.00  0.00    +0.000 C 
ATOM      8  C   UNL     1       5.733   5.251  14.845  0.00  0.00    +0.000 C 
ATOM      9  C   UNL     1       4.765   4.342  15.607  0.00  0.00    +0.000 C 
ATOM     10  C   UNL     1       4.002   3.596  17.890  0.00  0.00    +0.000 A 
ATOM     11  C   UNL     1       3.897   2.217  17.942  0.00  0.00    +0.000 A 
ATOM     12  C   UNL     1       2.905   1.698  18.760  0.00  0.00    +0.000 A 
ATOM     13  N   UNL     1       2.051   2.455  19.496  0.00  0.00    +0.000 NA
ATOM     14  C   UNL     1       2.174   3.807  19.430  0.00  0.00    +0.000 A 
ATOM     15  C   UNL     1       3.141   4.384  18.636  0.00  0.00    +0.000 A 
ENDROOT
BRANCH  14  16
ATOM     16  S   UNL     1       1.020   4.702  20.426  0.00  0.00    +0.000 S 
ATOM     17  H   UNL     1       1.387   4.110  21.570  0.00  0.00    +0.000 HD
ENDBRANCH  14  16
TORSDOF 1
ENDMDL
