MODEL 1
REMARK VINA RESULT:      -7.0      0.000      0.000
REMARK  Name = 
REMARK  6 active torsions:
REMARK  status: ('A' for Active; 'I' for Inactive)
REMARK    1  A    between atoms: N_7  and  C_8
REMARK    2  A    between atoms: C_8  and  C_9
REMARK    3  A    between atoms: C_9  and  P_10
REMARK    4  A    between atoms: P_10  and  C_11
REMARK    5  A    between atoms: P_10  and  C_17
REMARK    6  A    between atoms: P_10  and  C_23
REMARK                            x       y       z     vdW  Elec       q    Type
REMARK                         _______ _______ _______ _____ _____    ______ ____
ROOT
ATOM      1  P   UNL     1      -0.430  10.992  19.393  0.00  0.00    +0.000 P 
ENDROOT
BRANCH   1   2
ATOM      2  C   UNL     1      -1.797  10.821  18.250  0.00  0.00    +0.000 A 
ATOM      3  C   UNL     1      -1.719  10.011  17.106  0.00  0.00    +0.000 A 
ATOM      4  C   UNL     1      -2.780   9.943  16.197  0.00  0.00    +0.000 A 
ATOM      5  C   UNL     1      -3.929  10.701  16.407  0.00  0.00    +0.000 A 
ATOM      6  C   UNL     1      -4.022  11.510  17.535  0.00  0.00    +0.000 A 
ATOM      7  C   UNL     1      -2.968  11.565  18.449  0.00  0.00    +0.000 A 
ENDBRANCH   1   2
BRANCH   1   8
ATOM      8  C   UNL     1       0.440  12.545  19.229  0.00  0.00    +0.000 A 
ATOM      9  C   UNL     1       1.831  12.626  19.380  0.00  0.00    +0.000 A 
ATOM     10  C   UNL     1       2.490  13.861  19.344  0.00  0.00    +0.000 A 
ATOM     11  C   UNL     1       1.774  15.031  19.109  0.00  0.00    +0.000 A 
ATOM     12  C   UNL     1       0.401  14.963  18.892  0.00  0.00    +0.000 A 
ATOM     13  C   UNL     1      -0.256  13.731  18.945  0.00  0.00    +0.000 A 
ENDBRANCH   1   8
BRANCH   1  14
ATOM     14  C   UNL     1       0.733   9.641  19.179  0.00  0.00    +0.000 A 
ATOM     15  C   UNL     1       1.022   8.747  20.221  0.00  0.00    +0.000 A 
ATOM     16  C   UNL     1       1.940   7.708  20.053  0.00  0.00    +0.000 A 
ATOM     17  C   UNL     1       2.579   7.533  18.831  0.00  0.00    +0.000 A 
ATOM     18  C   UNL     1       2.287   8.392  17.774  0.00  0.00    +0.000 A 
ATOM     19  C   UNL     1       1.372   9.437  17.946  0.00  0.00    +0.000 A 
ENDBRANCH   1  14
BRANCH   1  20
ATOM     20  C   UNL     1      -1.158  10.865  21.067  0.00  0.00    +0.000 C 
BRANCH  20  21
ATOM     21  C   UNL     1      -0.364  11.505  22.200  0.00  0.00    +0.000 C 
BRANCH  21  28
ATOM     22  O   UNL     1      -3.045  11.813  23.461  0.00  0.00    +0.000 OA
ATOM     23  C   UNL     1      -2.260  12.728  23.278  0.00  0.00    +0.000 C 
ATOM     24  C   UNL     1      -2.528  14.119  23.661  0.00  0.00    +0.000 C 
ATOM     25  C   UNL     1      -1.454  14.842  23.345  0.00  0.00    +0.000 C 
ATOM     26  C   UNL     1      -0.465  13.929  22.749  0.00  0.00    +0.000 C 
ATOM     27  O   UNL     1       0.636  14.283  22.376  0.00  0.00    +0.000 OA
ATOM     28  N   UNL     1      -1.020  12.692  22.722  0.00  0.00    +0.000 N 
ENDBRANCH  21  28
ENDBRANCH  20  21
ENDBRANCH   1  20
TORSDOF 6
ENDMDL
MODEL 2
REMARK VINA RESULT:      -7.0      0.168      1.678
REMARK  Name = 
REMARK  6 active torsions:
REMARK  status: ('A' for Active; 'I' for Inactive)
REMARK    1  A    between atoms: N_7  and  C_8
REMARK    2  A    between atoms: C_8  and  C_9
REMARK    3  A    between atoms: C_9  and  P_10
REMARK    4  A    between atoms: P_10  and  C_11
REMARK    5  A    between atoms: P_10  and  C_17
REMARK    6  A    between atoms: P_10  and  C_23
REMARK                            x       y       z     vdW  Elec       q    Type
REMARK                         _______ _______ _______ _____ _____    ______ ____
ROOT
ATOM      1  P   UNL     1      -0.513  11.090  19.359  0.00  0.00    +0.000 P 
ENDROOT
BRANCH   1   2
ATOM      2  C   UNL     1      -1.880  10.881  18.222  0.00  0.00    +0.000 A 
ATOM      3  C   UNL     1      -1.786  10.072  17.079  0.00  0.00    +0.000 A 
ATOM      4  C   UNL     1      -2.849   9.975  16.175  0.00  0.00    +0.000 A 
ATOM      5  C   UNL     1      -4.017  10.703  16.389  0.00  0.00    +0.000 A 
ATOM      6  C   UNL     1      -4.126  11.511  17.516  0.00  0.00    +0.000 A 
ATOM      7  C   UNL     1      -3.069  11.594  18.426  0.00  0.00    +0.000 A 
ENDBRANCH   1   2
BRANCH   1   8
ATOM      8  C   UNL     1       0.365  12.630  19.135  0.00  0.00    +0.000 A 
ATOM      9  C   UNL     1       1.766  12.682  19.130  0.00  0.00    +0.000 A 
ATOM     10  C   UNL     1       2.442  13.905  19.050  0.00  0.00    +0.000 A 
ATOM     11  C   UNL     1       1.728  15.094  18.927  0.00  0.00    +0.000 A 
ATOM     12  C   UNL     1       0.339  15.057  18.864  0.00  0.00    +0.000 A 
ATOM     13  C   UNL     1      -0.333  13.835  18.961  0.00  0.00    +0.000 A 
ENDBRANCH   1   8
BRANCH   1  14
ATOM     14  C   UNL     1       0.643   9.725  19.198  0.00  0.00    +0.000 A 
ATOM     15  C   UNL     1       1.288   9.446  17.983  0.00  0.00    +0.000 A 
ATOM     16  C   UNL     1       2.174   8.372  17.861  0.00  0.00    +0.000 A 
ATOM     17  C   UNL     1       2.443   7.563  18.959  0.00  0.00    +0.000 A 
ATOM     18  C   UNL     1       1.835   7.838  20.181  0.00  0.00    +0.000 A 
ATOM     19  C   UNL     1       0.943   8.910  20.300  0.00  0.00    +0.000 A 
ENDBRANCH   1  14
BRANCH   1  20
ATOM     20  C   UNL     1      -1.243  11.031  21.036  0.00  0.00    +0.000 C 
BRANCH  20  21
ATOM     21  C   UNL     1      -0.405  11.632  22.159  0.00  0.00    +0.000 C 
BRANCH  21  28
ATOM     22  O   UNL     1       0.457  14.475  22.375  0.00  0.00    +0.000 OA
ATOM     23  C   UNL     1      -0.581  14.034  22.835  0.00  0.00    +0.000 C 
ATOM     24  C   UNL     1      -1.562  14.849  23.561  0.00  0.00    +0.000 C 
ATOM     25  C   UNL     1      -2.582  14.058  23.893  0.00  0.00    +0.000 C 
ATOM     26  C   UNL     1      -2.282  12.709  23.386  0.00  0.00    +0.000 C 
ATOM     27  O   UNL     1      -3.034  11.764  23.509  0.00  0.00    +0.000 OA
ATOM     28  N   UNL     1      -1.067  12.764  22.786  0.00  0.00    +0.000 N 
ENDBRANCH  21  28
ENDBRANCH  20  21
ENDBRANCH   1  20
TORSDOF 6
ENDMDL
MODEL 3
REMARK VINA RESULT:      -6.9      0.215      4.538
REMARK  Name = 
REMARK  6 active torsions:
REMARK  status: ('A' for Active; 'I' for Inactive)
REMARK    1  A    between atoms: N_7  and  C_8
REMARK    2  A    between atoms: C_8  and  C_9
REMARK    3  A    between atoms: C_9  and  P_10
REMARK    4  A    between atoms: P_10  and  C_11
REMARK    5  A    between atoms: P_10  and  C_17
REMARK    6  A    between atoms: P_10  and  C_23
REMARK                            x       y       z     vdW  Elec       q    Type
REMARK                         _______ _______ _______ _____ _____    ______ ____
ROOT
ATOM      1  P   UNL     1      -0.431  11.083  19.421  0.00  0.00    +0.000 P 
ENDROOT
BRANCH   1   2
ATOM      2  C   UNL     1       0.316  12.701  19.257  0.00  0.00    +0.000 A 
ATOM      3  C   UNL     1       1.698  12.906  19.396  0.00  0.00    +0.000 A 
ATOM      4  C   UNL     1       2.248  14.189  19.324  0.00  0.00    +0.000 A 
ATOM      5  C   UNL     1       1.421  15.294  19.134  0.00  0.00    +0.000 A 
ATOM      6  C   UNL     1       0.049  15.110  18.996  0.00  0.00    +0.000 A 
ATOM      7  C   UNL     1      -0.496  13.825  19.052  0.00  0.00    +0.000 A 
ENDBRANCH   1   2
BRANCH   1   8
ATOM      8  C   UNL     1       0.733   9.742  19.223  0.00  0.00    +0.000 A 
ATOM      9  C   UNL     1       1.404   9.526  18.011  0.00  0.00    +0.000 A 
ATOM     10  C   UNL     1       2.242   8.418  17.837  0.00  0.00    +0.000 A 
ATOM     11  C   UNL     1       2.458   7.531  18.889  0.00  0.00    +0.000 A 
ATOM     12  C   UNL     1       1.853   7.766  20.119  0.00  0.00    +0.000 A 
ATOM     13  C   UNL     1       1.004   8.864  20.284  0.00  0.00    +0.000 A 
ENDBRANCH   1   8
BRANCH   1  14
ATOM     14  C   UNL     1      -1.761  10.889  18.229  0.00  0.00    +0.000 A 
ATOM     15  C   UNL     1      -1.647  10.016  17.136  0.00  0.00    +0.000 A 
ATOM     16  C   UNL     1      -2.679   9.882  16.204  0.00  0.00    +0.000 A 
ATOM     17  C   UNL     1      -3.854  10.610  16.356  0.00  0.00    +0.000 A 
ATOM     18  C   UNL     1      -3.999  11.462  17.448  0.00  0.00    +0.000 A 
ATOM     19  C   UNL     1      -2.961  11.600  18.377  0.00  0.00    +0.000 A 
ENDBRANCH   1  14
BRANCH   1  20
ATOM     20  C   UNL     1      -1.153  11.032  21.102  0.00  0.00    +0.000 C 
BRANCH  20  21
ATOM     21  C   UNL     1      -0.359  11.730  22.200  0.00  0.00    +0.000 C 
BRANCH  21  28
ATOM     22  O   UNL     1      -3.044  11.818  23.488  0.00  0.00    +0.000 OA
ATOM     23  C   UNL     1      -2.322  12.788  23.334  0.00  0.00    +0.000 C 
ATOM     24  C   UNL     1      -2.676  14.144  23.768  0.00  0.00    +0.000 C 
ATOM     25  C   UNL     1      -1.654  14.946  23.471  0.00  0.00    +0.000 C 
ATOM     26  C   UNL     1      -0.613  14.122  22.836  0.00  0.00    +0.000 C 
ATOM     27  O   UNL     1       0.459  14.560  22.470  0.00  0.00    +0.000 OA
ATOM     28  N   UNL     1      -1.086  12.853  22.768  0.00  0.00    +0.000 N 
ENDBRANCH  21  28
ENDBRANCH  20  21
ENDBRANCH   1  20
TORSDOF 6
ENDMDL
MODEL 4
REMARK VINA RESULT:      -6.9      0.171      2.114
REMARK  Name = 
REMARK  6 active torsions:
REMARK  status: ('A' for Active; 'I' for Inactive)
REMARK    1  A    between atoms: N_7  and  C_8
REMARK    2  A    between atoms: C_8  and  C_9
REMARK    3  A    between atoms: C_9  and  P_10
REMARK    4  A    between atoms: P_10  and  C_11
REMARK    5  A    between atoms: P_10  and  C_17
REMARK    6  A    between atoms: P_10  and  C_23
REMARK                            x       y       z     vdW  Elec       q    Type
REMARK                         _______ _______ _______ _____ _____    ______ ____
ROOT
ATOM      1  P   UNL     1      -0.438  11.103  19.493  0.00  0.00    +0.000 P 
ENDROOT
BRANCH   1   2
ATOM      2  C   UNL     1      -1.798  10.976  18.336  0.00  0.00    +0.000 A 
ATOM      3  C   UNL     1      -3.010  11.657  18.528  0.00  0.00    +0.000 A 
ATOM      4  C   UNL     1      -4.078  11.493  17.640  0.00  0.00    +0.000 A 
ATOM      5  C   UNL     1      -3.959  10.627  16.557  0.00  0.00    +0.000 A 
ATOM      6  C   UNL     1      -2.765   9.942  16.352  0.00  0.00    +0.000 A 
ATOM      7  C   UNL     1      -1.694  10.120  17.231  0.00  0.00    +0.000 A 
ENDBRANCH   1   2
BRANCH   1   8
ATOM      8  C   UNL     1       0.459  12.643  19.366  0.00  0.00    +0.000 A 
ATOM      9  C   UNL     1      -0.184  13.839  19.019  0.00  0.00    +0.000 A 
ATOM     10  C   UNL     1       0.544  15.021  18.830  0.00  0.00    +0.000 A 
ATOM     11  C   UNL     1       1.922  15.035  19.030  0.00  0.00    +0.000 A 
ATOM     12  C   UNL     1       2.568  13.872  19.438  0.00  0.00    +0.000 A 
ATOM     13  C   UNL     1       1.841  12.691  19.610  0.00  0.00    +0.000 A 
ENDBRANCH   1   8
BRANCH   1  14
ATOM     14  C   UNL     1       0.704   9.736  19.263  0.00  0.00    +0.000 A 
ATOM     15  C   UNL     1       1.369   9.530  18.044  0.00  0.00    +0.000 A 
ATOM     16  C   UNL     1       2.243   8.455  17.867  0.00  0.00    +0.000 A 
ATOM     17  C   UNL     1       2.481   7.570  18.913  0.00  0.00    +0.000 A 
ATOM     18  C   UNL     1       1.852   7.771  20.139  0.00  0.00    +0.000 A 
ATOM     19  C   UNL     1       0.972   8.845  20.313  0.00  0.00    +0.000 A 
ENDBRANCH   1  14
BRANCH   1  20
ATOM     20  C   UNL     1      -1.183  10.956  21.159  0.00  0.00    +0.000 C 
BRANCH  20  21
ATOM     21  C   UNL     1      -0.409  11.599  22.304  0.00  0.00    +0.000 C 
BRANCH  21  28
ATOM     22  O   UNL     1       0.420  14.457  22.437  0.00  0.00    +0.000 OA
ATOM     23  C   UNL     1      -0.633  14.024  22.871  0.00  0.00    +0.000 C 
ATOM     24  C   UNL     1      -1.651  14.859  23.521  0.00  0.00    +0.000 C 
ATOM     25  C   UNL     1      -2.677  14.073  23.843  0.00  0.00    +0.000 C 
ATOM     26  C   UNL     1      -2.344  12.707  23.405  0.00  0.00    +0.000 C 
ATOM     27  O   UNL     1      -3.093  11.759  23.536  0.00  0.00    +0.000 OA
ATOM     28  N   UNL     1      -1.106  12.749  22.855  0.00  0.00    +0.000 N 
ENDBRANCH  21  28
ENDBRANCH  20  21
ENDBRANCH   1  20
TORSDOF 6
ENDMDL
MODEL 5
REMARK VINA RESULT:      -6.9      0.168      4.764
REMARK  Name = 
REMARK  6 active torsions:
REMARK  status: ('A' for Active; 'I' for Inactive)
REMARK    1  A    between atoms: N_7  and  C_8
REMARK    2  A    between atoms: C_8  and  C_9
REMARK    3  A    between atoms: C_9  and  P_10
REMARK    4  A    between atoms: P_10  and  C_11
REMARK    5  A    between atoms: P_10  and  C_17
REMARK    6  A    between atoms: P_10  and  C_23
REMARK                            x       y       z     vdW  Elec       q    Type
REMARK                         _______ _______ _______ _____ _____    ______ ____
ROOT
ATOM      1  P   UNL     1      -0.418  10.956  19.328  0.00  0.00    +0.000 P 
ENDROOT
BRANCH   1   2
ATOM      2  C   UNL     1       0.784   9.642  19.149  0.00  0.00    +0.000 A 
ATOM      3  C   UNL     1       1.442   9.390  17.935  0.00  0.00    +0.000 A 
ATOM      4  C   UNL     1       2.332   8.319  17.806  0.00  0.00    +0.000 A 
ATOM      5  C   UNL     1       2.562   7.468  18.885  0.00  0.00    +0.000 A 
ATOM      6  C   UNL     1       1.917   7.703  20.095  0.00  0.00    +0.000 A 
ATOM      7  C   UNL     1       1.041   8.783  20.226  0.00  0.00    +0.000 A 
ENDBRANCH   1   2
BRANCH   1   8
ATOM      8  C   UNL     1      -1.791  10.820  18.192  0.00  0.00    +0.000 A 
ATOM      9  C   UNL     1      -1.723  10.003  17.055  0.00  0.00    +0.000 A 
ATOM     10  C   UNL     1      -2.767   9.976  16.122  0.00  0.00    +0.000 A 
ATOM     11  C   UNL     1      -3.916  10.732  16.335  0.00  0.00    +0.000 A 
ATOM     12  C   UNL     1      -4.029  11.499  17.491  0.00  0.00    +0.000 A 
ATOM     13  C   UNL     1      -2.978  11.536  18.411  0.00  0.00    +0.000 A 
ENDBRANCH   1   8
BRANCH   1  14
ATOM     14  C   UNL     1       0.370  12.555  19.110  0.00  0.00    +0.000 A 
ATOM     15  C   UNL     1       1.767  12.688  19.075  0.00  0.00    +0.000 A 
ATOM     16  C   UNL     1       2.374  13.937  18.922  0.00  0.00    +0.000 A 
ATOM     17  C   UNL     1       1.593  15.078  18.785  0.00  0.00    +0.000 A 
ATOM     18  C   UNL     1       0.205  14.967  18.790  0.00  0.00    +0.000 A 
ATOM     19  C   UNL     1      -0.402  13.716  18.950  0.00  0.00    +0.000 A 
ENDBRANCH   1  14
BRANCH   1  20
ATOM     20  C   UNL     1      -1.028  10.846  21.051  0.00  0.00    +0.000 C 
BRANCH  20  21
ATOM     21  C   UNL     1      -0.195  11.561  22.109  0.00  0.00    +0.000 C 
BRANCH  21  28
ATOM     22  O   UNL     1       0.628  14.419  22.279  0.00  0.00    +0.000 OA
ATOM     23  C   UNL     1      -0.426  13.979  22.705  0.00  0.00    +0.000 C 
ATOM     24  C   UNL     1      -1.446  14.803  23.364  0.00  0.00    +0.000 C 
ATOM     25  C   UNL     1      -2.471  14.011  23.674  0.00  0.00    +0.000 C 
ATOM     26  C   UNL     1      -2.135  12.652  23.220  0.00  0.00    +0.000 C 
ATOM     27  O   UNL     1      -2.883  11.702  23.338  0.00  0.00    +0.000 OA
ATOM     28  N   UNL     1      -0.896  12.703  22.673  0.00  0.00    +0.000 N 
ENDBRANCH  21  28
ENDBRANCH  20  21
ENDBRANCH   1  20
TORSDOF 6
ENDMDL
MODEL 6
REMARK VINA RESULT:      -6.9      0.241      4.713
REMARK  Name = 
REMARK  6 active torsions:
REMARK  status: ('A' for Active; 'I' for Inactive)
REMARK    1  A    between atoms: N_7  and  C_8
REMARK    2  A    between atoms: C_8  and  C_9
REMARK    3  A    between atoms: C_9  and  P_10
REMARK    4  A    between atoms: P_10  and  C_11
REMARK    5  A    between atoms: P_10  and  C_17
REMARK    6  A    between atoms: P_10  and  C_23
REMARK                            x       y       z     vdW  Elec       q    Type
REMARK                         _______ _______ _______ _____ _____    ______ ____
ROOT
ATOM      1  P   UNL     1      -0.462  11.099  19.427  0.00  0.00    +0.000 P 
ENDROOT
BRANCH   1   2
ATOM      2  C   UNL     1       0.295  12.712  19.257  0.00  0.00    +0.000 A 
ATOM      3  C   UNL     1       1.682  12.903  19.356  0.00  0.00    +0.000 A 
ATOM      4  C   UNL     1       2.242  14.182  19.280  0.00  0.00    +0.000 A 
ATOM      5  C   UNL     1       1.420  15.296  19.126  0.00  0.00    +0.000 A 
ATOM      6  C   UNL     1       0.043  15.125  19.028  0.00  0.00    +0.000 A 
ATOM      7  C   UNL     1      -0.513  13.845  19.088  0.00  0.00    +0.000 A 
ENDBRANCH   1   2
BRANCH   1   8
ATOM      8  C   UNL     1       0.699   9.750  19.254  0.00  0.00    +0.000 A 
ATOM      9  C   UNL     1       1.366   9.508  18.046  0.00  0.00    +0.000 A 
ATOM     10  C   UNL     1       2.200   8.394  17.893  0.00  0.00    +0.000 A 
ATOM     11  C   UNL     1       2.416   7.529  18.962  0.00  0.00    +0.000 A 
ATOM     12  C   UNL     1       1.814   7.790  20.188  0.00  0.00    +0.000 A 
ATOM     13  C   UNL     1       0.969   8.893  20.332  0.00  0.00    +0.000 A 
ENDBRANCH   1   8
BRANCH   1  14
ATOM     14  C   UNL     1      -1.779  10.900  18.224  0.00  0.00    +0.000 A 
ATOM     15  C   UNL     1      -2.978  11.623  18.320  0.00  0.00    +0.000 A 
ATOM     16  C   UNL     1      -4.006  11.452  17.389  0.00  0.00    +0.000 A 
ATOM     17  C   UNL     1      -3.848  10.561  16.334  0.00  0.00    +0.000 A 
ATOM     18  C   UNL     1      -2.657   9.852  16.204  0.00  0.00    +0.000 A 
ATOM     19  C   UNL     1      -1.630  10.021  17.141  0.00  0.00    +0.000 A 
ENDBRANCH   1  14
BRANCH   1  20
ATOM     20  C   UNL     1      -1.202  11.067  21.101  0.00  0.00    +0.000 C 
BRANCH  20  21
ATOM     21  C   UNL     1      -0.384  11.712  22.214  0.00  0.00    +0.000 C 
BRANCH  21  28
ATOM     22  O   UNL     1       0.419  14.569  22.474  0.00  0.00    +0.000 OA
ATOM     23  C   UNL     1      -0.624  14.105  22.901  0.00  0.00    +0.000 C 
ATOM     24  C   UNL     1      -1.640  14.896  23.604  0.00  0.00    +0.000 C 
ATOM     25  C   UNL     1      -2.654  14.085  23.901  0.00  0.00    +0.000 C 
ATOM     26  C   UNL     1      -2.315  12.745  23.394  0.00  0.00    +0.000 C 
ATOM     27  O   UNL     1      -3.052  11.785  23.489  0.00  0.00    +0.000 OA
ATOM     28  N   UNL     1      -1.085  12.827  22.829  0.00  0.00    +0.000 N 
ENDBRANCH  21  28
ENDBRANCH  20  21
ENDBRANCH   1  20
TORSDOF 6
ENDMDL
MODEL 7
REMARK VINA RESULT:      -6.8      0.165      4.826
REMARK  Name = 
REMARK  6 active torsions:
REMARK  status: ('A' for Active; 'I' for Inactive)
REMARK    1  A    between atoms: N_7  and  C_8
REMARK    2  A    between atoms: C_8  and  C_9
REMARK    3  A    between atoms: C_9  and  P_10
REMARK    4  A    between atoms: P_10  and  C_11
REMARK    5  A    between atoms: P_10  and  C_17
REMARK    6  A    between atoms: P_10  and  C_23
REMARK                            x       y       z     vdW  Elec       q    Type
REMARK                         _______ _______ _______ _____ _____    ______ ____
ROOT
ATOM      1  P   UNL     1      -0.508  11.023  19.438  0.00  0.00    +0.000 P 
ENDROOT
BRANCH   1   2
ATOM      2  C   UNL     1       0.685   9.704  19.229  0.00  0.00    +0.000 A 
ATOM      3  C   UNL     1       1.278   9.422  17.988  0.00  0.00    +0.000 A 
ATOM      4  C   UNL     1       2.161   8.348  17.839  0.00  0.00    +0.000 A 
ATOM      5  C   UNL     1       2.449   7.524  18.924  0.00  0.00    +0.000 A 
ATOM      6  C   UNL     1       1.868   7.788  20.160  0.00  0.00    +0.000 A 
ATOM      7  C   UNL     1       0.999   8.871  20.311  0.00  0.00    +0.000 A 
ENDBRANCH   1   2
BRANCH   1   8
ATOM      8  C   UNL     1      -1.882  10.922  18.300  0.00  0.00    +0.000 A 
ATOM      9  C   UNL     1      -3.065  11.642  18.514  0.00  0.00    +0.000 A 
ATOM     10  C   UNL     1      -4.169  11.484  17.667  0.00  0.00    +0.000 A 
ATOM     11  C   UNL     1      -4.091  10.636  16.566  0.00  0.00    +0.000 A 
ATOM     12  C   UNL     1      -2.903   9.963  16.300  0.00  0.00    +0.000 A 
ATOM     13  C   UNL     1      -1.808  10.111  17.157  0.00  0.00    +0.000 A 
ENDBRANCH   1   8
BRANCH   1  14
ATOM     14  C   UNL     1       0.292  12.620  19.257  0.00  0.00    +0.000 A 
ATOM     15  C   UNL     1      -0.447  13.791  19.029  0.00  0.00    +0.000 A 
ATOM     16  C   UNL     1       0.183  15.028  18.872  0.00  0.00    +0.000 A 
ATOM     17  C   UNL     1       1.567  15.120  18.955  0.00  0.00    +0.000 A 
ATOM     18  C   UNL     1       2.319  13.975  19.207  0.00  0.00    +0.000 A 
ATOM     19  C   UNL     1       1.687  12.736  19.357  0.00  0.00    +0.000 A 
ENDBRANCH   1  14
BRANCH   1  20
ATOM     20  C   UNL     1      -1.117  10.877  21.158  0.00  0.00    +0.000 C 
BRANCH  20  21
ATOM     21  C   UNL     1      -0.313  11.611  22.225  0.00  0.00    +0.000 C 
BRANCH  21  28
ATOM     22  O   UNL     1       0.491  14.476  22.355  0.00  0.00    +0.000 OA
ATOM     23  C   UNL     1      -0.567  14.038  22.771  0.00  0.00    +0.000 C 
ATOM     24  C   UNL     1      -1.604  14.869  23.395  0.00  0.00    +0.000 C 
ATOM     25  C   UNL     1      -2.630  14.077  23.701  0.00  0.00    +0.000 C 
ATOM     26  C   UNL     1      -2.279  12.711  23.280  0.00  0.00    +0.000 C 
ATOM     27  O   UNL     1      -3.023  11.759  23.402  0.00  0.00    +0.000 OA
ATOM     28  N   UNL     1      -1.030  12.759  22.754  0.00  0.00    +0.000 N 
ENDBRANCH  21  28
ENDBRANCH  20  21
ENDBRANCH   1  20
TORSDOF 6
ENDMDL
MODEL 8
REMARK VINA RESULT:      -6.8      0.086      4.626
REMARK  Name = 
REMARK  6 active torsions:
REMARK  status: ('A' for Active; 'I' for Inactive)
REMARK    1  A    between atoms: N_7  and  C_8
REMARK    2  A    between atoms: C_8  and  C_9
REMARK    3  A    between atoms: C_9  and  P_10
REMARK    4  A    between atoms: P_10  and  C_11
REMARK    5  A    between atoms: P_10  and  C_17
REMARK    6  A    between atoms: P_10  and  C_23
REMARK                            x       y       z     vdW  Elec       q    Type
REMARK                         _______ _______ _______ _____ _____    ______ ____
ROOT
ATOM      1  P   UNL     1      -0.504  10.942  19.399  0.00  0.00    +0.000 P 
ENDROOT
BRANCH   1   2
ATOM      2  C   UNL     1       0.645   9.584  19.195  0.00  0.00    +0.000 A 
ATOM      3  C   UNL     1       0.993   8.733  20.256  0.00  0.00    +0.000 A 
ATOM      4  C   UNL     1       1.939   7.718  20.084  0.00  0.00    +0.000 A 
ATOM      5  C   UNL     1       2.569   7.550  18.854  0.00  0.00    +0.000 A 
ATOM      6  C   UNL     1       2.237   8.386  17.792  0.00  0.00    +0.000 A 
ATOM      7  C   UNL     1       1.280   9.390  17.961  0.00  0.00    +0.000 A 
ENDBRANCH   1   2
BRANCH   1   8
ATOM      8  C   UNL     1      -1.860  10.904  18.235  0.00  0.00    +0.000 A 
ATOM      9  C   UNL     1      -3.042  11.621  18.462  0.00  0.00    +0.000 A 
ATOM     10  C   UNL     1      -4.132  11.510  17.591  0.00  0.00    +0.000 A 
ATOM     11  C   UNL     1      -4.042  10.712  16.454  0.00  0.00    +0.000 A 
ATOM     12  C   UNL     1      -2.854  10.043  16.177  0.00  0.00    +0.000 A 
ATOM     13  C   UNL     1      -1.773  10.144  17.057  0.00  0.00    +0.000 A 
ENDBRANCH   1   8
BRANCH   1  14
ATOM     14  C   UNL     1       0.356  12.512  19.250  0.00  0.00    +0.000 A 
ATOM     15  C   UNL     1      -0.335  13.708  19.004  0.00  0.00    +0.000 A 
ATOM     16  C   UNL     1       0.341  14.923  18.873  0.00  0.00    +0.000 A 
ATOM     17  C   UNL     1       1.725  14.967  19.000  0.00  0.00    +0.000 A 
ATOM     18  C   UNL     1       2.428  13.796  19.271  0.00  0.00    +0.000 A 
ATOM     19  C   UNL     1       1.749  12.579  19.396  0.00  0.00    +0.000 A 
ENDBRANCH   1  14
BRANCH   1  20
ATOM     20  C   UNL     1      -1.150  10.800  21.106  0.00  0.00    +0.000 C 
BRANCH  20  21
ATOM     21  C   UNL     1      -0.333  11.482  22.197  0.00  0.00    +0.000 C 
BRANCH  21  28
ATOM     22  O   UNL     1      -3.017  11.775  23.456  0.00  0.00    +0.000 OA
ATOM     23  C   UNL     1      -2.239  12.694  23.271  0.00  0.00    +0.000 C 
ATOM     24  C   UNL     1      -2.516  14.085  23.649  0.00  0.00    +0.000 C 
ATOM     25  C   UNL     1      -1.447  14.814  23.332  0.00  0.00    +0.000 C 
ATOM     26  C   UNL     1      -0.451  13.907  22.739  0.00  0.00    +0.000 C 
ATOM     27  O   UNL     1       0.647  14.268  22.366  0.00  0.00    +0.000 OA
ATOM     28  N   UNL     1      -0.998  12.666  22.715  0.00  0.00    +0.000 N 
ENDBRANCH  21  28
ENDBRANCH  20  21
ENDBRANCH   1  20
TORSDOF 6
ENDMDL
MODEL 9
REMARK VINA RESULT:      -6.8      0.258      4.750
REMARK  Name = 
REMARK  6 active torsions:
REMARK  status: ('A' for Active; 'I' for Inactive)
REMARK    1  A    between atoms: N_7  and  C_8
REMARK    2  A    between atoms: C_8  and  C_9
REMARK    3  A    between atoms: C_9  and  P_10
REMARK    4  A    between atoms: P_10  and  C_11
REMARK    5  A    between atoms: P_10  and  C_17
REMARK    6  A    between atoms: P_10  and  C_23
REMARK                            x       y       z     vdW  Elec       q    Type
REMARK                         _______ _______ _______ _____ _____    ______ ____
ROOT
ATOM      1  P   UNL     1      -0.555  11.131  19.389  0.00  0.00    +0.000 P 
ENDROOT
BRANCH   1   2
ATOM      2  C   UNL     1       0.255  12.716  19.196  0.00  0.00    +0.000 A 
ATOM      3  C   UNL     1       1.650  12.856  19.253  0.00  0.00    +0.000 A 
ATOM      4  C   UNL     1       2.254  14.114  19.160  0.00  0.00    +0.000 A 
ATOM      5  C   UNL     1       1.469  15.257  19.030  0.00  0.00    +0.000 A 
ATOM      6  C   UNL     1       0.084  15.137  18.973  0.00  0.00    +0.000 A 
ATOM      7  C   UNL     1      -0.516  13.878  19.051  0.00  0.00    +0.000 A 
ENDBRANCH   1   2
BRANCH   1   8
ATOM      8  C   UNL     1       0.560   9.743  19.235  0.00  0.00    +0.000 A 
ATOM      9  C   UNL     1       0.844   8.906  20.323  0.00  0.00    +0.000 A 
ATOM     10  C   UNL     1       1.790   7.880  20.215  0.00  0.00    +0.000 A 
ATOM     11  C   UNL     1       2.435   7.645  19.004  0.00  0.00    +0.000 A 
ATOM     12  C   UNL     1       2.118   8.423  17.896  0.00  0.00    +0.000 A 
ATOM     13  C   UNL     1       1.185   9.458  18.011  0.00  0.00    +0.000 A 
ENDBRANCH   1   8
BRANCH   1  14
ATOM     14  C   UNL     1      -1.880  10.959  18.189  0.00  0.00    +0.000 A 
ATOM     15  C   UNL     1      -1.734  10.164  17.042  0.00  0.00    +0.000 A 
ATOM     16  C   UNL     1      -2.763  10.047  16.105  0.00  0.00    +0.000 A 
ATOM     17  C   UNL     1      -3.966  10.715  16.304  0.00  0.00    +0.000 A 
ATOM     18  C   UNL     1      -4.141  11.489  17.448  0.00  0.00    +0.000 A 
ATOM     19  C   UNL     1      -3.107  11.610  18.384  0.00  0.00    +0.000 A 
ENDBRANCH   1  14
BRANCH   1  20
ATOM     20  C   UNL     1      -1.294  11.148  21.064  0.00  0.00    +0.000 C 
BRANCH  20  21
ATOM     21  C   UNL     1      -0.438  11.745  22.175  0.00  0.00    +0.000 C 
BRANCH  21  28
ATOM     22  O   UNL     1       0.451  14.576  22.452  0.00  0.00    +0.000 OA
ATOM     23  C   UNL     1      -0.595  14.135  22.897  0.00  0.00    +0.000 C 
ATOM     24  C   UNL     1      -1.571  14.945  23.635  0.00  0.00    +0.000 C 
ATOM     25  C   UNL     1      -2.601  14.158  23.946  0.00  0.00    +0.000 C 
ATOM     26  C   UNL     1      -2.311  12.816  23.413  0.00  0.00    +0.000 C 
ATOM     27  O   UNL     1      -3.073  11.875  23.514  0.00  0.00    +0.000 OA
ATOM     28  N   UNL     1      -1.092  12.871  22.821  0.00  0.00    +0.000 N 
ENDBRANCH  21  28
ENDBRANCH  20  21
ENDBRANCH   1  20
TORSDOF 6
ENDMDL
