MODEL 1
REMARK VINA RESULT:      -8.2      0.000      0.000
REMARK  Name = 
REMARK  9 active torsions:
REMARK  status: ('A' for Active; 'I' for Inactive)
REMARK    1  A    between atoms: C_1  and  N_2
REMARK    2  A    between atoms: N_2  and  C_3
REMARK    3  A    between atoms: N_2  and  C_4
REMARK    4  A    between atoms: C_4  and  C_5
REMARK    5  A    between atoms: C_5  and  C_6
REMARK    6  A    between atoms: C_6  and  N_7
REMARK    7  A    between atoms: N_7  and  C_8
REMARK    8  A    between atoms: N_11  and  N_12
REMARK    9  A    between atoms: C_13  and  C_14
REMARK                            x       y       z     vdW  Elec       q    Type
REMARK                         _______ _______ _______ _____ _____    ______ ____
ROOT
ATOM      1  C   UNL     1       6.190   4.744  18.143  0.00  0.00    +0.000 A 
ATOM      2  N   UNL     1       6.864   5.691  18.827  0.00  0.00    +0.000 NA
ATOM      3  C   UNL     1       7.618   6.559  18.130  0.00  0.00    +0.000 A 
ATOM      4  N   UNL     1       8.299   7.549  18.867  0.00  0.00    +0.000 N 
ATOM      5  N   UNL     1       7.752   6.518  16.798  0.00  0.00    +0.000 NA
ATOM      6  C   UNL     1       7.099   5.577  16.123  0.00  0.00    +0.000 A 
ATOM      7  C   UNL     1       7.252   5.549  14.743  0.00  0.00    +0.000 A 
ATOM      8  C   UNL     1       6.586   4.618  13.944  0.00  0.00    +0.000 A 
ATOM      9  C   UNL     1       5.746   3.687  14.535  0.00  0.00    +0.000 A 
ATOM     10  C   UNL     1       5.596   3.684  15.921  0.00  0.00    +0.000 A 
ATOM     11  C   UNL     1       6.276   4.633  16.739  0.00  0.00    +0.000 A 
ATOM     12  H   UNL     1       7.963   7.518  19.825  0.00  0.00    +0.000 HD
ENDROOT
BRANCH   1  13
ATOM     13  N   UNL     1       5.444   3.774  18.867  0.00  0.00    +0.000 N 
ATOM     14  H   UNL     1       5.110   3.064  18.223  0.00  0.00    +0.000 HD
BRANCH  13  15
ATOM     15  C   UNL     1       4.306   4.320  19.613  0.00  0.00    +0.000 C 
BRANCH  15  16
ATOM     16  C   UNL     1       3.398   5.084  18.642  0.00  0.00    +0.000 C 
BRANCH  16  17
ATOM     17  C   UNL     1       2.137   4.295  18.269  0.00  0.00    +0.000 C 
BRANCH  17  19
ATOM     18  C   UNL     1       0.862   4.081  20.341  0.00  0.00    +0.000 C 
ATOM     19  N   UNL     1       1.656   3.387  19.325  0.00  0.00    +0.000 NA
ATOM     20  C   UNL     1       0.863   2.302  18.738  0.00  0.00    +0.000 C 
ENDBRANCH  17  19
ENDBRANCH  16  17
ENDBRANCH  15  16
ENDBRANCH  13  15
ENDBRANCH   1  13
BRANCH   4  21
ATOM     21  N   UNL     1       8.544   8.745  18.252  0.00  0.00    +0.000 NA
ATOM     22  C   UNL     1       9.198   9.609  18.959  0.00  0.00    +0.000 C 
BRANCH  22  23
ATOM     23  C   UNL     1       9.545  10.945  18.423  0.00  0.00    +0.000 A 
ATOM     24  C   UNL     1      10.882  11.346  18.299  0.00  0.00    +0.000 A 
ATOM     25  C   UNL     1      11.185  12.617  17.803  0.00  0.00    +0.000 A 
ATOM     26  C   UNL     1      10.155  13.475  17.438  0.00  0.00    +0.000 A 
ATOM     27  F   UNL     1      10.444  14.696  16.967  0.00  0.00    +0.000 F 
ATOM     28  C   UNL     1       8.823  13.085  17.553  0.00  0.00    +0.000 A 
ATOM     29  C   UNL     1       8.514  11.814  18.046  0.00  0.00    +0.000 A 
ENDBRANCH  22  23
ENDBRANCH   4  21
TORSDOF 7
ENDMDL
MODEL 2
REMARK VINA RESULT:      -8.2      0.559      1.242
REMARK  Name = 
REMARK  9 active torsions:
REMARK  status: ('A' for Active; 'I' for Inactive)
REMARK    1  A    between atoms: C_1  and  N_2
REMARK    2  A    between atoms: N_2  and  C_3
REMARK    3  A    between atoms: N_2  and  C_4
REMARK    4  A    between atoms: C_4  and  C_5
REMARK    5  A    between atoms: C_5  and  C_6
REMARK    6  A    between atoms: C_6  and  N_7
REMARK    7  A    between atoms: N_7  and  C_8
REMARK    8  A    between atoms: N_11  and  N_12
REMARK    9  A    between atoms: C_13  and  C_14
REMARK                            x       y       z     vdW  Elec       q    Type
REMARK                         _______ _______ _______ _____ _____    ______ ____
ROOT
ATOM      1  C   UNL     1       6.187   4.552  18.025  0.00  0.00    +0.000 A 
ATOM      2  N   UNL     1       6.856   5.483  18.737  0.00  0.00    +0.000 NA
ATOM      3  C   UNL     1       7.575   6.398  18.064  0.00  0.00    +0.000 A 
ATOM      4  N   UNL     1       8.250   7.368  18.831  0.00  0.00    +0.000 N 
ATOM      5  N   UNL     1       7.680   6.420  16.729  0.00  0.00    +0.000 NA
ATOM      6  C   UNL     1       7.032   5.495  16.026  0.00  0.00    +0.000 A 
ATOM      7  C   UNL     1       7.154   5.533  14.644  0.00  0.00    +0.000 A 
ATOM      8  C   UNL     1       6.490   4.624  13.818  0.00  0.00    +0.000 A 
ATOM      9  C   UNL     1       5.684   3.649  14.384  0.00  0.00    +0.000 A 
ATOM     10  C   UNL     1       5.566   3.580  15.771  0.00  0.00    +0.000 A 
ATOM     11  C   UNL     1       6.244   4.506  16.616  0.00  0.00    +0.000 A 
ATOM     12  H   UNL     1       7.937   7.287  19.793  0.00  0.00    +0.000 HD
ENDROOT
BRANCH   1  13
ATOM     13  N   UNL     1       5.479   3.534  18.721  0.00  0.00    +0.000 N 
ATOM     14  H   UNL     1       5.053   2.906  18.046  0.00  0.00    +0.000 HD
BRANCH  13  15
ATOM     15  C   UNL     1       4.445   4.032  19.633  0.00  0.00    +0.000 C 
BRANCH  15  16
ATOM     16  C   UNL     1       3.215   4.440  18.813  0.00  0.00    +0.000 C 
BRANCH  16  17
ATOM     17  C   UNL     1       2.036   3.477  18.999  0.00  0.00    +0.000 C 
BRANCH  17  19
ATOM     18  C   UNL     1       1.304   2.863  21.247  0.00  0.00    +0.000 C 
ATOM     19  N   UNL     1       1.159   3.806  20.136  0.00  0.00    +0.000 NA
ATOM     20  C   UNL     1       1.432   5.167  20.608  0.00  0.00    +0.000 C 
ENDBRANCH  17  19
ENDBRANCH  16  17
ENDBRANCH  15  16
ENDBRANCH  13  15
ENDBRANCH   1  13
BRANCH   4  21
ATOM     21  N   UNL     1       8.456   8.596  18.265  0.00  0.00    +0.000 NA
ATOM     22  C   UNL     1       9.077   9.453  19.010  0.00  0.00    +0.000 C 
BRANCH  22  23
ATOM     23  C   UNL     1       9.380  10.820  18.529  0.00  0.00    +0.000 A 
ATOM     24  C   UNL     1       8.382  11.618  17.952  0.00  0.00    +0.000 A 
ATOM     25  C   UNL     1       8.695  12.901  17.493  0.00  0.00    +0.000 A 
ATOM     26  C   UNL     1       9.996  13.374  17.611  0.00  0.00    +0.000 A 
ATOM     27  F   UNL     1      10.297  14.602  17.166  0.00  0.00    +0.000 F 
ATOM     28  C   UNL     1      10.994  12.592  18.186  0.00  0.00    +0.000 A 
ATOM     29  C   UNL     1      10.687  11.309  18.649  0.00  0.00    +0.000 A 
ENDBRANCH  22  23
ENDBRANCH   4  21
TORSDOF 7
ENDMDL
MODEL 3
REMARK VINA RESULT:      -8.1      1.171      1.934
REMARK  Name = 
REMARK  9 active torsions:
REMARK  status: ('A' for Active; 'I' for Inactive)
REMARK    1  A    between atoms: C_1  and  N_2
REMARK    2  A    between atoms: N_2  and  C_3
REMARK    3  A    between atoms: N_2  and  C_4
REMARK    4  A    between atoms: C_4  and  C_5
REMARK    5  A    between atoms: C_5  and  C_6
REMARK    6  A    between atoms: C_6  and  N_7
REMARK    7  A    between atoms: N_7  and  C_8
REMARK    8  A    between atoms: N_11  and  N_12
REMARK    9  A    between atoms: C_13  and  C_14
REMARK                            x       y       z     vdW  Elec       q    Type
REMARK                         _______ _______ _______ _____ _____    ______ ____
ROOT
ATOM      1  C   UNL     1       6.163   4.574  18.037  0.00  0.00    +0.000 A 
ATOM      2  N   UNL     1       6.823   5.510  18.749  0.00  0.00    +0.000 NA
ATOM      3  C   UNL     1       7.564   6.409  18.079  0.00  0.00    +0.000 A 
ATOM      4  N   UNL     1       8.230   7.386  18.846  0.00  0.00    +0.000 N 
ATOM      5  N   UNL     1       7.700   6.409  16.747  0.00  0.00    +0.000 NA
ATOM      6  C   UNL     1       7.061   5.478  16.043  0.00  0.00    +0.000 A 
ATOM      7  C   UNL     1       7.215   5.494  14.664  0.00  0.00    +0.000 A 
ATOM      8  C   UNL     1       6.562   4.577  13.837  0.00  0.00    +0.000 A 
ATOM      9  C   UNL     1       5.736   3.617  14.399  0.00  0.00    +0.000 A 
ATOM     10  C   UNL     1       5.585   3.571  15.784  0.00  0.00    +0.000 A 
ATOM     11  C   UNL     1       6.252   4.505  16.630  0.00  0.00    +0.000 A 
ATOM     12  H   UNL     1       7.895   7.322  19.801  0.00  0.00    +0.000 HD
ENDROOT
BRANCH   1  13
ATOM     13  N   UNL     1       5.432   3.572  18.732  0.00  0.00    +0.000 N 
ATOM     14  H   UNL     1       5.039   2.921  18.059  0.00  0.00    +0.000 HD
BRANCH  13  15
ATOM     15  C   UNL     1       4.356   4.090  19.583  0.00  0.00    +0.000 C 
BRANCH  15  16
ATOM     16  C   UNL     1       3.244   4.653  18.690  0.00  0.00    +0.000 C 
BRANCH  16  17
ATOM     17  C   UNL     1       2.720   6.007  19.184  0.00  0.00    +0.000 C 
BRANCH  17  19
ATOM     18  C   UNL     1       2.056   8.293  18.636  0.00  0.00    +0.000 C 
ATOM     19  N   UNL     1       2.573   7.021  18.125  0.00  0.00    +0.000 NA
ATOM     20  C   UNL     1       3.860   7.247  17.459  0.00  0.00    +0.000 C 
ENDBRANCH  17  19
ENDBRANCH  16  17
ENDBRANCH  15  16
ENDBRANCH  13  15
ENDBRANCH   1  13
BRANCH   4  21
ATOM     21  N   UNL     1       8.458   8.603  18.266  0.00  0.00    +0.000 NA
ATOM     22  C   UNL     1       9.089   9.459  19.003  0.00  0.00    +0.000 C 
BRANCH  22  23
ATOM     23  C   UNL     1       9.416  10.816  18.507  0.00  0.00    +0.000 A 
ATOM     24  C   UNL     1       8.430  11.630  17.935  0.00  0.00    +0.000 A 
ATOM     25  C   UNL     1       8.765  12.902  17.460  0.00  0.00    +0.000 A 
ATOM     26  C   UNL     1      10.078  13.347  17.560  0.00  0.00    +0.000 A 
ATOM     27  F   UNL     1      10.400  14.565  17.101  0.00  0.00    +0.000 F 
ATOM     28  C   UNL     1      11.065  12.548  18.131  0.00  0.00    +0.000 A 
ATOM     29  C   UNL     1      10.735  11.277  18.609  0.00  0.00    +0.000 A 
ENDBRANCH  22  23
ENDBRANCH   4  21
TORSDOF 7
ENDMDL
MODEL 4
REMARK VINA RESULT:      -8.1      4.852      7.555
REMARK  Name = 
REMARK  9 active torsions:
REMARK  status: ('A' for Active; 'I' for Inactive)
REMARK    1  A    between atoms: C_1  and  N_2
REMARK    2  A    between atoms: N_2  and  C_3
REMARK    3  A    between atoms: N_2  and  C_4
REMARK    4  A    between atoms: C_4  and  C_5
REMARK    5  A    between atoms: C_5  and  C_6
REMARK    6  A    between atoms: C_6  and  N_7
REMARK    7  A    between atoms: N_7  and  C_8
REMARK    8  A    between atoms: N_11  and  N_12
REMARK    9  A    between atoms: C_13  and  C_14
REMARK                            x       y       z     vdW  Elec       q    Type
REMARK                         _______ _______ _______ _____ _____    ______ ____
ROOT
ATOM      1  C   UNL     1       4.606   5.123  19.012  0.00  0.00    +0.000 A 
ATOM      2  N   UNL     1       4.389   6.391  18.604  0.00  0.00    +0.000 NA
ATOM      3  C   UNL     1       3.185   6.693  18.090  0.00  0.00    +0.000 A 
ATOM      4  N   UNL     1       2.979   8.028  17.688  0.00  0.00    +0.000 N 
ATOM      5  N   UNL     1       2.199   5.799  17.940  0.00  0.00    +0.000 NA
ATOM      6  C   UNL     1       2.415   4.546  18.328  0.00  0.00    +0.000 A 
ATOM      7  C   UNL     1       1.382   3.632  18.164  0.00  0.00    +0.000 A 
ATOM      8  C   UNL     1       1.501   2.301  18.567  0.00  0.00    +0.000 A 
ATOM      9  C   UNL     1       2.682   1.866  19.148  0.00  0.00    +0.000 A 
ATOM     10  C   UNL     1       3.739   2.761  19.302  0.00  0.00    +0.000 A 
ATOM     11  C   UNL     1       3.620   4.121  18.890  0.00  0.00    +0.000 A 
ATOM     12  H   UNL     1       3.766   8.582  18.012  0.00  0.00    +0.000 HD
ENDROOT
BRANCH   1  13
ATOM     13  N   UNL     1       5.895   4.767  19.492  0.00  0.00    +0.000 N 
ATOM     14  H   UNL     1       5.920   4.890  20.499  0.00  0.00    +0.000 HD
BRANCH  13  15
ATOM     15  C   UNL     1       6.996   5.526  18.889  0.00  0.00    +0.000 C 
BRANCH  15  16
ATOM     16  C   UNL     1       7.574   4.717  17.722  0.00  0.00    +0.000 C 
BRANCH  16  17
ATOM     17  C   UNL     1       7.206   5.308  16.355  0.00  0.00    +0.000 C 
BRANCH  17  19
ATOM     18  C   UNL     1       5.187   4.149  15.614  0.00  0.00    +0.000 C 
ATOM     19  N   UNL     1       6.626   4.335  15.412  0.00  0.00    +0.000 NA
ATOM     20  C   UNL     1       6.877   4.758  14.031  0.00  0.00    +0.000 C 
ENDBRANCH  17  19
ENDBRANCH  16  17
ENDBRANCH  15  16
ENDBRANCH  13  15
ENDBRANCH   1  13
BRANCH   4  21
ATOM     21  N   UNL     1       1.706   8.523  17.749  0.00  0.00    +0.000 NA
ATOM     22  C   UNL     1       1.566   9.613  18.432  0.00  0.00    +0.000 C 
BRANCH  22  23
ATOM     23  C   UNL     1       0.248  10.270  18.580  0.00  0.00    +0.000 A 
ATOM     24  C   UNL     1      -0.818   9.944  17.730  0.00  0.00    +0.000 A 
ATOM     25  C   UNL     1      -2.050  10.589  17.880  0.00  0.00    +0.000 A 
ATOM     26  C   UNL     1      -2.205  11.552  18.870  0.00  0.00    +0.000 A 
ATOM     27  F   UNL     1      -3.384  12.173  19.011  0.00  0.00    +0.000 F 
ATOM     28  C   UNL     1      -1.154  11.880  19.722  0.00  0.00    +0.000 A 
ATOM     29  C   UNL     1       0.079  11.237  19.579  0.00  0.00    +0.000 A 
ENDBRANCH  22  23
ENDBRANCH   4  21
TORSDOF 7
ENDMDL
MODEL 5
REMARK VINA RESULT:      -8.1      0.655      1.291
REMARK  Name = 
REMARK  9 active torsions:
REMARK  status: ('A' for Active; 'I' for Inactive)
REMARK    1  A    between atoms: C_1  and  N_2
REMARK    2  A    between atoms: N_2  and  C_3
REMARK    3  A    between atoms: N_2  and  C_4
REMARK    4  A    between atoms: C_4  and  C_5
REMARK    5  A    between atoms: C_5  and  C_6
REMARK    6  A    between atoms: C_6  and  N_7
REMARK    7  A    between atoms: N_7  and  C_8
REMARK    8  A    between atoms: N_11  and  N_12
REMARK    9  A    between atoms: C_13  and  C_14
REMARK                            x       y       z     vdW  Elec       q    Type
REMARK                         _______ _______ _______ _____ _____    ______ ____
ROOT
ATOM      1  C   UNL     1       5.770   4.968  17.946  0.00  0.00    +0.000 A 
ATOM      2  N   UNL     1       6.463   5.879  18.659  0.00  0.00    +0.000 NA
ATOM      3  C   UNL     1       7.393   6.609  18.019  0.00  0.00    +0.000 A 
ATOM      4  N   UNL     1       8.091   7.565  18.784  0.00  0.00    +0.000 N 
ATOM      5  N   UNL     1       7.682   6.463  16.720  0.00  0.00    +0.000 NA
ATOM      6  C   UNL     1       7.009   5.556  16.018  0.00  0.00    +0.000 A 
ATOM      7  C   UNL     1       7.324   5.418  14.673  0.00  0.00    +0.000 A 
ATOM      8  C   UNL     1       6.654   4.514  13.845  0.00  0.00    +0.000 A 
ATOM      9  C   UNL     1       5.644   3.724  14.373  0.00  0.00    +0.000 A 
ATOM     10  C   UNL     1       5.328   3.832  15.726  0.00  0.00    +0.000 A 
ATOM     11  C   UNL     1       6.012   4.752  16.572  0.00  0.00    +0.000 A 
ATOM     12  H   UNL     1       7.641   7.637  19.691  0.00  0.00    +0.000 HD
ENDROOT
BRANCH   1  13
ATOM     13  N   UNL     1       4.832   4.137  18.619  0.00  0.00    +0.000 N 
ATOM     14  H   UNL     1       4.203   3.727  17.937  0.00  0.00    +0.000 HD
BRANCH  13  15
ATOM     15  C   UNL     1       4.045   4.825  19.647  0.00  0.00    +0.000 C 
BRANCH  15  16
ATOM     16  C   UNL     1       2.589   4.920  19.176  0.00  0.00    +0.000 C 
BRANCH  16  17
ATOM     17  C   UNL     1       2.371   4.279  17.800  0.00  0.00    +0.000 C 
BRANCH  17  19
ATOM     18  C   UNL     1       2.716   1.861  17.829  0.00  0.00    +0.000 C 
ATOM     19  N   UNL     1       1.737   2.949  17.845  0.00  0.00    +0.000 NA
ATOM     20  C   UNL     1       0.892   2.832  19.038  0.00  0.00    +0.000 C 
ENDBRANCH  17  19
ENDBRANCH  16  17
ENDBRANCH  15  16
ENDBRANCH  13  15
ENDBRANCH   1  13
BRANCH   4  21
ATOM     21  N   UNL     1       8.549   8.682  18.142  0.00  0.00    +0.000 NA
ATOM     22  C   UNL     1       8.972   9.631  18.914  0.00  0.00    +0.000 C 
BRANCH  22  23
ATOM     23  C   UNL     1       9.505  10.897  18.362  0.00  0.00    +0.000 A 
ATOM     24  C   UNL     1       8.643  11.914  17.929  0.00  0.00    +0.000 A 
ATOM     25  C   UNL     1       9.170  13.095  17.398  0.00  0.00    +0.000 A 
ATOM     26  C   UNL     1      10.548  13.250  17.303  0.00  0.00    +0.000 A 
ATOM     27  F   UNL     1      11.054  14.380  16.790  0.00  0.00    +0.000 F 
ATOM     28  C   UNL     1      11.414  12.248  17.734  0.00  0.00    +0.000 A 
ATOM     29  C   UNL     1      10.893  11.066  18.268  0.00  0.00    +0.000 A 
ENDBRANCH  22  23
ENDBRANCH   4  21
TORSDOF 7
ENDMDL
MODEL 6
REMARK VINA RESULT:      -8.1      4.893      7.752
REMARK  Name = 
REMARK  9 active torsions:
REMARK  status: ('A' for Active; 'I' for Inactive)
REMARK    1  A    between atoms: C_1  and  N_2
REMARK    2  A    between atoms: N_2  and  C_3
REMARK    3  A    between atoms: N_2  and  C_4
REMARK    4  A    between atoms: C_4  and  C_5
REMARK    5  A    between atoms: C_5  and  C_6
REMARK    6  A    between atoms: C_6  and  N_7
REMARK    7  A    between atoms: N_7  and  C_8
REMARK    8  A    between atoms: N_11  and  N_12
REMARK    9  A    between atoms: C_13  and  C_14
REMARK                            x       y       z     vdW  Elec       q    Type
REMARK                         _______ _______ _______ _____ _____    ______ ____
ROOT
ATOM      1  C   UNL     1       4.445   4.877  19.050  0.00  0.00    +0.000 A 
ATOM      2  N   UNL     1       4.188   6.084  18.505  0.00  0.00    +0.000 NA
ATOM      3  C   UNL     1       2.968   6.616  18.695  0.00  0.00    +0.000 A 
ATOM      4  N   UNL     1       2.731   7.885  18.129  0.00  0.00    +0.000 N 
ATOM      5  N   UNL     1       1.991   6.003  19.374  0.00  0.00    +0.000 NA
ATOM      6  C   UNL     1       2.238   4.806  19.900  0.00  0.00    +0.000 A 
ATOM      7  C   UNL     1       1.212   4.185  20.599  0.00  0.00    +0.000 A 
ATOM      8  C   UNL     1       1.383   2.942  21.212  0.00  0.00    +0.000 A 
ATOM      9  C   UNL     1       2.607   2.299  21.125  0.00  0.00    +0.000 A 
ATOM     10  C   UNL     1       3.644   2.896  20.409  0.00  0.00    +0.000 A 
ATOM     11  C   UNL     1       3.471   4.164  19.781  0.00  0.00    +0.000 A 
ATOM     12  H   UNL     1       3.614   8.252  17.790  0.00  0.00    +0.000 HD
ENDROOT
BRANCH   1  13
ATOM     13  N   UNL     1       5.705   4.266  18.801  0.00  0.00    +0.000 N 
ATOM     14  H   UNL     1       5.833   3.495  19.448  0.00  0.00    +0.000 HD
BRANCH  13  15
ATOM     15  C   UNL     1       6.849   5.177  18.908  0.00  0.00    +0.000 C 
BRANCH  15  16
ATOM     16  C   UNL     1       7.293   5.583  17.498  0.00  0.00    +0.000 C 
BRANCH  16  17
ATOM     17  C   UNL     1       7.169   4.437  16.487  0.00  0.00    +0.000 C 
BRANCH  17  19
ATOM     18  C   UNL     1       5.531   5.892  15.407  0.00  0.00    +0.000 C 
ATOM     19  N   UNL     1       5.975   4.514  15.627  0.00  0.00    +0.000 NA
ATOM     20  C   UNL     1       6.239   3.871  14.336  0.00  0.00    +0.000 C 
ENDBRANCH  17  19
ENDBRANCH  16  17
ENDBRANCH  15  16
ENDBRANCH  13  15
ENDBRANCH   1  13
BRANCH   4  21
ATOM     21  N   UNL     1       1.830   8.702  18.754  0.00  0.00    +0.000 NA
ATOM     22  C   UNL     1       1.051   9.373  17.969  0.00  0.00    +0.000 C 
BRANCH  22  23
ATOM     23  C   UNL     1       0.019  10.291  18.501  0.00  0.00    +0.000 A 
ATOM     24  C   UNL     1      -1.279  10.300  17.973  0.00  0.00    +0.000 A 
ATOM     25  C   UNL     1      -2.233  11.186  18.483  0.00  0.00    +0.000 A 
ATOM     26  C   UNL     1      -1.883  12.055  19.511  0.00  0.00    +0.000 A 
ATOM     27  F   UNL     1      -2.796  12.907  19.996  0.00  0.00    +0.000 F 
ATOM     28  C   UNL     1      -0.598  12.052  20.045  0.00  0.00    +0.000 A 
ATOM     29  C   UNL     1       0.359  11.166  19.541  0.00  0.00    +0.000 A 
ENDBRANCH  22  23
ENDBRANCH   4  21
TORSDOF 7
ENDMDL
MODEL 7
REMARK VINA RESULT:      -8.0      1.031      1.301
REMARK  Name = 
REMARK  9 active torsions:
REMARK  status: ('A' for Active; 'I' for Inactive)
REMARK    1  A    between atoms: C_1  and  N_2
REMARK    2  A    between atoms: N_2  and  C_3
REMARK    3  A    between atoms: N_2  and  C_4
REMARK    4  A    between atoms: C_4  and  C_5
REMARK    5  A    between atoms: C_5  and  C_6
REMARK    6  A    between atoms: C_6  and  N_7
REMARK    7  A    between atoms: N_7  and  C_8
REMARK    8  A    between atoms: N_11  and  N_12
REMARK    9  A    between atoms: C_13  and  C_14
REMARK                            x       y       z     vdW  Elec       q    Type
REMARK                         _______ _______ _______ _____ _____    ______ ____
ROOT
ATOM      1  C   UNL     1       5.739   4.363  16.760  0.00  0.00    +0.000 A 
ATOM      2  N   UNL     1       6.243   5.231  17.660  0.00  0.00    +0.000 NA
ATOM      3  C   UNL     1       7.147   6.130  17.235  0.00  0.00    +0.000 A 
ATOM      4  N   UNL     1       7.646   7.036  18.193  0.00  0.00    +0.000 N 
ATOM      5  N   UNL     1       7.590   6.193  15.973  0.00  0.00    +0.000 NA
ATOM      6  C   UNL     1       7.104   5.328  15.086  0.00  0.00    +0.000 A 
ATOM      7  C   UNL     1       7.576   5.408  13.783  0.00  0.00    +0.000 A 
ATOM      8  C   UNL     1       7.107   4.564  12.774  0.00  0.00    +0.000 A 
ATOM      9  C   UNL     1       6.143   3.614  13.071  0.00  0.00    +0.000 A 
ATOM     10  C   UNL     1       5.672   3.503  14.379  0.00  0.00    +0.000 A 
ATOM     11  C   UNL     1       6.151   4.362  15.410  0.00  0.00    +0.000 A 
ATOM     12  H   UNL     1       7.095   6.938  19.039  0.00  0.00    +0.000 HD
ENDROOT
BRANCH   1  13
ATOM     13  N   UNL     1       4.834   3.360  17.205  0.00  0.00    +0.000 N 
ATOM     14  H   UNL     1       4.115   3.226  16.502  0.00  0.00    +0.000 HD
BRANCH  13  15
ATOM     15  C   UNL     1       4.199   3.648  18.495  0.00  0.00    +0.000 C 
BRANCH  15  16
ATOM     16  C   UNL     1       2.874   4.376  18.243  0.00  0.00    +0.000 C 
BRANCH  16  17
ATOM     17  C   UNL     1       1.661   3.588  18.752  0.00  0.00    +0.000 C 
BRANCH  17  19
ATOM     18  C   UNL     1       1.298   3.010  21.098  0.00  0.00    +0.000 C 
ATOM     19  N   UNL     1       1.155   4.036  20.062  0.00  0.00    +0.000 NA
ATOM     20  C   UNL     1       1.848   5.258  20.482  0.00  0.00    +0.000 C 
ENDBRANCH  17  19
ENDBRANCH  16  17
ENDBRANCH  15  16
ENDBRANCH  13  15
ENDBRANCH   1  13
BRANCH   4  21
ATOM     21  N   UNL     1       8.040   8.270  17.756  0.00  0.00    +0.000 NA
ATOM     22  C   UNL     1       8.571   9.033  18.655  0.00  0.00    +0.000 C 
BRANCH  22  23
ATOM     23  C   UNL     1       9.055  10.394  18.329  0.00  0.00    +0.000 A 
ATOM     24  C   UNL     1      10.372  10.778  18.614  0.00  0.00    +0.000 A 
ATOM     25  C   UNL     1      10.802  12.074  18.310  0.00  0.00    +0.000 A 
ATOM     26  C   UNL     1       9.915  12.972  17.726  0.00  0.00    +0.000 A 
ATOM     27  F   UNL     1      10.326  14.214  17.438  0.00  0.00    +0.000 F 
ATOM     28  C   UNL     1       8.606  12.599  17.435  0.00  0.00    +0.000 A 
ATOM     29  C   UNL     1       8.172  11.305  17.735  0.00  0.00    +0.000 A 
ENDBRANCH  22  23
ENDBRANCH   4  21
TORSDOF 7
ENDMDL
MODEL 8
REMARK VINA RESULT:      -7.9      4.924      7.546
REMARK  Name = 
REMARK  9 active torsions:
REMARK  status: ('A' for Active; 'I' for Inactive)
REMARK    1  A    between atoms: C_1  and  N_2
REMARK    2  A    between atoms: N_2  and  C_3
REMARK    3  A    between atoms: N_2  and  C_4
REMARK    4  A    between atoms: C_4  and  C_5
REMARK    5  A    between atoms: C_5  and  C_6
REMARK    6  A    between atoms: C_6  and  N_7
REMARK    7  A    between atoms: N_7  and  C_8
REMARK    8  A    between atoms: N_11  and  N_12
REMARK    9  A    between atoms: C_13  and  C_14
REMARK                            x       y       z     vdW  Elec       q    Type
REMARK                         _______ _______ _______ _____ _____    ______ ____
ROOT
ATOM      1  C   UNL     1       4.529   5.155  19.043  0.00  0.00    +0.000 A 
ATOM      2  N   UNL     1       4.294   6.424  18.651  0.00  0.00    +0.000 NA
ATOM      3  C   UNL     1       3.083   6.716  18.147  0.00  0.00    +0.000 A 
ATOM      4  N   UNL     1       2.858   8.053  17.760  0.00  0.00    +0.000 N 
ATOM      5  N   UNL     1       2.107   5.812  17.993  0.00  0.00    +0.000 NA
ATOM      6  C   UNL     1       2.341   4.557  18.367  0.00  0.00    +0.000 A 
ATOM      7  C   UNL     1       1.319   3.633  18.199  0.00  0.00    +0.000 A 
ATOM      8  C   UNL     1       1.457   2.298  18.587  0.00  0.00    +0.000 A 
ATOM      9  C   UNL     1       2.647   1.872  19.156  0.00  0.00    +0.000 A 
ATOM     10  C   UNL     1       3.693   2.779  19.314  0.00  0.00    +0.000 A 
ATOM     11  C   UNL     1       3.555   4.141  18.917  0.00  0.00    +0.000 A 
ATOM     12  H   UNL     1       3.640   8.613  18.085  0.00  0.00    +0.000 HD
ENDROOT
BRANCH   1  13
ATOM     13  N   UNL     1       5.826   4.810  19.512  0.00  0.00    +0.000 N 
ATOM     14  H   UNL     1       5.857   4.929  20.520  0.00  0.00    +0.000 HD
BRANCH  13  15
ATOM     15  C   UNL     1       6.914   5.582  18.903  0.00  0.00    +0.000 C 
BRANCH  15  16
ATOM     16  C   UNL     1       7.691   4.672  17.945  0.00  0.00    +0.000 C 
BRANCH  16  17
ATOM     17  C   UNL     1       7.355   4.942  16.473  0.00  0.00    +0.000 C 
BRANCH  17  19
ATOM     18  C   UNL     1       5.416   5.899  15.337  0.00  0.00    +0.000 C 
ATOM     19  N   UNL     1       5.928   4.786  16.138  0.00  0.00    +0.000 NA
ATOM     20  C   UNL     1       5.712   3.524  15.423  0.00  0.00    +0.000 C 
ENDBRANCH  17  19
ENDBRANCH  16  17
ENDBRANCH  15  16
ENDBRANCH  13  15
ENDBRANCH   1  13
BRANCH   4  21
ATOM     21  N   UNL     1       1.579   8.531  17.834  0.00  0.00    +0.000 NA
ATOM     22  C   UNL     1       1.456   9.708  18.358  0.00  0.00    +0.000 C 
BRANCH  22  23
ATOM     23  C   UNL     1       0.133  10.359  18.496  0.00  0.00    +0.000 A 
ATOM     24  C   UNL     1      -0.056  11.422  19.389  0.00  0.00    +0.000 A 
ATOM     25  C   UNL     1      -1.318  12.012  19.512  0.00  0.00    +0.000 A 
ATOM     26  C   UNL     1      -2.376  11.535  18.748  0.00  0.00    +0.000 A 
ATOM     27  F   UNL     1      -3.586  12.098  18.869  0.00  0.00    +0.000 F 
ATOM     28  C   UNL     1      -2.198  10.482  17.855  0.00  0.00    +0.000 A 
ATOM     29  C   UNL     1      -0.938   9.890  17.725  0.00  0.00    +0.000 A 
ENDBRANCH  22  23
ENDBRANCH   4  21
TORSDOF 7
ENDMDL
MODEL 9
REMARK VINA RESULT:      -7.9      0.724      1.102
REMARK  Name = 
REMARK  9 active torsions:
REMARK  status: ('A' for Active; 'I' for Inactive)
REMARK    1  A    between atoms: C_1  and  N_2
REMARK    2  A    between atoms: N_2  and  C_3
REMARK    3  A    between atoms: N_2  and  C_4
REMARK    4  A    between atoms: C_4  and  C_5
REMARK    5  A    between atoms: C_5  and  C_6
REMARK    6  A    between atoms: C_6  and  N_7
REMARK    7  A    between atoms: N_7  and  C_8
REMARK    8  A    between atoms: N_11  and  N_12
REMARK    9  A    between atoms: C_13  and  C_14
REMARK                            x       y       z     vdW  Elec       q    Type
REMARK                         _______ _______ _______ _____ _____    ______ ____
ROOT
ATOM      1  C   UNL     1       6.184   4.670  18.176  0.00  0.00    +0.000 A 
ATOM      2  N   UNL     1       6.870   5.610  18.858  0.00  0.00    +0.000 NA
ATOM      3  C   UNL     1       7.609   6.487  18.157  0.00  0.00    +0.000 A 
ATOM      4  N   UNL     1       8.302   7.470  18.893  0.00  0.00    +0.000 N 
ATOM      5  N   UNL     1       7.719   6.462  16.823  0.00  0.00    +0.000 NA
ATOM      6  C   UNL     1       7.055   5.527  16.149  0.00  0.00    +0.000 A 
ATOM      7  C   UNL     1       7.183   5.515  14.767  0.00  0.00    +0.000 A 
ATOM      8  C   UNL     1       6.503   4.592  13.969  0.00  0.00    +0.000 A 
ATOM      9  C   UNL     1       5.675   3.654  14.565  0.00  0.00    +0.000 A 
ATOM     10  C   UNL     1       5.551   3.634  15.953  0.00  0.00    +0.000 A 
ATOM     11  C   UNL     1       6.245   4.575  16.769  0.00  0.00    +0.000 A 
ATOM     12  H   UNL     1       7.984   7.428  19.856  0.00  0.00    +0.000 HD
ENDROOT
BRANCH   1  13
ATOM     13  N   UNL     1       5.453   3.691  18.902  0.00  0.00    +0.000 N 
ATOM     14  H   UNL     1       4.896   3.144  18.254  0.00  0.00    +0.000 HD
BRANCH  13  15
ATOM     15  C   UNL     1       4.578   4.239  19.943  0.00  0.00    +0.000 C 
BRANCH  15  16
ATOM     16  C   UNL     1       3.606   3.146  20.401  0.00  0.00    +0.000 C 
BRANCH  16  17
ATOM     17  C   UNL     1       2.293   3.154  19.607  0.00  0.00    +0.000 C 
BRANCH  17  19
ATOM     18  C   UNL     1       2.501   2.155  17.389  0.00  0.00    +0.000 C 
ATOM     19  N   UNL     1       2.460   3.396  18.163  0.00  0.00    +0.000 NA
ATOM     20  C   UNL     1       1.377   4.250  17.666  0.00  0.00    +0.000 C 
ENDBRANCH  17  19
ENDBRANCH  16  17
ENDBRANCH  15  16
ENDBRANCH  13  15
ENDBRANCH   1  13
BRANCH   4  21
ATOM     21  N   UNL     1       8.535   8.673  18.287  0.00  0.00    +0.000 NA
ATOM     22  C   UNL     1       9.159   9.547  19.009  0.00  0.00    +0.000 C 
BRANCH  22  23
ATOM     23  C   UNL     1       9.489  10.891  18.485  0.00  0.00    +0.000 A 
ATOM     24  C   UNL     1      10.810  11.358  18.481  0.00  0.00    +0.000 A 
ATOM     25  C   UNL     1      11.095  12.637  17.993  0.00  0.00    +0.000 A 
ATOM     26  C   UNL     1      10.063  13.437  17.517  0.00  0.00    +0.000 A 
ATOM     27  F   UNL     1      10.336  14.664  17.054  0.00  0.00    +0.000 F 
ATOM     28  C   UNL     1       8.747  12.981  17.512  0.00  0.00    +0.000 A 
ATOM     29  C   UNL     1       8.456  11.702  17.996  0.00  0.00    +0.000 A 
ENDBRANCH  22  23
ENDBRANCH   4  21
TORSDOF 7
ENDMDL
