MODEL 1
REMARK VINA RESULT:      -8.2      0.000      0.000
REMARK  Name = 
REMARK  5 active torsions:
REMARK  status: ('A' for Active; 'I' for Inactive)
REMARK    1  A    between atoms: C_2  and  O_17
REMARK    2  A    between atoms: N_3  and  C_4
REMARK    3  A    between atoms: C_9  and  C_10
REMARK    4  A    between atoms: O_17  and  C_18
REMARK    5  A    between atoms: C_18  and  C_19
REMARK                            x       y       z     vdW  Elec       q    Type
REMARK                         _______ _______ _______ _____ _____    ______ ____
ROOT
ATOM      1  O   UNL     1       8.211   7.069  18.629  0.00  0.00    +0.000 OA
ATOM      2  C   UNL     1       7.636   7.856  17.891  0.00  0.00    +0.000 C 
ATOM      3  N   UNL     1       6.612   7.558  17.030  0.00  0.00    +0.000 N 
ATOM      4  H   UNL     1       6.240   8.340  16.516  0.00  0.00    +0.000 HD
ENDROOT
BRANCH   3   5
ATOM      5  C   UNL     1       6.229   6.259  16.646  0.00  0.00    +0.000 A 
ATOM      6  C   UNL     1       7.127   5.578  15.806  0.00  0.00    +0.000 A 
ATOM      7  C   UNL     1       6.826   4.317  15.304  0.00  0.00    +0.000 A 
ATOM      8  C   UNL     1       5.629   3.714  15.655  0.00  0.00    +0.000 A 
ATOM      9  C   UNL     1       4.725   4.386  16.485  0.00  0.00    +0.000 A 
ATOM     10  C   UNL     1       4.977   5.684  17.000  0.00  0.00    +0.000 A 
BRANCH  10  11
ATOM     11  C   UNL     1       3.973   6.298  17.930  0.00  0.00    +0.000 A 
ATOM     12  C   UNL     1       3.647   5.693  19.168  0.00  0.00    +0.000 A 
ATOM     13  C   UNL     1       2.722   6.258  20.058  0.00  0.00    +0.000 A 
ATOM     14  C   UNL     1       2.116   7.466  19.745  0.00  0.00    +0.000 A 
ATOM     15 CL   UNL     1       1.017   8.197  20.849  0.00  0.00    +0.000 Cl
ATOM     16  C   UNL     1       2.395   8.084  18.538  0.00  0.00    +0.000 A 
ATOM     17  C   UNL     1       3.290   7.491  17.634  0.00  0.00    +0.000 A 
ENDBRANCH  10  11
ENDBRANCH   3   5
BRANCH   2  18
ATOM     18  O   UNL     1       7.881   9.188  17.830  0.00  0.00    +0.000 OA
BRANCH  18  19
ATOM     19  C   UNL     1       8.973   9.688  18.628  0.00  0.00    +0.000 C 
BRANCH  19  20
ATOM     20  C   UNL     1       9.195  11.201  18.441  0.00  0.00    +0.000 C 
ATOM     21  C   UNL     1      10.559  11.546  17.821  0.00  0.00    +0.000 C 
ATOM     22  C   UNL     1      11.716  11.362  18.806  0.00  0.00    +0.000 C 
ATOM     23  N   UNL     1      11.508  12.130  20.037  0.00  0.00    +0.000 NA
ATOM     24  C   UNL     1      10.262  11.744  20.698  0.00  0.00    +0.000 C 
ATOM     25  C   UNL     1       9.055  11.946  19.783  0.00  0.00    +0.000 C 
ATOM     26  H   UNL     1      11.469  13.123  19.806  0.00  0.00    +0.000 HD
ENDBRANCH  19  20
ENDBRANCH  18  19
ENDBRANCH   2  18
TORSDOF 5
ENDMDL
MODEL 2
REMARK VINA RESULT:      -8.0      4.796      7.414
REMARK  Name = 
REMARK  5 active torsions:
REMARK  status: ('A' for Active; 'I' for Inactive)
REMARK    1  A    between atoms: C_2  and  O_17
REMARK    2  A    between atoms: N_3  and  C_4
REMARK    3  A    between atoms: C_9  and  C_10
REMARK    4  A    between atoms: O_17  and  C_18
REMARK    5  A    between atoms: C_18  and  C_19
REMARK                            x       y       z     vdW  Elec       q    Type
REMARK                         _______ _______ _______ _____ _____    ______ ____
ROOT
ATOM      1  O   UNL     1       1.828   7.457  18.670  0.00  0.00    +0.000 OA
ATOM      2  C   UNL     1       1.955   7.151  19.846  0.00  0.00    +0.000 C 
ATOM      3  N   UNL     1       2.264   5.906  20.332  0.00  0.00    +0.000 N 
ATOM      4  H   UNL     1       2.355   5.845  21.333  0.00  0.00    +0.000 HD
ENDROOT
BRANCH   3   5
ATOM      5  C   UNL     1       2.220   4.713  19.586  0.00  0.00    +0.000 A 
ATOM      6  C   UNL     1       1.102   3.891  19.811  0.00  0.00    +0.000 A 
ATOM      7  C   UNL     1       0.983   2.655  19.187  0.00  0.00    +0.000 A 
ATOM      8  C   UNL     1       1.972   2.237  18.311  0.00  0.00    +0.000 A 
ATOM      9  C   UNL     1       3.092   3.046  18.085  0.00  0.00    +0.000 A 
ATOM     10  C   UNL     1       3.270   4.302  18.720  0.00  0.00    +0.000 A 
BRANCH  10  11
ATOM     11  C   UNL     1       4.475   5.122  18.367  0.00  0.00    +0.000 A 
ATOM     12  C   UNL     1       4.473   5.997  17.253  0.00  0.00    +0.000 A 
ATOM     13  C   UNL     1       5.585   6.783  16.916  0.00  0.00    +0.000 A 
ATOM     14  C   UNL     1       6.724   6.738  17.705  0.00  0.00    +0.000 A 
ATOM     15 CL   UNL     1       8.077   7.734  17.333  0.00  0.00    +0.000 Cl
ATOM     16  C   UNL     1       6.774   5.886  18.795  0.00  0.00    +0.000 A 
ATOM     17  C   UNL     1       5.673   5.070  19.102  0.00  0.00    +0.000 A 
ENDBRANCH  10  11
ENDBRANCH   3   5
BRANCH   2  18
ATOM     18  O   UNL     1       1.861   8.012  20.889  0.00  0.00    +0.000 OA
BRANCH  18  19
ATOM     19  C   UNL     1       1.347   9.329  20.605  0.00  0.00    +0.000 C 
BRANCH  19  20
ATOM     20  C   UNL     1      -0.172   9.433  20.835  0.00  0.00    +0.000 C 
ATOM     21  C   UNL     1      -0.709  10.870  20.738  0.00  0.00    +0.000 C 
ATOM     22  C   UNL     1      -0.331  11.720  21.954  0.00  0.00    +0.000 C 
ATOM     23  N   UNL     1      -0.768  11.098  23.207  0.00  0.00    +0.000 NA
ATOM     24  C   UNL     1      -0.187   9.766  23.368  0.00  0.00    +0.000 C 
ATOM     25  C   UNL     1      -0.562   8.847  22.206  0.00  0.00    +0.000 C 
ATOM     26  H   UNL     1      -1.785  11.020  23.203  0.00  0.00    +0.000 HD
ENDBRANCH  19  20
ENDBRANCH  18  19
ENDBRANCH   2  18
TORSDOF 5
ENDMDL
MODEL 3
REMARK VINA RESULT:      -7.9      0.711      1.371
REMARK  Name = 
REMARK  5 active torsions:
REMARK  status: ('A' for Active; 'I' for Inactive)
REMARK    1  A    between atoms: C_2  and  O_17
REMARK    2  A    between atoms: N_3  and  C_4
REMARK    3  A    between atoms: C_9  and  C_10
REMARK    4  A    between atoms: O_17  and  C_18
REMARK    5  A    between atoms: C_18  and  C_19
REMARK                            x       y       z     vdW  Elec       q    Type
REMARK                         _______ _______ _______ _____ _____    ______ ____
ROOT
ATOM      1  O   UNL     1       8.289   7.196  18.583  0.00  0.00    +0.000 OA
ATOM      2  C   UNL     1       7.705   7.952  17.820  0.00  0.00    +0.000 C 
ATOM      3  N   UNL     1       6.623   7.639  17.039  0.00  0.00    +0.000 N 
ATOM      4  H   UNL     1       6.254   8.398  16.490  0.00  0.00    +0.000 HD
ENDROOT
BRANCH   3   5
ATOM      5  C   UNL     1       6.167   6.334  16.774  0.00  0.00    +0.000 A 
ATOM      6  C   UNL     1       7.060   5.503  16.076  0.00  0.00    +0.000 A 
ATOM      7  C   UNL     1       6.695   4.216  15.694  0.00  0.00    +0.000 A 
ATOM      8  C   UNL     1       5.438   3.739  16.028  0.00  0.00    +0.000 A 
ATOM      9  C   UNL     1       4.539   4.561  16.717  0.00  0.00    +0.000 A 
ATOM     10  C   UNL     1       4.857   5.889  17.104  0.00  0.00    +0.000 A 
BRANCH  10  11
ATOM     11  C   UNL     1       3.848   6.670  17.892  0.00  0.00    +0.000 A 
ATOM     12  C   UNL     1       3.328   7.898  17.413  0.00  0.00    +0.000 A 
ATOM     13  C   UNL     1       2.373   8.636  18.128  0.00  0.00    +0.000 A 
ATOM     14  C   UNL     1       1.888   8.149  19.333  0.00  0.00    +0.000 A 
ATOM     15 CL   UNL     1       0.680   9.019  20.196  0.00  0.00    +0.000 Cl
ATOM     16  C   UNL     1       2.380   6.961  19.844  0.00  0.00    +0.000 A 
ATOM     17  C   UNL     1       3.367   6.248  19.144  0.00  0.00    +0.000 A 
ENDBRANCH  10  11
ENDBRANCH   3   5
BRANCH   2  18
ATOM     18  O   UNL     1       8.000   9.264  17.648  0.00  0.00    +0.000 OA
BRANCH  18  19
ATOM     19  C   UNL     1       8.817   9.889  18.657  0.00  0.00    +0.000 C 
BRANCH  19  20
ATOM     20  C   UNL     1       9.725  10.993  18.083  0.00  0.00    +0.000 C 
ATOM     21  C   UNL     1      11.002  11.224  18.907  0.00  0.00    +0.000 C 
ATOM     22  C   UNL     1      10.726  11.951  20.226  0.00  0.00    +0.000 C 
ATOM     23  N   UNL     1      10.023  13.219  20.010  0.00  0.00    +0.000 NA
ATOM     24  C   UNL     1       8.753  13.010  19.314  0.00  0.00    +0.000 C 
ATOM     25  C   UNL     1       8.960  12.325  17.963  0.00  0.00    +0.000 C 
ATOM     26  H   UNL     1      10.613  13.834  19.449  0.00  0.00    +0.000 HD
ENDBRANCH  19  20
ENDBRANCH  18  19
ENDBRANCH   2  18
TORSDOF 5
ENDMDL
MODEL 4
REMARK VINA RESULT:      -7.6      3.293      5.229
REMARK  Name = 
REMARK  5 active torsions:
REMARK  status: ('A' for Active; 'I' for Inactive)
REMARK    1  A    between atoms: C_2  and  O_17
REMARK    2  A    between atoms: N_3  and  C_4
REMARK    3  A    between atoms: C_9  and  C_10
REMARK    4  A    between atoms: O_17  and  C_18
REMARK    5  A    between atoms: C_18  and  C_19
REMARK                            x       y       z     vdW  Elec       q    Type
REMARK                         _______ _______ _______ _____ _____    ______ ____
ROOT
ATOM      1  O   UNL     1       2.992   3.243  16.830  0.00  0.00    +0.000 OA
ATOM      2  C   UNL     1       3.871   4.018  17.179  0.00  0.00    +0.000 C 
ATOM      3  N   UNL     1       4.210   4.331  18.470  0.00  0.00    +0.000 N 
ATOM      4  H   UNL     1       4.980   4.972  18.569  0.00  0.00    +0.000 HD
ENDROOT
BRANCH   3   5
ATOM      5  C   UNL     1       3.435   4.030  19.605  0.00  0.00    +0.000 A 
ATOM      6  C   UNL     1       3.627   2.752  20.158  0.00  0.00    +0.000 A 
ATOM      7  C   UNL     1       2.868   2.314  21.237  0.00  0.00    +0.000 A 
ATOM      8  C   UNL     1       1.922   3.162  21.791  0.00  0.00    +0.000 A 
ATOM      9  C   UNL     1       1.719   4.434  21.244  0.00  0.00    +0.000 A 
ATOM     10  C   UNL     1       2.450   4.914  20.127  0.00  0.00    +0.000 A 
BRANCH  10  11
ATOM     11  C   UNL     1       2.202   6.314  19.651  0.00  0.00    +0.000 A 
ATOM     12  C   UNL     1       1.736   7.322  20.531  0.00  0.00    +0.000 A 
ATOM     13  C   UNL     1       1.511   8.640  20.109  0.00  0.00    +0.000 A 
ATOM     14  C   UNL     1       1.777   8.996  18.795  0.00  0.00    +0.000 A 
ATOM     15 CL   UNL     1       1.554  10.621  18.275  0.00  0.00    +0.000 Cl
ATOM     16  C   UNL     1       2.219   8.039  17.898  0.00  0.00    +0.000 A 
ATOM     17  C   UNL     1       2.401   6.712  18.317  0.00  0.00    +0.000 A 
ENDBRANCH  10  11
ENDBRANCH   3   5
BRANCH   2  18
ATOM     18  O   UNL     1       4.708   4.674  16.338  0.00  0.00    +0.000 OA
BRANCH  18  19
ATOM     19  C   UNL     1       5.420   5.806  16.876  0.00  0.00    +0.000 C 
BRANCH  19  20
ATOM     20  C   UNL     1       6.946   5.676  16.713  0.00  0.00    +0.000 C 
ATOM     21  C   UNL     1       7.616   4.873  17.840  0.00  0.00    +0.000 C 
ATOM     22  C   UNL     1       7.688   5.654  19.154  0.00  0.00    +0.000 C 
ATOM     23  N   UNL     1       8.361   6.945  18.982  0.00  0.00    +0.000 NA
ATOM     24  C   UNL     1       7.679   7.769  17.983  0.00  0.00    +0.000 C 
ATOM     25  C   UNL     1       7.610   7.065  16.629  0.00  0.00    +0.000 C 
ATOM     26  H   UNL     1       9.321   6.781  18.680  0.00  0.00    +0.000 HD
ENDBRANCH  19  20
ENDBRANCH  18  19
ENDBRANCH   2  18
TORSDOF 5
ENDMDL
MODEL 5
REMARK VINA RESULT:      -7.6      3.577      5.162
REMARK  Name = 
REMARK  5 active torsions:
REMARK  status: ('A' for Active; 'I' for Inactive)
REMARK    1  A    between atoms: C_2  and  O_17
REMARK    2  A    between atoms: N_3  and  C_4
REMARK    3  A    between atoms: C_9  and  C_10
REMARK    4  A    between atoms: O_17  and  C_18
REMARK    5  A    between atoms: C_18  and  C_19
REMARK                            x       y       z     vdW  Elec       q    Type
REMARK                         _______ _______ _______ _____ _____    ______ ____
ROOT
ATOM      1  O   UNL     1       3.564   4.086  16.660  0.00  0.00    +0.000 OA
ATOM      2  C   UNL     1       4.122   5.066  17.132  0.00  0.00    +0.000 C 
ATOM      3  N   UNL     1       4.206   5.389  18.462  0.00  0.00    +0.000 N 
ATOM      4  H   UNL     1       4.730   6.223  18.670  0.00  0.00    +0.000 HD
ENDROOT
BRANCH   3   5
ATOM      5  C   UNL     1       3.437   4.804  19.486  0.00  0.00    +0.000 A 
ATOM      6  C   UNL     1       3.767   3.479  19.820  0.00  0.00    +0.000 A 
ATOM      7  C   UNL     1       3.033   2.773  20.766  0.00  0.00    +0.000 A 
ATOM      8  C   UNL     1       1.973   3.394  21.406  0.00  0.00    +0.000 A 
ATOM      9  C   UNL     1       1.632   4.711  21.077  0.00  0.00    +0.000 A 
ATOM     10  C   UNL     1       2.335   5.462  20.099  0.00  0.00    +0.000 A 
BRANCH  10  11
ATOM     11  C   UNL     1       1.932   6.887  19.858  0.00  0.00    +0.000 A 
ATOM     12  C   UNL     1       1.361   7.676  20.886  0.00  0.00    +0.000 A 
ATOM     13  C   UNL     1       0.991   9.014  20.685  0.00  0.00    +0.000 A 
ATOM     14  C   UNL     1       1.211   9.611  19.453  0.00  0.00    +0.000 A 
ATOM     15 CL   UNL     1       0.809  11.266  19.206  0.00  0.00    +0.000 Cl
ATOM     16  C   UNL     1       1.754   8.871  18.416  0.00  0.00    +0.000 A 
ATOM     17  C   UNL     1       2.083   7.521  18.612  0.00  0.00    +0.000 A 
ENDBRANCH  10  11
ENDBRANCH   3   5
BRANCH   2  18
ATOM     18  O   UNL     1       4.810   5.990  16.417  0.00  0.00    +0.000 OA
BRANCH  18  19
ATOM     19  C   UNL     1       5.562   6.968  17.163  0.00  0.00    +0.000 C 
BRANCH  19  20
ATOM     20  C   UNL     1       7.080   6.843  16.938  0.00  0.00    +0.000 C 
ATOM     21  C   UNL     1       7.496   5.507  16.300  0.00  0.00    +0.000 C 
ATOM     22  C   UNL     1       7.409   4.336  17.283  0.00  0.00    +0.000 C 
ATOM     23  N   UNL     1       8.194   4.586  18.496  0.00  0.00    +0.000 NA
ATOM     24  C   UNL     1       7.746   5.803  19.174  0.00  0.00    +0.000 C 
ATOM     25  C   UNL     1       7.848   7.024  18.261  0.00  0.00    +0.000 C 
ATOM     26  H   UNL     1       9.176   4.689  18.240  0.00  0.00    +0.000 HD
ENDBRANCH  19  20
ENDBRANCH  18  19
ENDBRANCH   2  18
TORSDOF 5
ENDMDL
MODEL 6
REMARK VINA RESULT:      -7.6      4.815      7.395
REMARK  Name = 
REMARK  5 active torsions:
REMARK  status: ('A' for Active; 'I' for Inactive)
REMARK    1  A    between atoms: C_2  and  O_17
REMARK    2  A    between atoms: N_3  and  C_4
REMARK    3  A    between atoms: C_9  and  C_10
REMARK    4  A    between atoms: O_17  and  C_18
REMARK    5  A    between atoms: C_18  and  C_19
REMARK                            x       y       z     vdW  Elec       q    Type
REMARK                         _______ _______ _______ _____ _____    ______ ____
ROOT
ATOM      1  O   UNL     1       1.880   7.467  18.650  0.00  0.00    +0.000 OA
ATOM      2  C   UNL     1       1.951   7.222  19.846  0.00  0.00    +0.000 C 
ATOM      3  N   UNL     1       2.205   5.997  20.409  0.00  0.00    +0.000 N 
ATOM      4  H   UNL     1       2.253   5.988  21.414  0.00  0.00    +0.000 HD
ENDROOT
BRANCH   3   5
ATOM      5  C   UNL     1       2.155   4.767  19.726  0.00  0.00    +0.000 A 
ATOM      6  C   UNL     1       1.037   3.960  19.999  0.00  0.00    +0.000 A 
ATOM      7  C   UNL     1       0.913   2.693  19.440  0.00  0.00    +0.000 A 
ATOM      8  C   UNL     1       1.898   2.229  18.582  0.00  0.00    +0.000 A 
ATOM      9  C   UNL     1       3.018   3.022  18.310  0.00  0.00    +0.000 A 
ATOM     10  C   UNL     1       3.201   4.310  18.877  0.00  0.00    +0.000 A 
BRANCH  10  11
ATOM     11  C   UNL     1       4.406   5.109  18.478  0.00  0.00    +0.000 A 
ATOM     12  C   UNL     1       4.389   5.949  17.337  0.00  0.00    +0.000 A 
ATOM     13  C   UNL     1       5.501   6.715  16.955  0.00  0.00    +0.000 A 
ATOM     14  C   UNL     1       6.654   6.684  17.724  0.00  0.00    +0.000 A 
ATOM     15 CL   UNL     1       8.008   7.657  17.296  0.00  0.00    +0.000 Cl
ATOM     16  C   UNL     1       6.718   5.866  18.839  0.00  0.00    +0.000 A 
ATOM     17  C   UNL     1       5.617   5.069  19.191  0.00  0.00    +0.000 A 
ENDBRANCH  10  11
ENDBRANCH   3   5
BRANCH   2  18
ATOM     18  O   UNL     1       1.841   8.141  20.836  0.00  0.00    +0.000 OA
BRANCH  18  19
ATOM     19  C   UNL     1       0.651   8.955  20.844  0.00  0.00    +0.000 C 
BRANCH  19  20
ATOM     20  C   UNL     1       0.884  10.347  20.228  0.00  0.00    +0.000 C 
ATOM     21  C   UNL     1       0.417  11.500  21.131  0.00  0.00    +0.000 C 
ATOM     22  C   UNL     1      -1.107  11.629  21.180  0.00  0.00    +0.000 C 
ATOM     23  N   UNL     1      -1.682  11.769  19.838  0.00  0.00    +0.000 NA
ATOM     24  C   UNL     1      -1.334  10.629  18.991  0.00  0.00    +0.000 C 
ATOM     25  C   UNL     1       0.181  10.468  18.862  0.00  0.00    +0.000 C 
ATOM     26  H   UNL     1      -1.325  12.623  19.411  0.00  0.00    +0.000 HD
ENDBRANCH  19  20
ENDBRANCH  18  19
ENDBRANCH   2  18
TORSDOF 5
ENDMDL
MODEL 7
REMARK VINA RESULT:      -7.5      5.194      7.308
REMARK  Name = 
REMARK  5 active torsions:
REMARK  status: ('A' for Active; 'I' for Inactive)
REMARK    1  A    between atoms: C_2  and  O_17
REMARK    2  A    between atoms: N_3  and  C_4
REMARK    3  A    between atoms: C_9  and  C_10
REMARK    4  A    between atoms: O_17  and  C_18
REMARK    5  A    between atoms: C_18  and  C_19
REMARK                            x       y       z     vdW  Elec       q    Type
REMARK                         _______ _______ _______ _____ _____    ______ ____
ROOT
ATOM      1  O   UNL     1       1.950   6.284  17.690  0.00  0.00    +0.000 OA
ATOM      2  C   UNL     1       2.487   6.900  18.600  0.00  0.00    +0.000 C 
ATOM      3  N   UNL     1       3.137   6.354  19.676  0.00  0.00    +0.000 N 
ATOM      4  H   UNL     1       3.543   7.017  20.316  0.00  0.00    +0.000 HD
ENDROOT
BRANCH   3   5
ATOM      5  C   UNL     1       3.065   5.003  20.064  0.00  0.00    +0.000 A 
ATOM      6  C   UNL     1       2.213   4.720  21.146  0.00  0.00    +0.000 A 
ATOM      7  C   UNL     1       2.114   3.434  21.665  0.00  0.00    +0.000 A 
ATOM      8  C   UNL     1       2.851   2.410  21.091  0.00  0.00    +0.000 A 
ATOM      9  C   UNL     1       3.706   2.683  20.018  0.00  0.00    +0.000 A 
ATOM     10  C   UNL     1       3.861   3.983  19.472  0.00  0.00    +0.000 A 
BRANCH  10  11
ATOM     11  C   UNL     1       4.757   4.164  18.283  0.00  0.00    +0.000 A 
ATOM     12  C   UNL     1       4.292   3.931  16.966  0.00  0.00    +0.000 A 
ATOM     13  C   UNL     1       5.111   4.108  15.840  0.00  0.00    +0.000 A 
ATOM     14  C   UNL     1       6.414   4.554  16.001  0.00  0.00    +0.000 A 
ATOM     15 CL   UNL     1       7.413   4.824  14.627  0.00  0.00    +0.000 Cl
ATOM     16  C   UNL     1       6.913   4.780  17.272  0.00  0.00    +0.000 A 
ATOM     17  C   UNL     1       6.102   4.560  18.396  0.00  0.00    +0.000 A 
ENDBRANCH  10  11
ENDBRANCH   3   5
BRANCH   2  18
ATOM     18  O   UNL     1       2.577   8.251  18.678  0.00  0.00    +0.000 OA
BRANCH  18  19
ATOM     19  C   UNL     1       1.427   8.955  19.188  0.00  0.00    +0.000 C 
BRANCH  19  20
ATOM     20  C   UNL     1       1.020  10.144  18.299  0.00  0.00    +0.000 C 
ATOM     21  C   UNL     1       1.362  11.512  18.912  0.00  0.00    +0.000 C 
ATOM     22  C   UNL     1       0.433  11.886  20.068  0.00  0.00    +0.000 C 
ATOM     23  N   UNL     1      -0.976  11.848  19.666  0.00  0.00    +0.000 NA
ATOM     24  C   UNL     1      -1.351  10.523  19.173  0.00  0.00    +0.000 C 
ATOM     25  C   UNL     1      -0.488  10.103  17.983  0.00  0.00    +0.000 C 
ATOM     26  H   UNL     1      -1.129  12.534  18.927  0.00  0.00    +0.000 HD
ENDBRANCH  19  20
ENDBRANCH  18  19
ENDBRANCH   2  18
TORSDOF 5
ENDMDL
MODEL 8
REMARK VINA RESULT:      -7.5      5.205      7.336
REMARK  Name = 
REMARK  5 active torsions:
REMARK  status: ('A' for Active; 'I' for Inactive)
REMARK    1  A    between atoms: C_2  and  O_17
REMARK    2  A    between atoms: N_3  and  C_4
REMARK    3  A    between atoms: C_9  and  C_10
REMARK    4  A    between atoms: O_17  and  C_18
REMARK    5  A    between atoms: C_18  and  C_19
REMARK                            x       y       z     vdW  Elec       q    Type
REMARK                         _______ _______ _______ _____ _____    ______ ____
ROOT
ATOM      1  O   UNL     1       1.740   6.112  17.880  0.00  0.00    +0.000 OA
ATOM      2  C   UNL     1       2.242   6.731  18.807  0.00  0.00    +0.000 C 
ATOM      3  N   UNL     1       2.951   6.194  19.851  0.00  0.00    +0.000 N 
ATOM      4  H   UNL     1       3.316   6.861  20.511  0.00  0.00    +0.000 HD
ENDROOT
BRANCH   3   5
ATOM      5  C   UNL     1       2.991   4.827  20.183  0.00  0.00    +0.000 A 
ATOM      6  C   UNL     1       2.187   4.437  21.268  0.00  0.00    +0.000 A 
ATOM      7  C   UNL     1       2.197   3.127  21.735  0.00  0.00    +0.000 A 
ATOM      8  C   UNL     1       2.997   2.187  21.105  0.00  0.00    +0.000 A 
ATOM      9  C   UNL     1       3.806   2.567  20.028  0.00  0.00    +0.000 A 
ATOM     10  C   UNL     1       3.849   3.897  19.534  0.00  0.00    +0.000 A 
BRANCH  10  11
ATOM     11  C   UNL     1       4.703   4.193  18.338  0.00  0.00    +0.000 A 
ATOM     12  C   UNL     1       6.017   4.705  18.477  0.00  0.00    +0.000 A 
ATOM     13  C   UNL     1       6.837   4.975  17.371  0.00  0.00    +0.000 A 
ATOM     14  C   UNL     1       6.374   4.710  16.091  0.00  0.00    +0.000 A 
ATOM     15 CL   UNL     1       7.386   4.989  14.728  0.00  0.00    +0.000 Cl
ATOM     16  C   UNL     1       5.091   4.223  15.909  0.00  0.00    +0.000 A 
ATOM     17  C   UNL     1       4.260   3.995  17.018  0.00  0.00    +0.000 A 
ENDBRANCH  10  11
ENDBRANCH   3   5
BRANCH   2  18
ATOM     18  O   UNL     1       2.229   8.080  18.939  0.00  0.00    +0.000 OA
BRANCH  18  19
ATOM     19  C   UNL     1       1.843   8.608  20.225  0.00  0.00    +0.000 C 
BRANCH  19  20
ATOM     20  C   UNL     1       0.358   9.010  20.276  0.00  0.00    +0.000 C 
ATOM     21  C   UNL     1       0.120  10.504  19.999  0.00  0.00    +0.000 C 
ATOM     22  C   UNL     1       0.540  11.392  21.172  0.00  0.00    +0.000 C 
ATOM     23  N   UNL     1      -0.123  10.994  22.418  0.00  0.00    +0.000 NA
ATOM     24  C   UNL     1       0.174   9.602  22.754  0.00  0.00    +0.000 C 
ATOM     25  C   UNL     1      -0.262   8.651  21.640  0.00  0.00    +0.000 C 
ATOM     26  H   UNL     1      -1.131  11.104  22.308  0.00  0.00    +0.000 HD
ENDBRANCH  19  20
ENDBRANCH  18  19
ENDBRANCH   2  18
TORSDOF 5
ENDMDL
MODEL 9
REMARK VINA RESULT:      -7.5      4.939      6.673
REMARK  Name = 
REMARK  5 active torsions:
REMARK  status: ('A' for Active; 'I' for Inactive)
REMARK    1  A    between atoms: C_2  and  O_17
REMARK    2  A    between atoms: N_3  and  C_4
REMARK    3  A    between atoms: C_9  and  C_10
REMARK    4  A    between atoms: O_17  and  C_18
REMARK    5  A    between atoms: C_18  and  C_19
REMARK                            x       y       z     vdW  Elec       q    Type
REMARK                         _______ _______ _______ _____ _____    ______ ____
ROOT
ATOM      1  O   UNL     1       1.986   8.466  17.225  0.00  0.00    +0.000 OA
ATOM      2  C   UNL     1       2.342   8.152  18.351  0.00  0.00    +0.000 C 
ATOM      3  N   UNL     1       3.337   7.264  18.669  0.00  0.00    +0.000 N 
ATOM      4  H   UNL     1       3.512   7.148  19.654  0.00  0.00    +0.000 HD
ENDROOT
BRANCH   3   5
ATOM      5  C   UNL     1       3.934   6.361  17.769  0.00  0.00    +0.000 A 
ATOM      6  C   UNL     1       4.666   6.938  16.717  0.00  0.00    +0.000 A 
ATOM      7  C   UNL     1       5.240   6.150  15.725  0.00  0.00    +0.000 A 
ATOM      8  C   UNL     1       5.107   4.772  15.790  0.00  0.00    +0.000 A 
ATOM      9  C   UNL     1       4.375   4.189  16.830  0.00  0.00    +0.000 A 
ATOM     10  C   UNL     1       3.749   4.953  17.849  0.00  0.00    +0.000 A 
BRANCH  10  11
ATOM     11  C   UNL     1       3.036   4.233  18.954  0.00  0.00    +0.000 A 
ATOM     12  C   UNL     1       3.727   3.367  19.837  0.00  0.00    +0.000 A 
ATOM     13  C   UNL     1       3.082   2.695  20.886  0.00  0.00    +0.000 A 
ATOM     14  C   UNL     1       1.727   2.896  21.100  0.00  0.00    +0.000 A 
ATOM     15 CL   UNL     1       0.932   2.119  22.413  0.00  0.00    +0.000 Cl
ATOM     16  C   UNL     1       1.010   3.723  20.252  0.00  0.00    +0.000 A 
ATOM     17  C   UNL     1       1.654   4.359  19.179  0.00  0.00    +0.000 A 
ENDBRANCH  10  11
ENDBRANCH   3   5
BRANCH   2  18
ATOM     18  O   UNL     1       1.841   8.672  19.499  0.00  0.00    +0.000 OA
BRANCH  18  19
ATOM     19  C   UNL     1       1.041   9.866  19.382  0.00  0.00    +0.000 C 
BRANCH  19  20
ATOM     20  C   UNL     1      -0.310   9.745  20.111  0.00  0.00    +0.000 C 
ATOM     21  C   UNL     1      -0.882  11.098  20.566  0.00  0.00    +0.000 C 
ATOM     22  C   UNL     1      -0.132  11.677  21.768  0.00  0.00    +0.000 C 
ATOM     23  N   UNL     1      -0.099  10.736  22.892  0.00  0.00    +0.000 NA
ATOM     24  C   UNL     1       0.534   9.475  22.507  0.00  0.00    +0.000 C 
ATOM     25  C   UNL     1      -0.193   8.817  21.335  0.00  0.00    +0.000 C 
ATOM     26  H   UNL     1      -1.054  10.550  23.197  0.00  0.00    +0.000 HD
ENDBRANCH  19  20
ENDBRANCH  18  19
ENDBRANCH   2  18
TORSDOF 5
ENDMDL
