MODEL 1
REMARK VINA RESULT:      -7.2      0.000      0.000
REMARK  Name = 
REMARK  5 active torsions:
REMARK  status: ('A' for Active; 'I' for Inactive)
REMARK    1  A    between atoms: C_1  and  C_2
REMARK    2  A    between atoms: C_2  and  C_4
REMARK    3  A    between atoms: C_5  and  O_6
REMARK    4  A    between atoms: N_9  and  C_10
REMARK    5  A    between atoms: C_17  and  C_18
REMARK                            x       y       z     vdW  Elec       q    Type
REMARK                         _______ _______ _______ _____ _____    ______ ____
ROOT
ATOM      1  C   UNL     1       3.679   3.147  19.645  0.00  0.00    +0.000 C 
ATOM      2  C   UNL     1       3.060   3.373  20.811  0.00  0.00    +0.000 C 
ATOM      3  C   UNL     1       2.593   4.780  20.801  0.00  0.00    +0.000 C 
ATOM      4  O   UNL     1       1.986   5.294  21.724  0.00  0.00    +0.000 OA
ATOM      5  N   UNL     1       2.939   5.311  19.553  0.00  0.00    +0.000 N 
ATOM      6  C   UNL     1       3.708   4.356  18.758  0.00  0.00    +0.000 C 
ENDROOT
BRANCH   5   7
ATOM      7  C   UNL     1       2.593   6.616  19.106  0.00  0.00    +0.000 A 
ATOM      8  C   UNL     1       2.940   7.057  17.821  0.00  0.00    +0.000 A 
ATOM      9  C   UNL     1       2.596   8.337  17.374  0.00  0.00    +0.000 A 
ATOM     10  C   UNL     1       1.908   9.208  18.211  0.00  0.00    +0.000 A 
ATOM     11  C   UNL     1       1.567   8.788  19.492  0.00  0.00    +0.000 A 
ATOM     12 BR   UNL     1       0.664   9.974  20.657  0.00  0.00    +0.000 Br
ATOM     13  C   UNL     1       1.897   7.504  19.935  0.00  0.00    +0.000 A 
ENDBRANCH   5   7
BRANCH   6  14
ATOM     14  C   UNL     1       5.122   4.865  18.483  0.00  0.00    +0.000 A 
ATOM     15  C   UNL     1       5.926   5.305  19.558  0.00  0.00    +0.000 A 
ATOM     16  C   UNL     1       7.217   5.793  19.352  0.00  0.00    +0.000 A 
ATOM     17  C   UNL     1       7.735   5.865  18.065  0.00  0.00    +0.000 A 
ATOM     18  C   UNL     1       6.964   5.439  16.986  0.00  0.00    +0.000 A 
ATOM     19  C   UNL     1       5.673   4.935  17.189  0.00  0.00    +0.000 A 
ATOM     20 CL   UNL     1       4.827   4.389  15.784  0.00  0.00    +0.000 Cl
ENDBRANCH   6  14
BRANCH   1  22
ATOM     21  C   UNL     1       3.785   1.115  18.068  0.00  0.00    +0.000 C 
ATOM     22  C   UNL     1       4.221   1.812  19.324  0.00  0.00    +0.000 C 
ATOM     23  O   UNL     1       5.041   1.296  20.089  0.00  0.00    +0.000 OA
ENDBRANCH   1  22
BRANCH   2  24
ATOM     24  O   UNL     1       2.841   2.504  21.843  0.00  0.00    +0.000 OA
ATOM     25  H   UNL     1       3.629   1.925  21.918  0.00  0.00    +0.000 HD
ENDBRANCH   2  24
TORSDOF 4
ENDMDL
MODEL 2
REMARK VINA RESULT:      -7.0      1.341      1.445
REMARK  Name = 
REMARK  5 active torsions:
REMARK  status: ('A' for Active; 'I' for Inactive)
REMARK    1  A    between atoms: C_1  and  C_2
REMARK    2  A    between atoms: C_2  and  C_4
REMARK    3  A    between atoms: C_5  and  O_6
REMARK    4  A    between atoms: N_9  and  C_10
REMARK    5  A    between atoms: C_17  and  C_18
REMARK                            x       y       z     vdW  Elec       q    Type
REMARK                         _______ _______ _______ _____ _____    ______ ____
ROOT
ATOM      1  C   UNL     1       3.362   3.620  18.219  0.00  0.00    +0.000 C 
ATOM      2  C   UNL     1       2.562   3.390  19.269  0.00  0.00    +0.000 C 
ATOM      3  C   UNL     1       2.062   4.702  19.742  0.00  0.00    +0.000 C 
ATOM      4  O   UNL     1       1.304   4.833  20.687  0.00  0.00    +0.000 OA
ATOM      5  N   UNL     1       2.583   5.670  18.874  0.00  0.00    +0.000 N 
ATOM      6  C   UNL     1       3.494   5.079  17.897  0.00  0.00    +0.000 C 
ENDROOT
BRANCH   5   7
ATOM      7  C   UNL     1       2.274   7.057  18.931  0.00  0.00    +0.000 A 
ATOM      8  C   UNL     1       2.428   7.880  17.806  0.00  0.00    +0.000 A 
ATOM      9  C   UNL     1       2.118   9.243  17.854  0.00  0.00    +0.000 A 
ATOM     10  C   UNL     1       1.659   9.813  19.036  0.00  0.00    +0.000 A 
ATOM     11  C   UNL     1       1.510   9.012  20.162  0.00  0.00    +0.000 A 
ATOM     12 BR   UNL     1       0.923   9.780  21.788  0.00  0.00    +0.000 Br
ATOM     13  C   UNL     1       1.806   7.647  20.112  0.00  0.00    +0.000 A 
ENDBRANCH   5   7
BRANCH   6  14
ATOM     14  C   UNL     1       4.918   5.605  18.067  0.00  0.00    +0.000 A 
ATOM     15  C   UNL     1       5.636   5.304  19.246  0.00  0.00    +0.000 A 
ATOM     16  C   UNL     1       6.933   5.777  19.451  0.00  0.00    +0.000 A 
ATOM     17  C   UNL     1       7.542   6.573  18.489  0.00  0.00    +0.000 A 
ATOM     18  C   UNL     1       6.858   6.886  17.318  0.00  0.00    +0.000 A 
ATOM     19  C   UNL     1       5.561   6.402  17.101  0.00  0.00    +0.000 A 
ATOM     20 CL   UNL     1       4.827   6.812  15.590  0.00  0.00    +0.000 Cl
ENDBRANCH   6  14
BRANCH   1  22
ATOM     21  C   UNL     1       4.914   2.789  16.341  0.00  0.00    +0.000 C 
ATOM     22  C   UNL     1       3.986   2.502  17.485  0.00  0.00    +0.000 C 
ATOM     23  O   UNL     1       3.746   1.343  17.837  0.00  0.00    +0.000 OA
ENDBRANCH   1  22
BRANCH   2  24
ATOM     24  O   UNL     1       2.211   2.194  19.827  0.00  0.00    +0.000 OA
ATOM     25  H   UNL     1       2.934   1.922  20.431  0.00  0.00    +0.000 HD
ENDBRANCH   2  24
TORSDOF 4
ENDMDL
MODEL 3
REMARK VINA RESULT:      -6.7      2.905      4.609
REMARK  Name = 
REMARK  5 active torsions:
REMARK  status: ('A' for Active; 'I' for Inactive)
REMARK    1  A    between atoms: C_1  and  C_2
REMARK    2  A    between atoms: C_2  and  C_4
REMARK    3  A    between atoms: C_5  and  O_6
REMARK    4  A    between atoms: N_9  and  C_10
REMARK    5  A    between atoms: C_17  and  C_18
REMARK                            x       y       z     vdW  Elec       q    Type
REMARK                         _______ _______ _______ _____ _____    ______ ____
ROOT
ATOM      1  C   UNL     1       4.529   5.758  18.089  0.00  0.00    +0.000 C 
ATOM      2  C   UNL     1       4.539   6.762  17.202  0.00  0.00    +0.000 C 
ATOM      3  C   UNL     1       3.477   7.717  17.599  0.00  0.00    +0.000 C 
ATOM      4  O   UNL     1       3.235   8.744  16.992  0.00  0.00    +0.000 OA
ATOM      5  N   UNL     1       2.908   7.220  18.778  0.00  0.00    +0.000 N 
ATOM      6  C   UNL     1       3.471   5.921  19.139  0.00  0.00    +0.000 C 
ENDROOT
BRANCH   5   7
ATOM      7  C   UNL     1       1.905   7.887  19.535  0.00  0.00    +0.000 A 
ATOM      8  C   UNL     1       1.633   7.517  20.860  0.00  0.00    +0.000 A 
ATOM      9  C   UNL     1       0.653   8.175  21.611  0.00  0.00    +0.000 A 
ATOM     10  C   UNL     1      -0.084   9.209  21.045  0.00  0.00    +0.000 A 
ATOM     11  C   UNL     1       0.168   9.579  19.729  0.00  0.00    +0.000 A 
ATOM     12 BR   UNL     1      -0.852  10.959  18.933  0.00  0.00    +0.000 Br
ATOM     13  C   UNL     1       1.157   8.933  18.982  0.00  0.00    +0.000 A 
ENDBRANCH   5   7
BRANCH   6  14
ATOM     14  C   UNL     1       2.412   4.820  19.100  0.00  0.00    +0.000 A 
ATOM     15  C   UNL     1       1.803   4.482  17.871  0.00  0.00    +0.000 A 
ATOM     16  C   UNL     1       0.820   3.495  17.791  0.00  0.00    +0.000 A 
ATOM     17  C   UNL     1       0.410   2.828  18.939  0.00  0.00    +0.000 A 
ATOM     18  C   UNL     1       0.992   3.142  20.164  0.00  0.00    +0.000 A 
ATOM     19  C   UNL     1       1.989   4.122  20.248  0.00  0.00    +0.000 A 
ATOM     20 CL   UNL     1       2.676   4.393  21.811  0.00  0.00    +0.000 Cl
ENDBRANCH   6  14
BRANCH   1  22
ATOM     21  C   UNL     1       5.461   3.715  16.831  0.00  0.00    +0.000 C 
ATOM     22  C   UNL     1       5.509   4.658  17.997  0.00  0.00    +0.000 C 
ATOM     23  O   UNL     1       6.367   4.542  18.877  0.00  0.00    +0.000 OA
ENDBRANCH   1  22
BRANCH   2  24
ATOM     24  O   UNL     1       5.367   6.945  16.130  0.00  0.00    +0.000 OA
ATOM     25  H   UNL     1       5.058   6.353  15.411  0.00  0.00    +0.000 HD
ENDBRANCH   2  24
TORSDOF 4
ENDMDL
MODEL 4
REMARK VINA RESULT:      -6.7      8.002     10.042
REMARK  Name = 
REMARK  5 active torsions:
REMARK  status: ('A' for Active; 'I' for Inactive)
REMARK    1  A    between atoms: C_1  and  C_2
REMARK    2  A    between atoms: C_2  and  C_4
REMARK    3  A    between atoms: C_5  and  O_6
REMARK    4  A    between atoms: N_9  and  C_10
REMARK    5  A    between atoms: C_17  and  C_18
REMARK                            x       y       z     vdW  Elec       q    Type
REMARK                         _______ _______ _______ _____ _____    ______ ____
ROOT
ATOM      1  C   UNL     1      -0.112  14.053  21.057  0.00  0.00    +0.000 C 
ATOM      2  C   UNL     1       0.358  14.475  19.876  0.00  0.00    +0.000 C 
ATOM      3  C   UNL     1      -0.267  13.638  18.824  0.00  0.00    +0.000 C 
ATOM      4  O   UNL     1      -0.045  13.776  17.635  0.00  0.00    +0.000 OA
ATOM      5  N   UNL     1      -1.145  12.763  19.474  0.00  0.00    +0.000 N 
ATOM      6  C   UNL     1      -1.066  12.903  20.926  0.00  0.00    +0.000 C 
ENDROOT
BRANCH   5   7
ATOM      7  C   UNL     1      -2.008  11.845  18.813  0.00  0.00    +0.000 A 
ATOM      8  C   UNL     1      -1.494  10.768  18.079  0.00  0.00    +0.000 A 
ATOM      9  C   UNL     1      -2.338   9.858  17.433  0.00  0.00    +0.000 A 
ATOM     10  C   UNL     1      -3.717  10.017  17.500  0.00  0.00    +0.000 A 
ATOM     11  C   UNL     1      -4.242  11.087  18.216  0.00  0.00    +0.000 A 
ATOM     12 BR   UNL     1      -6.115  11.339  18.285  0.00  0.00    +0.000 Br
ATOM     13  C   UNL     1      -3.400  11.988  18.874  0.00  0.00    +0.000 A 
ENDBRANCH   5   7
BRANCH   6  14
ATOM     14  C   UNL     1      -0.558  11.623  21.588  0.00  0.00    +0.000 A 
ATOM     15  C   UNL     1       0.578  10.969  21.059  0.00  0.00    +0.000 A 
ATOM     16  C   UNL     1       1.067   9.790  21.620  0.00  0.00    +0.000 A 
ATOM     17  C   UNL     1       0.428   9.225  22.717  0.00  0.00    +0.000 A 
ATOM     18  C   UNL     1      -0.694   9.847  23.258  0.00  0.00    +0.000 A 
ATOM     19  C   UNL     1      -1.181  11.039  22.707  0.00  0.00    +0.000 A 
ATOM     20 CL   UNL     1      -2.548  11.750  23.491  0.00  0.00    +0.000 Cl
ENDBRANCH   6  14
BRANCH   1  22
ATOM     21  C   UNL     1      -0.769  15.190  23.272  0.00  0.00    +0.000 C 
ATOM     22  C   UNL     1       0.286  14.722  22.312  0.00  0.00    +0.000 C 
ATOM     23  O   UNL     1       1.486  14.870  22.559  0.00  0.00    +0.000 OA
ENDBRANCH   1  22
BRANCH   2  24
ATOM     24  O   UNL     1       1.228  15.497  19.620  0.00  0.00    +0.000 OA
ATOM     25  H   UNL     1       1.803  15.603  20.408  0.00  0.00    +0.000 HD
ENDBRANCH   2  24
TORSDOF 4
ENDMDL
MODEL 5
REMARK VINA RESULT:      -6.7      2.712      4.027
REMARK  Name = 
REMARK  5 active torsions:
REMARK  status: ('A' for Active; 'I' for Inactive)
REMARK    1  A    between atoms: C_1  and  C_2
REMARK    2  A    between atoms: C_2  and  C_4
REMARK    3  A    between atoms: C_5  and  O_6
REMARK    4  A    between atoms: N_9  and  C_10
REMARK    5  A    between atoms: C_17  and  C_18
REMARK                            x       y       z     vdW  Elec       q    Type
REMARK                         _______ _______ _______ _____ _____    ______ ____
ROOT
ATOM      1  C   UNL     1       5.854   4.850  15.699  0.00  0.00    +0.000 C 
ATOM      2  C   UNL     1       5.298   3.705  16.117  0.00  0.00    +0.000 C 
ATOM      3  C   UNL     1       4.349   4.041  17.203  0.00  0.00    +0.000 C 
ATOM      4  O   UNL     1       3.678   3.212  17.792  0.00  0.00    +0.000 OA
ATOM      5  N   UNL     1       4.367   5.435  17.337  0.00  0.00    +0.000 N 
ATOM      6  C   UNL     1       5.361   6.046  16.458  0.00  0.00    +0.000 C 
ENDROOT
BRANCH   5   7
ATOM      7  C   UNL     1       3.529   6.173  18.219  0.00  0.00    +0.000 A 
ATOM      8  C   UNL     1       3.202   5.679  19.490  0.00  0.00    +0.000 A 
ATOM      9  C   UNL     1       2.384   6.405  20.364  0.00  0.00    +0.000 A 
ATOM     10  C   UNL     1       1.867   7.635  19.976  0.00  0.00    +0.000 A 
ATOM     11  C   UNL     1       2.174   8.132  18.714  0.00  0.00    +0.000 A 
ATOM     12 BR   UNL     1       1.447   9.787  18.157  0.00  0.00    +0.000 Br
ATOM     13  C   UNL     1       3.003   7.416  17.846  0.00  0.00    +0.000 A 
ENDBRANCH   5   7
BRANCH   6  14
ATOM     14  C   UNL     1       6.460   6.747  17.254  0.00  0.00    +0.000 A 
ATOM     15  C   UNL     1       6.779   8.093  16.966  0.00  0.00    +0.000 A 
ATOM     16  C   UNL     1       7.786   8.767  17.656  0.00  0.00    +0.000 A 
ATOM     17  C   UNL     1       8.510   8.112  18.645  0.00  0.00    +0.000 A 
ATOM     18  C   UNL     1       8.218   6.785  18.950  0.00  0.00    +0.000 A 
ATOM     19  C   UNL     1       7.198   6.107  18.269  0.00  0.00    +0.000 A 
ATOM     20 CL   UNL     1       6.889   4.480  18.764  0.00  0.00    +0.000 Cl
ENDBRANCH   6  14
BRANCH   1  22
ATOM     21  C   UNL     1       6.496   4.120  13.316  0.00  0.00    +0.000 C 
ATOM     22  C   UNL     1       6.818   4.859  14.582  0.00  0.00    +0.000 C 
ATOM     23  O   UNL     1       7.872   5.491  14.702  0.00  0.00    +0.000 OA
ENDBRANCH   1  22
BRANCH   2  24
ATOM     24  O   UNL     1       5.504   2.437  15.649  0.00  0.00    +0.000 OA
ATOM     25  H   UNL     1       4.988   2.338  14.820  0.00  0.00    +0.000 HD
ENDBRANCH   2  24
TORSDOF 4
ENDMDL
MODEL 6
REMARK VINA RESULT:      -6.7      2.537      4.447
REMARK  Name = 
REMARK  5 active torsions:
REMARK  status: ('A' for Active; 'I' for Inactive)
REMARK    1  A    between atoms: C_1  and  C_2
REMARK    2  A    between atoms: C_2  and  C_4
REMARK    3  A    between atoms: C_5  and  O_6
REMARK    4  A    between atoms: N_9  and  C_10
REMARK    5  A    between atoms: C_17  and  C_18
REMARK                            x       y       z     vdW  Elec       q    Type
REMARK                         _______ _______ _______ _____ _____    ______ ____
ROOT
ATOM      1  C   UNL     1       4.395   5.974  18.490  0.00  0.00    +0.000 C 
ATOM      2  C   UNL     1       4.154   6.754  17.428  0.00  0.00    +0.000 C 
ATOM      3  C   UNL     1       3.026   7.648  17.779  0.00  0.00    +0.000 C 
ATOM      4  O   UNL     1       2.568   8.483  17.019  0.00  0.00    +0.000 OA
ATOM      5  N   UNL     1       2.682   7.361  19.105  0.00  0.00    +0.000 N 
ATOM      6  C   UNL     1       3.462   6.244  19.633  0.00  0.00    +0.000 C 
ENDROOT
BRANCH   5   7
ATOM      7  C   UNL     1       1.695   8.062  19.854  0.00  0.00    +0.000 A 
ATOM      8  C   UNL     1       1.378   7.684  21.166  0.00  0.00    +0.000 A 
ATOM      9  C   UNL     1       0.415   8.375  21.909  0.00  0.00    +0.000 A 
ATOM     10  C   UNL     1      -0.261   9.450  21.347  0.00  0.00    +0.000 A 
ATOM     11  C   UNL     1       0.035   9.830  20.043  0.00  0.00    +0.000 A 
ATOM     12 BR   UNL     1      -0.903  11.269  19.250  0.00  0.00    +0.000 Br
ATOM     13  C   UNL     1       1.008   9.151  19.304  0.00  0.00    +0.000 A 
ENDBRANCH   5   7
BRANCH   6  14
ATOM     14  C   UNL     1       2.572   5.051  19.976  0.00  0.00    +0.000 A 
ATOM     15  C   UNL     1       2.588   4.524  21.287  0.00  0.00    +0.000 A 
ATOM     16  C   UNL     1       1.805   3.425  21.641  0.00  0.00    +0.000 A 
ATOM     17  C   UNL     1       0.993   2.816  20.692  0.00  0.00    +0.000 A 
ATOM     18  C   UNL     1       0.958   3.313  19.392  0.00  0.00    +0.000 A 
ATOM     19  C   UNL     1       1.732   4.425  19.035  0.00  0.00    +0.000 A 
ATOM     20 CL   UNL     1       1.571   4.987  17.408  0.00  0.00    +0.000 Cl
ENDBRANCH   6  14
BRANCH   1  22
ATOM     21  C   UNL     1       6.717   5.239  19.323  0.00  0.00    +0.000 C 
ATOM     22  C   UNL     1       5.502   4.998  18.476  0.00  0.00    +0.000 C 
ATOM     23  O   UNL     1       5.401   3.985  17.778  0.00  0.00    +0.000 OA
ENDBRANCH   1  22
BRANCH   2  24
ATOM     24  O   UNL     1       4.810   6.788  16.229  0.00  0.00    +0.000 OA
ATOM     25  H   UNL     1       4.892   7.728  15.961  0.00  0.00    +0.000 HD
ENDBRANCH   2  24
TORSDOF 4
ENDMDL
MODEL 7
REMARK VINA RESULT:      -6.6      6.040      8.441
REMARK  Name = 
REMARK  5 active torsions:
REMARK  status: ('A' for Active; 'I' for Inactive)
REMARK    1  A    between atoms: C_1  and  C_2
REMARK    2  A    between atoms: C_2  and  C_4
REMARK    3  A    between atoms: C_5  and  O_6
REMARK    4  A    between atoms: N_9  and  C_10
REMARK    5  A    between atoms: C_17  and  C_18
REMARK                            x       y       z     vdW  Elec       q    Type
REMARK                         _______ _______ _______ _____ _____    ______ ____
ROOT
ATOM      1  C   UNL     1      -1.939  11.108  18.423  0.00  0.00    +0.000 C 
ATOM      2  C   UNL     1      -2.664  12.099  18.956  0.00  0.00    +0.000 C 
ATOM      3  C   UNL     1      -1.723  13.025  19.630  0.00  0.00    +0.000 C 
ATOM      4  O   UNL     1      -2.074  14.036  20.212  0.00  0.00    +0.000 OA
ATOM      5  N   UNL     1      -0.435  12.526  19.404  0.00  0.00    +0.000 N 
ATOM      6  C   UNL     1      -0.471  11.250  18.693  0.00  0.00    +0.000 C 
ENDROOT
BRANCH   5   7
ATOM      7  C   UNL     1       0.766  13.170  19.814  0.00  0.00    +0.000 A 
ATOM      8  C   UNL     1       0.989  13.496  21.159  0.00  0.00    +0.000 A 
ATOM      9  C   UNL     1       2.171  14.123  21.569  0.00  0.00    +0.000 A 
ATOM     10  C   UNL     1       3.148  14.448  20.636  0.00  0.00    +0.000 A 
ATOM     11  C   UNL     1       2.936  14.140  19.297  0.00  0.00    +0.000 A 
ATOM     12 BR   UNL     1       4.240  14.610  18.010  0.00  0.00    +0.000 Br
ATOM     13  C   UNL     1       1.762  13.500  18.888  0.00  0.00    +0.000 A 
ENDBRANCH   5   7
BRANCH   6  14
ATOM     14  C   UNL     1       0.096  10.116  19.545  0.00  0.00    +0.000 A 
ATOM     15  C   UNL     1      -0.486   9.829  20.800  0.00  0.00    +0.000 A 
ATOM     16  C   UNL     1       0.009   8.813  21.618  0.00  0.00    +0.000 A 
ATOM     17  C   UNL     1       1.106   8.065  21.210  0.00  0.00    +0.000 A 
ATOM     18  C   UNL     1       1.700   8.326  19.978  0.00  0.00    +0.000 A 
ATOM     19  C   UNL     1       1.198   9.335  19.147  0.00  0.00    +0.000 A 
ATOM     20 CL   UNL     1       1.982   9.538  17.619  0.00  0.00    +0.000 Cl
ENDBRANCH   6  14
BRANCH   1  22
ATOM     21  C   UNL     1      -2.225   9.860  16.189  0.00  0.00    +0.000 C 
ATOM     22  C   UNL     1      -2.585  10.039  17.635  0.00  0.00    +0.000 C 
ATOM     23  O   UNL     1      -3.401   9.295  18.187  0.00  0.00    +0.000 OA
ENDBRANCH   1  22
BRANCH   2  24
ATOM     24  O   UNL     1      -4.015  12.294  18.899  0.00  0.00    +0.000 OA
ATOM     25  H   UNL     1      -4.398  11.574  18.353  0.00  0.00    +0.000 HD
ENDBRANCH   2  24
TORSDOF 4
ENDMDL
MODEL 8
REMARK VINA RESULT:      -6.5      6.062      8.222
REMARK  Name = 
REMARK  5 active torsions:
REMARK  status: ('A' for Active; 'I' for Inactive)
REMARK    1  A    between atoms: C_1  and  C_2
REMARK    2  A    between atoms: C_2  and  C_4
REMARK    3  A    between atoms: C_5  and  O_6
REMARK    4  A    between atoms: N_9  and  C_10
REMARK    5  A    between atoms: C_17  and  C_18
REMARK                            x       y       z     vdW  Elec       q    Type
REMARK                         _______ _______ _______ _____ _____    ______ ____
ROOT
ATOM      1  C   UNL     1       0.731   9.813  20.372  0.00  0.00    +0.000 C 
ATOM      2  C   UNL     1       0.952   9.212  21.548  0.00  0.00    +0.000 C 
ATOM      3  C   UNL     1       0.336  10.054  22.600  0.00  0.00    +0.000 C 
ATOM      4  O   UNL     1       0.361   9.776  23.786  0.00  0.00    +0.000 OA
ATOM      5  N   UNL     1      -0.282  11.128  21.947  0.00  0.00    +0.000 N 
ATOM      6  C   UNL     1      -0.024  11.101  20.510  0.00  0.00    +0.000 C 
ENDROOT
BRANCH   5   7
ATOM      7  C   UNL     1      -1.063  12.126  22.594  0.00  0.00    +0.000 A 
ATOM      8  C   UNL     1      -0.596  13.442  22.719  0.00  0.00    +0.000 A 
ATOM      9  C   UNL     1      -1.363  14.429  23.347  0.00  0.00    +0.000 A 
ATOM     10  C   UNL     1      -2.609  14.114  23.875  0.00  0.00    +0.000 A 
ATOM     11  C   UNL     1      -3.081  12.811  23.767  0.00  0.00    +0.000 A 
ATOM     12 BR   UNL     1      -4.759  12.358  24.514  0.00  0.00    +0.000 Br
ATOM     13  C   UNL     1      -2.323  11.827  23.127  0.00  0.00    +0.000 A 
ENDBRANCH   5   7
BRANCH   6  14
ATOM     14  C   UNL     1       0.780  12.320  20.061  0.00  0.00    +0.000 A 
ATOM     15  C   UNL     1       1.985  12.642  20.725  0.00  0.00    +0.000 A 
ATOM     16  C   UNL     1       2.744  13.755  20.360  0.00  0.00    +0.000 A 
ATOM     17  C   UNL     1       2.313  14.582  19.330  0.00  0.00    +0.000 A 
ATOM     18  C   UNL     1       1.128  14.289  18.659  0.00  0.00    +0.000 A 
ATOM     19  C   UNL     1       0.370  13.166  19.013  0.00  0.00    +0.000 A 
ATOM     20 CL   UNL     1      -1.055  12.871  18.079  0.00  0.00    +0.000 Cl
ENDBRANCH   6  14
BRANCH   1  22
ATOM     21  C   UNL     1       0.556   9.610  17.811  0.00  0.00    +0.000 C 
ATOM     22  C   UNL     1       1.183   9.194  19.110  0.00  0.00    +0.000 C 
ATOM     23  O   UNL     1       2.086   8.353  19.143  0.00  0.00    +0.000 OA
ENDBRANCH   1  22
BRANCH   2  24
ATOM     24  O   UNL     1       1.593   8.031  21.795  0.00  0.00    +0.000 OA
ATOM     25  H   UNL     1       1.371   7.757  22.711  0.00  0.00    +0.000 HD
ENDBRANCH   2  24
TORSDOF 4
ENDMDL
MODEL 9
REMARK VINA RESULT:      -6.5      2.749      4.422
REMARK  Name = 
REMARK  5 active torsions:
REMARK  status: ('A' for Active; 'I' for Inactive)
REMARK    1  A    between atoms: C_1  and  C_2
REMARK    2  A    between atoms: C_2  and  C_4
REMARK    3  A    between atoms: C_5  and  O_6
REMARK    4  A    between atoms: N_9  and  C_10
REMARK    5  A    between atoms: C_17  and  C_18
REMARK                            x       y       z     vdW  Elec       q    Type
REMARK                         _______ _______ _______ _____ _____    ______ ____
ROOT
ATOM      1  C   UNL     1       4.856   5.506  17.544  0.00  0.00    +0.000 C 
ATOM      2  C   UNL     1       4.723   6.561  16.729  0.00  0.00    +0.000 C 
ATOM      3  C   UNL     1       3.670   7.434  17.298  0.00  0.00    +0.000 C 
ATOM      4  O   UNL     1       3.316   8.482  16.788  0.00  0.00    +0.000 OA
ATOM      5  N   UNL     1       3.257   6.839  18.496  0.00  0.00    +0.000 N 
ATOM      6  C   UNL     1       3.913   5.551  18.710  0.00  0.00    +0.000 C 
ENDROOT
BRANCH   5   7
ATOM      7  C   UNL     1       2.314   7.406  19.398  0.00  0.00    +0.000 A 
ATOM      8  C   UNL     1       1.954   6.745  20.580  0.00  0.00    +0.000 A 
ATOM      9  C   UNL     1       1.034   7.302  21.474  0.00  0.00    +0.000 A 
ATOM     10  C   UNL     1       0.444   8.529  21.194  0.00  0.00    +0.000 A 
ATOM     11  C   UNL     1       0.784   9.192  20.021  0.00  0.00    +0.000 A 
ATOM     12 BR   UNL     1      -0.038  10.846  19.607  0.00  0.00    +0.000 Br
ATOM     13  C   UNL     1       1.714   8.644  19.134  0.00  0.00    +0.000 A 
ENDBRANCH   5   7
BRANCH   6  14
ATOM     14  C   UNL     1       2.907   4.402  18.713  0.00  0.00    +0.000 A 
ATOM     15  C   UNL     1       1.698   4.531  17.992  0.00  0.00    +0.000 A 
ATOM     16  C   UNL     1       0.743   3.514  17.980  0.00  0.00    +0.000 A 
ATOM     17  C   UNL     1       0.965   2.345  18.697  0.00  0.00    +0.000 A 
ATOM     18  C   UNL     1       2.146   2.190  19.417  0.00  0.00    +0.000 A 
ATOM     19  C   UNL     1       3.114   3.203  19.421  0.00  0.00    +0.000 A 
ATOM     20 CL   UNL     1       4.564   2.882  20.307  0.00  0.00    +0.000 Cl
ENDBRANCH   6  14
BRANCH   1  22
ATOM     21  C   UNL     1       5.750   3.613  16.047  0.00  0.00    +0.000 C 
ATOM     22  C   UNL     1       5.868   4.466  17.276  0.00  0.00    +0.000 C 
ATOM     23  O   UNL     1       6.808   4.326  18.064  0.00  0.00    +0.000 OA
ENDBRANCH   1  22
BRANCH   2  24
ATOM     24  O   UNL     1       5.419   6.850  15.589  0.00  0.00    +0.000 OA
ATOM     25  H   UNL     1       4.967   7.599  15.145  0.00  0.00    +0.000 HD
ENDBRANCH   2  24
TORSDOF 4
ENDMDL
