MODEL 1
REMARK VINA RESULT:      -8.2      0.000      0.000
REMARK  Name = 
REMARK  2 active torsions:
REMARK  status: ('A' for Active; 'I' for Inactive)
REMARK    1  A    between atoms: C_5  and  O_6
REMARK    2  A    between atoms: C_8  and  O_9
REMARK                            x       y       z     vdW  Elec       q    Type
REMARK                         _______ _______ _______ _____ _____    ______ ____
ROOT
ATOM      1  O   UNL     1       3.731   7.884  17.835  0.00  0.00    +0.000 OA
ATOM      2  C   UNL     1       3.533   6.677  17.897  0.00  0.00    +0.000 C 
ATOM      3  N   UNL     1       2.433   6.161  18.523  0.00  0.00    +0.000 N 
ATOM      4  C   UNL     1       2.478   4.789  18.964  0.00  0.00    +0.000 C 
ATOM      5  C   UNL     1       1.233   4.427  19.776  0.00  0.00    +0.000 C 
ATOM      6  C   UNL     1       1.354   3.002  20.301  0.00  0.00    +0.000 C 
ATOM      7  C   UNL     1       1.627   2.003  19.179  0.00  0.00    +0.000 C 
ATOM      8  C   UNL     1       2.818   2.397  18.286  0.00  0.00    +0.000 C 
ATOM      9  C   UNL     1       2.736   3.849  17.765  0.00  0.00    +0.000 C 
ATOM     10  C   UNL     1       3.984   4.340  17.032  0.00  0.00    +0.000 A 
ATOM     11  C   UNL     1       4.668   3.565  16.078  0.00  0.00    +0.000 A 
ATOM     12  C   UNL     1       5.763   4.136  15.452  0.00  0.00    +0.000 A 
ATOM     13  C   UNL     1       6.254   5.377  15.811  0.00  0.00    +0.000 A 
ATOM     14  C   UNL     1       5.628   6.171  16.723  0.00  0.00    +0.000 A 
ATOM     15  C   UNL     1       4.430   5.686  17.244  0.00  0.00    +0.000 A 
ATOM     16  O   UNL     1       7.330   5.747  15.062  0.00  0.00    +0.000 OA
ATOM     17  C   UNL     1       7.177   4.811  13.982  0.00  0.00    +0.000 C 
ATOM     18  O   UNL     1       6.445   3.630  14.384  0.00  0.00    +0.000 OA
ATOM     19  H   UNL     1       1.855   6.837  19.014  0.00  0.00    +0.000 HD
ENDROOT
BRANCH   5  20
ATOM     20  O   UNL     1       1.096   5.327  20.882  0.00  0.00    +0.000 OA
ATOM     21  H   UNL     1       0.562   6.091  20.602  0.00  0.00    +0.000 HD
ENDBRANCH   5  20
BRANCH   7  22
ATOM     22  O   UNL     1       0.462   1.818  18.380  0.00  0.00    +0.000 OA
ATOM     23  H   UNL     1       0.109   0.920  18.487  0.00  0.00    +0.000 HD
ENDBRANCH   7  22
TORSDOF 2
ENDMDL
MODEL 2
REMARK VINA RESULT:      -8.2      2.641      5.247
REMARK  Name = 
REMARK  2 active torsions:
REMARK  status: ('A' for Active; 'I' for Inactive)
REMARK    1  A    between atoms: C_5  and  O_6
REMARK    2  A    between atoms: C_8  and  O_9
REMARK                            x       y       z     vdW  Elec       q    Type
REMARK                         _______ _______ _______ _____ _____    ______ ____
ROOT
ATOM      1  O   UNL     1       4.727   6.863  16.972  0.00  0.00    +0.000 OA
ATOM      2  C   UNL     1       4.003   6.344  17.812  0.00  0.00    +0.000 C 
ATOM      3  N   UNL     1       4.243   5.085  18.288  0.00  0.00    +0.000 N 
ATOM      4  C   UNL     1       3.151   4.364  18.894  0.00  0.00    +0.000 C 
ATOM      5  C   UNL     1       3.555   2.926  19.226  0.00  0.00    +0.000 C 
ATOM      6  C   UNL     1       2.355   2.167  19.781  0.00  0.00    +0.000 C 
ATOM      7  C   UNL     1       1.729   2.886  20.974  0.00  0.00    +0.000 C 
ATOM      8  C   UNL     1       1.403   4.365  20.695  0.00  0.00    +0.000 C 
ATOM      9  C   UNL     1       2.594   5.151  20.101  0.00  0.00    +0.000 C 
ATOM     10  C   UNL     1       2.261   6.568  19.636  0.00  0.00    +0.000 A 
ATOM     11  C   UNL     1       1.475   7.458  20.391  0.00  0.00    +0.000 A 
ATOM     12  C   UNL     1       1.276   8.730  19.881  0.00  0.00    +0.000 A 
ATOM     13  C   UNL     1       1.729   9.103  18.630  0.00  0.00    +0.000 A 
ATOM     14  C   UNL     1       2.500   8.283  17.862  0.00  0.00    +0.000 A 
ATOM     15  C   UNL     1       2.852   7.060  18.426  0.00  0.00    +0.000 A 
ATOM     16  O   UNL     1       1.432  10.399  18.334  0.00  0.00    +0.000 OA
ATOM     17  C   UNL     1       1.129  10.862  19.660  0.00  0.00    +0.000 C 
ATOM     18  O   UNL     1       0.706   9.786  20.529  0.00  0.00    +0.000 OA
ATOM     19  H   UNL     1       4.994   4.582  17.825  0.00  0.00    +0.000 HD
ENDROOT
BRANCH   5  20
ATOM     20  O   UNL     1       4.023   2.267  18.044  0.00  0.00    +0.000 OA
ATOM     21  H   UNL     1       4.997   2.282  18.040  0.00  0.00    +0.000 HD
ENDBRANCH   5  20
BRANCH   7  22
ATOM     22  O   UNL     1       2.571   2.784  22.118  0.00  0.00    +0.000 OA
ATOM     23  H   UNL     1       2.049   2.827  22.936  0.00  0.00    +0.000 HD
ENDBRANCH   7  22
TORSDOF 2
ENDMDL
MODEL 3
REMARK VINA RESULT:      -8.0      2.765      6.071
REMARK  Name = 
REMARK  2 active torsions:
REMARK  status: ('A' for Active; 'I' for Inactive)
REMARK    1  A    between atoms: C_5  and  O_6
REMARK    2  A    between atoms: C_8  and  O_9
REMARK                            x       y       z     vdW  Elec       q    Type
REMARK                         _______ _______ _______ _____ _____    ______ ____
ROOT
ATOM      1  O   UNL     1       1.734   5.024  21.055  0.00  0.00    +0.000 OA
ATOM      2  C   UNL     1       2.408   5.451  20.127  0.00  0.00    +0.000 C 
ATOM      3  N   UNL     1       3.234   4.636  19.403  0.00  0.00    +0.000 N 
ATOM      4  C   UNL     1       4.313   5.241  18.662  0.00  0.00    +0.000 C 
ATOM      5  C   UNL     1       5.222   4.177  18.043  0.00  0.00    +0.000 C 
ATOM      6  C   UNL     1       6.399   4.848  17.344  0.00  0.00    +0.000 C 
ATOM      7  C   UNL     1       5.939   5.885  16.323  0.00  0.00    +0.000 C 
ATOM      8  C   UNL     1       4.944   6.911  16.898  0.00  0.00    +0.000 C 
ATOM      9  C   UNL     1       3.756   6.258  17.640  0.00  0.00    +0.000 C 
ATOM     10  C   UNL     1       2.848   7.236  18.385  0.00  0.00    +0.000 A 
ATOM     11  C   UNL     1       2.409   8.451  17.828  0.00  0.00    +0.000 A 
ATOM     12  C   UNL     1       1.556   9.234  18.586  0.00  0.00    +0.000 A 
ATOM     13  C   UNL     1       1.220   8.913  19.888  0.00  0.00    +0.000 A 
ATOM     14  C   UNL     1       1.612   7.747  20.473  0.00  0.00    +0.000 A 
ATOM     15  C   UNL     1       2.333   6.865  19.671  0.00  0.00    +0.000 A 
ATOM     16  O   UNL     1       0.363   9.815  20.443  0.00  0.00    +0.000 OA
ATOM     17  C   UNL     1      -0.083  10.461  19.239  0.00  0.00    +0.000 C 
ATOM     18  O   UNL     1       0.882  10.343  18.167  0.00  0.00    +0.000 OA
ATOM     19  H   UNL     1       3.323   3.687  19.754  0.00  0.00    +0.000 HD
ENDROOT
BRANCH   5  20
ATOM     20  O   UNL     1       5.716   3.306  19.066  0.00  0.00    +0.000 OA
ATOM     21  H   UNL     1       6.420   2.747  18.691  0.00  0.00    +0.000 HD
ENDBRANCH   5  20
BRANCH   7  22
ATOM     22  O   UNL     1       5.371   5.247  15.182  0.00  0.00    +0.000 OA
ATOM     23  H   UNL     1       4.915   4.428  15.436  0.00  0.00    +0.000 HD
ENDBRANCH   7  22
TORSDOF 2
ENDMDL
MODEL 4
REMARK VINA RESULT:      -8.0      1.049      1.109
REMARK  Name = 
REMARK  2 active torsions:
REMARK  status: ('A' for Active; 'I' for Inactive)
REMARK    1  A    between atoms: C_5  and  O_6
REMARK    2  A    between atoms: C_8  and  O_9
REMARK                            x       y       z     vdW  Elec       q    Type
REMARK                         _______ _______ _______ _____ _____    ______ ____
ROOT
ATOM      1  O   UNL     1       3.335   8.245  17.160  0.00  0.00    +0.000 OA
ATOM      2  C   UNL     1       3.356   7.118  17.636  0.00  0.00    +0.000 C 
ATOM      3  N   UNL     1       2.467   6.727  18.598  0.00  0.00    +0.000 N 
ATOM      4  C   UNL     1       2.811   5.600  19.430  0.00  0.00    +0.000 C 
ATOM      5  C   UNL     1       1.782   5.401  20.545  0.00  0.00    +0.000 C 
ATOM      6  C   UNL     1       2.222   4.262  21.456  0.00  0.00    +0.000 C 
ATOM      7  C   UNL     1       2.487   2.978  20.675  0.00  0.00    +0.000 C 
ATOM      8  C   UNL     1       3.446   3.173  19.484  0.00  0.00    +0.000 C 
ATOM      9  C   UNL     1       3.040   4.344  18.561  0.00  0.00    +0.000 C 
ATOM     10  C   UNL     1       4.061   4.690  17.478  0.00  0.00    +0.000 A 
ATOM     11  C   UNL     1       4.715   3.717  16.700  0.00  0.00    +0.000 A 
ATOM     12  C   UNL     1       5.590   4.159  15.721  0.00  0.00    +0.000 A 
ATOM     13  C   UNL     1       5.912   5.493  15.567  0.00  0.00    +0.000 A 
ATOM     14  C   UNL     1       5.305   6.476  16.289  0.00  0.00    +0.000 A 
ATOM     15  C   UNL     1       4.299   6.069  17.163  0.00  0.00    +0.000 A 
ATOM     16  O   UNL     1       6.783   5.704  14.541  0.00  0.00    +0.000 OA
ATOM     17  C   UNL     1       6.630   4.445  13.864  0.00  0.00    +0.000 C 
ATOM     18  O   UNL     1       6.178   3.399  14.754  0.00  0.00    +0.000 OA
ATOM     19  H   UNL     1       1.864   7.462  18.956  0.00  0.00    +0.000 HD
ENDROOT
BRANCH   5  20
ATOM     20  O   UNL     1       1.663   6.602  21.316  0.00  0.00    +0.000 OA
ATOM     21  H   UNL     1       0.844   6.560  21.841  0.00  0.00    +0.000 HD
ENDBRANCH   5  20
BRANCH   7  22
ATOM     22  O   UNL     1       1.264   2.405  20.222  0.00  0.00    +0.000 OA
ATOM     23  H   UNL     1       0.535   3.042  20.302  0.00  0.00    +0.000 HD
ENDBRANCH   7  22
TORSDOF 2
ENDMDL
MODEL 5
REMARK VINA RESULT:      -7.7      2.159      6.192
REMARK  Name = 
REMARK  2 active torsions:
REMARK  status: ('A' for Active; 'I' for Inactive)
REMARK    1  A    between atoms: C_5  and  O_6
REMARK    2  A    between atoms: C_8  and  O_9
REMARK                            x       y       z     vdW  Elec       q    Type
REMARK                         _______ _______ _______ _____ _____    ______ ____
ROOT
ATOM      1  O   UNL     1       7.613   6.500  17.606  0.00  0.00    +0.000 OA
ATOM      2  C   UNL     1       7.053   5.870  16.719  0.00  0.00    +0.000 C 
ATOM      3  N   UNL     1       7.717   5.468  15.593  0.00  0.00    +0.000 N 
ATOM      4  C   UNL     1       6.942   5.157  14.417  0.00  0.00    +0.000 C 
ATOM      5  C   UNL     1       7.849   4.879  13.216  0.00  0.00    +0.000 C 
ATOM      6  C   UNL     1       7.001   4.643  11.972  0.00  0.00    +0.000 C 
ATOM      7  C   UNL     1       5.967   3.540  12.188  0.00  0.00    +0.000 C 
ATOM      8  C   UNL     1       5.106   3.748  13.449  0.00  0.00    +0.000 C 
ATOM      9  C   UNL     1       5.941   4.020  14.720  0.00  0.00    +0.000 C 
ATOM     10  C   UNL     1       5.126   4.416  15.951  0.00  0.00    +0.000 A 
ATOM     11  C   UNL     1       3.942   3.758  16.331  0.00  0.00    +0.000 A 
ATOM     12  C   UNL     1       3.315   4.183  17.490  0.00  0.00    +0.000 A 
ATOM     13  C   UNL     1       3.752   5.282  18.205  0.00  0.00    +0.000 A 
ATOM     14  C   UNL     1       4.895   5.950  17.886  0.00  0.00    +0.000 A 
ATOM     15  C   UNL     1       5.633   5.437  16.822  0.00  0.00    +0.000 A 
ATOM     16  O   UNL     1       2.995   5.516  19.313  0.00  0.00    +0.000 OA
ATOM     17  C   UNL     1       2.337   4.242  19.402  0.00  0.00    +0.000 C 
ATOM     18  O   UNL     1       2.272   3.572  18.121  0.00  0.00    +0.000 OA
ATOM     19  H   UNL     1       8.667   5.814  15.503  0.00  0.00    +0.000 HD
ENDROOT
BRANCH   5  20
ATOM     20  O   UNL     1       8.714   5.997  12.991  0.00  0.00    +0.000 OA
ATOM     21  H   UNL     1       9.413   5.997  13.670  0.00  0.00    +0.000 HD
ENDBRANCH   5  20
BRANCH   7  22
ATOM     22  O   UNL     1       6.599   2.264  12.239  0.00  0.00    +0.000 OA
ATOM     23  H   UNL     1       7.466   2.292  11.801  0.00  0.00    +0.000 HD
ENDBRANCH   7  22
TORSDOF 2
ENDMDL
MODEL 6
REMARK VINA RESULT:      -7.5      1.720      1.728
REMARK  Name = 
REMARK  2 active torsions:
REMARK  status: ('A' for Active; 'I' for Inactive)
REMARK    1  A    between atoms: C_5  and  O_6
REMARK    2  A    between atoms: C_8  and  O_9
REMARK                            x       y       z     vdW  Elec       q    Type
REMARK                         _______ _______ _______ _____ _____    ______ ____
ROOT
ATOM      1  O   UNL     1       6.283   5.766  19.793  0.00  0.00    +0.000 OA
ATOM      2  C   UNL     1       5.431   5.036  19.305  0.00  0.00    +0.000 C 
ATOM      3  N   UNL     1       4.266   4.751  19.963  0.00  0.00    +0.000 N 
ATOM      4  C   UNL     1       3.536   3.568  19.580  0.00  0.00    +0.000 C 
ATOM      5  C   UNL     1       2.351   3.322  20.516  0.00  0.00    +0.000 C 
ATOM      6  C   UNL     1       1.657   2.019  20.139  0.00  0.00    +0.000 C 
ATOM      7  C   UNL     1       1.250   1.995  18.667  0.00  0.00    +0.000 C 
ATOM      8  C   UNL     1       2.405   2.338  17.707  0.00  0.00    +0.000 C 
ATOM      9  C   UNL     1       3.147   3.639  18.086  0.00  0.00    +0.000 C 
ATOM     10  C   UNL     1       4.413   3.916  17.275  0.00  0.00    +0.000 A 
ATOM     11  C   UNL     1       4.479   3.757  15.878  0.00  0.00    +0.000 A 
ATOM     12  C   UNL     1       5.671   4.079  15.251  0.00  0.00    +0.000 A 
ATOM     13  C   UNL     1       6.803   4.438  15.957  0.00  0.00    +0.000 A 
ATOM     14  C   UNL     1       6.793   4.612  17.308  0.00  0.00    +0.000 A 
ATOM     15  C   UNL     1       5.562   4.456  17.941  0.00  0.00    +0.000 A 
ATOM     16  O   UNL     1       7.858   4.719  15.142  0.00  0.00    +0.000 OA
ATOM     17  C   UNL     1       7.141   4.883  13.907  0.00  0.00    +0.000 C 
ATOM     18  O   UNL     1       5.884   4.168  13.907  0.00  0.00    +0.000 OA
ATOM     19  H   UNL     1       4.207   5.103  20.914  0.00  0.00    +0.000 HD
ENDROOT
BRANCH   5  20
ATOM     20  O   UNL     1       2.811   3.236  21.869  0.00  0.00    +0.000 OA
ATOM     21  H   UNL     1       2.129   2.795  22.406  0.00  0.00    +0.000 HD
ENDBRANCH   5  20
BRANCH   7  22
ATOM     22  O   UNL     1       0.153   2.875  18.437  0.00  0.00    +0.000 OA
ATOM     23  H   UNL     1       0.405   3.795  18.623  0.00  0.00    +0.000 HD
ENDBRANCH   7  22
TORSDOF 2
ENDMDL
MODEL 7
REMARK VINA RESULT:      -7.5      1.114      1.169
REMARK  Name = 
REMARK  2 active torsions:
REMARK  status: ('A' for Active; 'I' for Inactive)
REMARK    1  A    between atoms: C_5  and  O_6
REMARK    2  A    between atoms: C_8  and  O_9
REMARK                            x       y       z     vdW  Elec       q    Type
REMARK                         _______ _______ _______ _____ _____    ______ ____
ROOT
ATOM      1  O   UNL     1       5.304   7.493  17.905  0.00  0.00    +0.000 OA
ATOM      2  C   UNL     1       4.895   6.342  17.830  0.00  0.00    +0.000 C 
ATOM      3  N   UNL     1       3.851   5.898  18.594  0.00  0.00    +0.000 N 
ATOM      4  C   UNL     1       3.716   4.479  18.809  0.00  0.00    +0.000 C 
ATOM      5  C   UNL     1       2.595   4.175  19.806  0.00  0.00    +0.000 C 
ATOM      6  C   UNL     1       2.538   2.677  20.078  0.00  0.00    +0.000 C 
ATOM      7  C   UNL     1       2.405   1.868  18.790  0.00  0.00    +0.000 C 
ATOM      8  C   UNL     1       3.464   2.227  17.730  0.00  0.00    +0.000 C 
ATOM      9  C   UNL     1       3.565   3.745  17.458  0.00  0.00    +0.000 C 
ATOM     10  C   UNL     1       4.727   4.160  16.556  0.00  0.00    +0.000 A 
ATOM     11  C   UNL     1       5.063   3.473  15.375  0.00  0.00    +0.000 A 
ATOM     12  C   UNL     1       6.113   3.970  14.620  0.00  0.00    +0.000 A 
ATOM     13  C   UNL     1       6.888   5.033  15.044  0.00  0.00    +0.000 A 
ATOM     14  C   UNL     1       6.603   5.736  16.175  0.00  0.00    +0.000 A 
ATOM     15  C   UNL     1       5.452   5.358  16.863  0.00  0.00    +0.000 A 
ATOM     16  O   UNL     1       7.858   5.361  14.145  0.00  0.00    +0.000 OA
ATOM     17  C   UNL     1       7.334   4.672  12.998  0.00  0.00    +0.000 C 
ATOM     18  O   UNL     1       6.477   3.567  13.369  0.00  0.00    +0.000 OA
ATOM     19  H   UNL     1       3.513   6.556  19.291  0.00  0.00    +0.000 HD
ENDROOT
BRANCH   5  20
ATOM     20  O   UNL     1       2.838   4.868  21.036  0.00  0.00    +0.000 OA
ATOM     21  H   UNL     1       2.075   4.739  21.626  0.00  0.00    +0.000 HD
ENDBRANCH   5  20
BRANCH   7  22
ATOM     22  O   UNL     1       1.100   2.017  18.239  0.00  0.00    +0.000 OA
ATOM     23  H   UNL     1       0.468   2.297  18.921  0.00  0.00    +0.000 HD
ENDBRANCH   7  22
TORSDOF 2
ENDMDL
MODEL 8
REMARK VINA RESULT:      -7.1      1.715      5.744
REMARK  Name = 
REMARK  2 active torsions:
REMARK  status: ('A' for Active; 'I' for Inactive)
REMARK    1  A    between atoms: C_5  and  O_6
REMARK    2  A    between atoms: C_8  and  O_9
REMARK                            x       y       z     vdW  Elec       q    Type
REMARK                         _______ _______ _______ _____ _____    ______ ____
ROOT
ATOM      1  O   UNL     1       2.191   7.569  18.746  0.00  0.00    +0.000 OA
ATOM      2  C   UNL     1       2.958   6.701  18.350  0.00  0.00    +0.000 C 
ATOM      3  N   UNL     1       3.972   6.982  17.476  0.00  0.00    +0.000 N 
ATOM      4  C   UNL     1       4.530   5.898  16.705  0.00  0.00    +0.000 C 
ATOM      5  C   UNL     1       5.538   6.414  15.676  0.00  0.00    +0.000 C 
ATOM      6  C   UNL     1       6.040   5.257  14.820  0.00  0.00    +0.000 C 
ATOM      7  C   UNL     1       6.606   4.123  15.671  0.00  0.00    +0.000 C 
ATOM      8  C   UNL     1       5.647   3.652  16.780  0.00  0.00    +0.000 C 
ATOM      9  C   UNL     1       5.098   4.810  17.644  0.00  0.00    +0.000 C 
ATOM     10  C   UNL     1       4.002   4.411  18.631  0.00  0.00    +0.000 A 
ATOM     11  C   UNL     1       4.074   3.256  19.432  0.00  0.00    +0.000 A 
ATOM     12  C   UNL     1       3.036   3.023  20.318  0.00  0.00    +0.000 A 
ATOM     13  C   UNL     1       1.907   3.818  20.357  0.00  0.00    +0.000 A 
ATOM     14  C   UNL     1       1.788   4.950  19.609  0.00  0.00    +0.000 A 
ATOM     15  C   UNL     1       2.891   5.296  18.833  0.00  0.00    +0.000 A 
ATOM     16  O   UNL     1       1.018   3.414  21.307  0.00  0.00    +0.000 OA
ATOM     17  C   UNL     1       1.892   2.574  22.080  0.00  0.00    +0.000 C 
ATOM     18  O   UNL     1       3.000   2.074  21.297  0.00  0.00    +0.000 OA
ATOM     19  H   UNL     1       3.978   7.928  17.107  0.00  0.00    +0.000 HD
ENDROOT
BRANCH   5  20
ATOM     20  O   UNL     1       4.914   7.389  14.831  0.00  0.00    +0.000 OA
ATOM     21  H   UNL     1       5.412   8.224  14.894  0.00  0.00    +0.000 HD
ENDBRANCH   5  20
BRANCH   7  22
ATOM     22  O   UNL     1       7.856   4.502  16.241  0.00  0.00    +0.000 OA
ATOM     23  H   UNL     1       8.169   3.826  16.865  0.00  0.00    +0.000 HD
ENDBRANCH   7  22
TORSDOF 2
ENDMDL
MODEL 9
REMARK VINA RESULT:      -6.9      5.206      7.224
REMARK  Name = 
REMARK  2 active torsions:
REMARK  status: ('A' for Active; 'I' for Inactive)
REMARK    1  A    between atoms: C_5  and  O_6
REMARK    2  A    between atoms: C_8  and  O_9
REMARK                            x       y       z     vdW  Elec       q    Type
REMARK                         _______ _______ _______ _____ _____    ______ ____
ROOT
ATOM      1  O   UNL     1       1.425   9.380  22.834  0.00  0.00    +0.000 OA
ATOM      2  C   UNL     1       0.964   9.637  21.730  0.00  0.00    +0.000 C 
ATOM      3  N   UNL     1       0.226  10.765  21.504  0.00  0.00    +0.000 N 
ATOM      4  C   UNL     1      -0.653  10.790  20.361  0.00  0.00    +0.000 C 
ATOM      5  C   UNL     1      -1.511  12.058  20.350  0.00  0.00    +0.000 C 
ATOM      6  C   UNL     1      -2.488  12.010  19.182  0.00  0.00    +0.000 C 
ATOM      7  C   UNL     1      -1.776  11.778  17.852  0.00  0.00    +0.000 C 
ATOM      8  C   UNL     1      -0.829  10.563  17.868  0.00  0.00    +0.000 C 
ATOM      9  C   UNL     1       0.153  10.571  19.061  0.00  0.00    +0.000 C 
ATOM     10  C   UNL     1       0.980   9.295  19.220  0.00  0.00    +0.000 A 
ATOM     11  C   UNL     1       1.600   8.643  18.139  0.00  0.00    +0.000 A 
ATOM     12  C   UNL     1       2.357   7.517  18.416  0.00  0.00    +0.000 A 
ATOM     13  C   UNL     1       2.426   6.968  19.683  0.00  0.00    +0.000 A 
ATOM     14  C   UNL     1       1.850   7.561  20.765  0.00  0.00    +0.000 A 
ATOM     15  C   UNL     1       1.224   8.785  20.538  0.00  0.00    +0.000 A 
ATOM     16  O   UNL     1       3.231   5.871  19.731  0.00  0.00    +0.000 OA
ATOM     17  C   UNL     1       3.935   6.062  18.493  0.00  0.00    +0.000 C 
ATOM     18  O   UNL     1       3.175   6.854  17.550  0.00  0.00    +0.000 OA
ATOM     19  H   UNL     1       0.005  11.313  22.331  0.00  0.00    +0.000 HD
ENDROOT
BRANCH   5  20
ATOM     20  O   UNL     1      -2.245  12.158  21.576  0.00  0.00    +0.000 OA
ATOM     21  H   UNL     1      -3.195  12.068  21.382  0.00  0.00    +0.000 HD
ENDBRANCH   5  20
BRANCH   7  22
ATOM     22  O   UNL     1      -1.058  12.945  17.459  0.00  0.00    +0.000 OA
ATOM     23  H   UNL     1      -1.670  13.657  17.208  0.00  0.00    +0.000 HD
ENDBRANCH   7  22
TORSDOF 2
ENDMDL
