MODEL 1
REMARK VINA RESULT:      -6.9      0.000      0.000
REMARK  Name = 
REMARK  6 active torsions:
REMARK  status: ('A' for Active; 'I' for Inactive)
REMARK    1  A    between atoms: C_1  and  C_2
REMARK    2  A    between atoms: C_7  and  N_8
REMARK    3  A    between atoms: N_8  and  C_9
REMARK    4  A    between atoms: C_9  and  C_10
REMARK    5  A    between atoms: N_18  and  C_19
REMARK    6  A    between atoms: C_20  and  C_21
REMARK                            x       y       z     vdW  Elec       q    Type
REMARK                         _______ _______ _______ _____ _____    ______ ____
ROOT
ATOM      1  N   UNL     1       2.732   7.127  19.175  0.00  0.00    +0.000 NA
ATOM      2  H   UNL     1       3.590   7.447  19.630  0.00  0.00    +0.000 HD
ENDROOT
BRANCH   1   9
ATOM      3  C   UNL     1       7.809   4.448  17.756  0.00  0.00    +0.000 C 
ATOM      4  C   UNL     1       7.144   5.700  17.247  0.00  0.00    +0.000 C 
ATOM      5  O   UNL     1       7.657   6.333  16.323  0.00  0.00    +0.000 OA
ATOM      6  N   UNL     1       5.935   6.055  17.822  0.00  0.00    +0.000 N 
ATOM      7  C   UNL     1       5.180   7.167  17.253  0.00  0.00    +0.000 C 
ATOM      8  C   UNL     1       3.768   6.702  16.904  0.00  0.00    +0.000 C 
ATOM      9  C   UNL     1       3.034   6.127  18.136  0.00  0.00    +0.000 C 
ATOM     10  C   UNL     1       3.900   4.957  18.686  0.00  0.00    +0.000 C 
ATOM     11  C   UNL     1       3.296   4.233  19.888  0.00  0.00    +0.000 C 
ATOM     12  C   UNL     1       5.332   5.420  18.995  0.00  0.00    +0.000 C 
ENDBRANCH   1   9
BRANCH   1  13
ATOM     13  C   UNL     1       2.065   8.325  18.646  0.00  0.00    +0.000 C 
BRANCH  13  14
ATOM     14  C   UNL     1       1.321   9.019  19.742  0.00  0.00    +0.000 A 
ATOM     15  N   UNL     1       0.847   8.433  20.826  0.00  0.00    +0.000 NA
ATOM     16  C   UNL     1       0.215   9.420  21.534  0.00  0.00    +0.000 A 
ATOM     17  C   UNL     1      -0.460   9.335  22.758  0.00  0.00    +0.000 A 
ATOM     18  C   UNL     1      -1.055  10.495  23.275  0.00  0.00    +0.000 A 
ATOM     19  C   UNL     1      -0.966  11.711  22.593  0.00  0.00    +0.000 A 
ATOM     20  C   UNL     1      -0.283  11.813  21.376  0.00  0.00    +0.000 A 
ATOM     21  C   UNL     1       0.298  10.644  20.870  0.00  0.00    +0.000 A 
ATOM     22  N   UNL     1       1.017  10.360  19.734  0.00  0.00    +0.000 N 
ATOM     23  C   UNL     1       1.384  11.285  18.689  0.00  0.00    +0.000 C 
ENDBRANCH  13  14
ENDBRANCH   1  13
TORSDOF 3
ENDMDL
MODEL 2
REMARK VINA RESULT:      -6.9      2.311      3.104
REMARK  Name = 
REMARK  6 active torsions:
REMARK  status: ('A' for Active; 'I' for Inactive)
REMARK    1  A    between atoms: C_1  and  C_2
REMARK    2  A    between atoms: C_7  and  N_8
REMARK    3  A    between atoms: N_8  and  C_9
REMARK    4  A    between atoms: C_9  and  C_10
REMARK    5  A    between atoms: N_18  and  C_19
REMARK    6  A    between atoms: C_20  and  C_21
REMARK                            x       y       z     vdW  Elec       q    Type
REMARK                         _______ _______ _______ _____ _____    ______ ____
ROOT
ATOM      1  N   UNL     1       1.980   7.328  18.228  0.00  0.00    +0.000 NA
ATOM      2  H   UNL     1       1.035   7.135  18.565  0.00  0.00    +0.000 HD
ENDROOT
BRANCH   1   9
ATOM      3  C   UNL     1       3.524   1.622  18.058  0.00  0.00    +0.000 C 
ATOM      4  C   UNL     1       2.517   2.378  18.885  0.00  0.00    +0.000 C 
ATOM      5  O   UNL     1       1.873   1.789  19.755  0.00  0.00    +0.000 OA
ATOM      6  N   UNL     1       2.400   3.739  18.654  0.00  0.00    +0.000 N 
ATOM      7  C   UNL     1       1.555   4.537  19.538  0.00  0.00    +0.000 C 
ATOM      8  C   UNL     1       2.369   5.691  20.120  0.00  0.00    +0.000 C 
ATOM      9  C   UNL     1       2.978   6.578  19.011  0.00  0.00    +0.000 C 
ATOM     10  C   UNL     1       3.855   5.658  18.113  0.00  0.00    +0.000 C 
ATOM     11  C   UNL     1       4.581   6.384  16.982  0.00  0.00    +0.000 C 
ATOM     12  C   UNL     1       3.042   4.475  17.565  0.00  0.00    +0.000 C 
ENDBRANCH   1   9
BRANCH   1  13
ATOM     13  C   UNL     1       2.165   8.784  18.303  0.00  0.00    +0.000 C 
BRANCH  13  14
ATOM     14  C   UNL     1       1.417   9.332  19.476  0.00  0.00    +0.000 A 
ATOM     15  N   UNL     1       0.974   8.617  20.493  0.00  0.00    +0.000 NA
ATOM     16  C   UNL     1       0.324   9.503  21.312  0.00  0.00    +0.000 A 
ATOM     17  C   UNL     1      -0.332   9.264  22.526  0.00  0.00    +0.000 A 
ATOM     18  C   UNL     1      -0.951  10.343  23.173  0.00  0.00    +0.000 A 
ATOM     19  C   UNL     1      -0.905  11.628  22.629  0.00  0.00    +0.000 A 
ATOM     20  C   UNL     1      -0.241  11.883  21.423  0.00  0.00    +0.000 A 
ATOM     21  C   UNL     1       0.365  10.793  20.786  0.00  0.00    +0.000 A 
ATOM     22  N   UNL     1       1.077  10.657  19.618  0.00  0.00    +0.000 N 
ATOM     23  C   UNL     1       1.404  11.700  18.677  0.00  0.00    +0.000 C 
ENDBRANCH  13  14
ENDBRANCH   1  13
TORSDOF 3
ENDMDL
MODEL 3
REMARK VINA RESULT:      -6.9      3.085      8.041
REMARK  Name = 
REMARK  6 active torsions:
REMARK  status: ('A' for Active; 'I' for Inactive)
REMARK    1  A    between atoms: C_1  and  C_2
REMARK    2  A    between atoms: C_7  and  N_8
REMARK    3  A    between atoms: N_8  and  C_9
REMARK    4  A    between atoms: C_9  and  C_10
REMARK    5  A    between atoms: N_18  and  C_19
REMARK    6  A    between atoms: C_20  and  C_21
REMARK                            x       y       z     vdW  Elec       q    Type
REMARK                         _______ _______ _______ _____ _____    ______ ____
ROOT
ATOM      1  N   UNL     1       1.842   7.885  20.591  0.00  0.00    +0.000 NA
ATOM      2  H   UNL     1       2.149   8.133  21.534  0.00  0.00    +0.000 HD
ENDROOT
BRANCH   1   9
ATOM      3  C   UNL     1      -0.568  13.245  21.251  0.00  0.00    +0.000 C 
ATOM      4  C   UNL     1      -0.467  12.056  22.171  0.00  0.00    +0.000 C 
ATOM      5  O   UNL     1      -0.999  12.094  23.281  0.00  0.00    +0.000 OA
ATOM      6  N   UNL     1       0.192  10.936  21.690  0.00  0.00    +0.000 N 
ATOM      7  C   UNL     1       0.175   9.710  22.483  0.00  0.00    +0.000 C 
ATOM      8  C   UNL     1      -0.364   8.560  21.636  0.00  0.00    +0.000 C 
ATOM      9  C   UNL     1       0.467   8.358  20.350  0.00  0.00    +0.000 C 
ATOM     10  C   UNL     1       0.441   9.703  19.567  0.00  0.00    +0.000 C 
ATOM     11  C   UNL     1       1.179   9.671  18.229  0.00  0.00    +0.000 C 
ATOM     12  C   UNL     1       0.944  10.865  20.437  0.00  0.00    +0.000 C 
ENDBRANCH   1   9
BRANCH   1  13
ATOM     13  C   UNL     1       1.978   6.427  20.473  0.00  0.00    +0.000 C 
BRANCH  13  14
ATOM     14  C   UNL     1       2.841   6.091  19.299  0.00  0.00    +0.000 A 
ATOM     15  N   UNL     1       3.398   6.972  18.490  0.00  0.00    +0.000 NA
ATOM     16  C   UNL     1       4.065   6.239  17.545  0.00  0.00    +0.000 A 
ATOM     17  C   UNL     1       4.820   6.683  16.452  0.00  0.00    +0.000 A 
ATOM     18  C   UNL     1       5.391   5.726  15.601  0.00  0.00    +0.000 A 
ATOM     19  C   UNL     1       5.223   4.361  15.844  0.00  0.00    +0.000 A 
ATOM     20  C   UNL     1       4.483   3.903  16.939  0.00  0.00    +0.000 A 
ATOM     21  C   UNL     1       3.912   4.872  17.774  0.00  0.00    +0.000 A 
ATOM     22  N   UNL     1       3.135   4.806  18.905  0.00  0.00    +0.000 N 
ATOM     23  C   UNL     1       2.674   3.611  19.570  0.00  0.00    +0.000 C 
ENDBRANCH  13  14
ENDBRANCH   1  13
TORSDOF 3
ENDMDL
MODEL 4
REMARK VINA RESULT:      -6.9      1.867      3.052
REMARK  Name = 
REMARK  6 active torsions:
REMARK  status: ('A' for Active; 'I' for Inactive)
REMARK    1  A    between atoms: C_1  and  C_2
REMARK    2  A    between atoms: C_7  and  N_8
REMARK    3  A    between atoms: N_8  and  C_9
REMARK    4  A    between atoms: C_9  and  C_10
REMARK    5  A    between atoms: N_18  and  C_19
REMARK    6  A    between atoms: C_20  and  C_21
REMARK                            x       y       z     vdW  Elec       q    Type
REMARK                         _______ _______ _______ _____ _____    ______ ____
ROOT
ATOM      1  N   UNL     1       4.647   5.578  19.384  0.00  0.00    +0.000 NA
ATOM      2  H   UNL     1       4.763   6.423  18.821  0.00  0.00    +0.000 HD
ENDROOT
BRANCH   1   9
ATOM      3  C   UNL     1       7.349   5.017  14.153  0.00  0.00    +0.000 C 
ATOM      4  C   UNL     1       5.974   4.632  14.633  0.00  0.00    +0.000 C 
ATOM      5  O   UNL     1       5.206   4.038  13.875  0.00  0.00    +0.000 OA
ATOM      6  N   UNL     1       5.655   4.928  15.949  0.00  0.00    +0.000 N 
ATOM      7  C   UNL     1       4.398   4.432  16.501  0.00  0.00    +0.000 C 
ATOM      8  C   UNL     1       4.677   3.628  17.769  0.00  0.00    +0.000 C 
ATOM      9  C   UNL     1       5.435   4.466  18.822  0.00  0.00    +0.000 C 
ATOM     10  C   UNL     1       6.753   4.960  18.159  0.00  0.00    +0.000 C 
ATOM     11  C   UNL     1       7.660   5.772  19.082  0.00  0.00    +0.000 C 
ATOM     12  C   UNL     1       6.469   5.731  16.861  0.00  0.00    +0.000 C 
ENDBRANCH   1   9
BRANCH   1  13
ATOM     13  C   UNL     1       3.206   5.297  19.431  0.00  0.00    +0.000 C 
BRANCH  13  14
ATOM     14  C   UNL     1       2.454   6.551  19.746  0.00  0.00    +0.000 A 
ATOM     15  N   UNL     1       1.743   6.753  20.841  0.00  0.00    +0.000 NA
ATOM     16  C   UNL     1       1.203   8.005  20.705  0.00  0.00    +0.000 A 
ATOM     17  C   UNL     1       0.366   8.704  21.582  0.00  0.00    +0.000 A 
ATOM     18  C   UNL     1      -0.082   9.978  21.204  0.00  0.00    +0.000 A 
ATOM     19  C   UNL     1       0.308  10.543  19.988  0.00  0.00    +0.000 A 
ATOM     20  C   UNL     1       1.156   9.860  19.108  0.00  0.00    +0.000 A 
ATOM     21  C   UNL     1       1.587   8.587  19.497  0.00  0.00    +0.000 A 
ATOM     22  N   UNL     1       2.392   7.640  18.909  0.00  0.00    +0.000 N 
ATOM     23  C   UNL     1       3.051   7.739  17.630  0.00  0.00    +0.000 C 
ENDBRANCH  13  14
ENDBRANCH   1  13
TORSDOF 3
ENDMDL
MODEL 5
REMARK VINA RESULT:      -6.6      4.237      5.803
REMARK  Name = 
REMARK  6 active torsions:
REMARK  status: ('A' for Active; 'I' for Inactive)
REMARK    1  A    between atoms: C_1  and  C_2
REMARK    2  A    between atoms: C_7  and  N_8
REMARK    3  A    between atoms: N_8  and  C_9
REMARK    4  A    between atoms: C_9  and  C_10
REMARK    5  A    between atoms: N_18  and  C_19
REMARK    6  A    between atoms: C_20  and  C_21
REMARK                            x       y       z     vdW  Elec       q    Type
REMARK                         _______ _______ _______ _____ _____    ______ ____
ROOT
ATOM      1  N   UNL     1       6.566   4.575  17.465  0.00  0.00    +0.000 NA
ATOM      2  H   UNL     1       7.565   4.642  17.261  0.00  0.00    +0.000 HD
ENDROOT
BRANCH   1   9
ATOM      3  C   UNL     1       5.449   2.926  11.897  0.00  0.00    +0.000 C 
ATOM      4  C   UNL     1       6.521   3.792  12.505  0.00  0.00    +0.000 C 
ATOM      5  O   UNL     1       7.344   4.349  11.776  0.00  0.00    +0.000 OA
ATOM      6  N   UNL     1       6.495   3.965  13.879  0.00  0.00    +0.000 N 
ATOM      7  C   UNL     1       7.414   4.921  14.490  0.00  0.00    +0.000 C 
ATOM      8  C   UNL     1       6.625   5.927  15.325  0.00  0.00    +0.000 C 
ATOM      9  C   UNL     1       5.774   5.229  16.409  0.00  0.00    +0.000 C 
ATOM     10  C   UNL     1       4.830   4.228  15.682  0.00  0.00    +0.000 C 
ATOM     11  C   UNL     1       3.872   3.478  16.605  0.00  0.00    +0.000 C 
ATOM     12  C   UNL     1       5.625   3.245  14.810  0.00  0.00    +0.000 C 
ENDBRANCH   1   9
BRANCH   1  13
ATOM     13  C   UNL     1       6.365   5.175  18.791  0.00  0.00    +0.000 C 
BRANCH  13  14
ATOM     14  C   UNL     1       5.092   4.670  19.391  0.00  0.00    +0.000 A 
ATOM     15  N   UNL     1       4.938   3.488  19.959  0.00  0.00    +0.000 NA
ATOM     16  C   UNL     1       3.623   3.426  20.335  0.00  0.00    +0.000 A 
ATOM     17  C   UNL     1       2.936   2.389  20.977  0.00  0.00    +0.000 A 
ATOM     18  C   UNL     1       1.568   2.553  21.237  0.00  0.00    +0.000 A 
ATOM     19  C   UNL     1       0.908   3.730  20.878  0.00  0.00    +0.000 A 
ATOM     20  C   UNL     1       1.585   4.781  20.248  0.00  0.00    +0.000 A 
ATOM     21  C   UNL     1       2.948   4.596  19.988  0.00  0.00    +0.000 A 
ATOM     22  N   UNL     1       3.912   5.376  19.395  0.00  0.00    +0.000 N 
ATOM     23  C   UNL     1       3.737   6.698  18.846  0.00  0.00    +0.000 C 
ENDBRANCH  13  14
ENDBRANCH   1  13
TORSDOF 3
ENDMDL
MODEL 6
REMARK VINA RESULT:      -6.6      3.014      4.000
REMARK  Name = 
REMARK  6 active torsions:
REMARK  status: ('A' for Active; 'I' for Inactive)
REMARK    1  A    between atoms: C_1  and  C_2
REMARK    2  A    between atoms: C_7  and  N_8
REMARK    3  A    between atoms: N_8  and  C_9
REMARK    4  A    between atoms: C_9  and  C_10
REMARK    5  A    between atoms: N_18  and  C_19
REMARK    6  A    between atoms: C_20  and  C_21
REMARK                            x       y       z     vdW  Elec       q    Type
REMARK                         _______ _______ _______ _____ _____    ______ ____
ROOT
ATOM      1  N   UNL     1       2.014   7.595  18.060  0.00  0.00    +0.000 NA
ATOM      2  H   UNL     1       1.055   7.306  18.264  0.00  0.00    +0.000 HD
ENDROOT
BRANCH   1   9
ATOM      3  C   UNL     1       3.512   1.876  18.182  0.00  0.00    +0.000 C 
ATOM      4  C   UNL     1       2.478   2.671  18.934  0.00  0.00    +0.000 C 
ATOM      5  O   UNL     1       1.792   2.122  19.798  0.00  0.00    +0.000 OA
ATOM      6  N   UNL     1       2.383   4.023  18.645  0.00  0.00    +0.000 N 
ATOM      7  C   UNL     1       1.509   4.861  19.460  0.00  0.00    +0.000 C 
ATOM      8  C   UNL     1       2.307   6.032  20.030  0.00  0.00    +0.000 C 
ATOM      9  C   UNL     1       2.970   6.869  18.914  0.00  0.00    +0.000 C 
ATOM     10  C   UNL     1       3.876   5.908  18.092  0.00  0.00    +0.000 C 
ATOM     11  C   UNL     1       4.657   6.584  16.965  0.00  0.00    +0.000 C 
ATOM     12  C   UNL     1       3.078   4.710  17.556  0.00  0.00    +0.000 C 
ENDBRANCH   1   9
BRANCH   1  13
ATOM     13  C   UNL     1       2.064   9.051  18.247  0.00  0.00    +0.000 C 
BRANCH  13  14
ATOM     14  C   UNL     1       0.678   9.613  18.243  0.00  0.00    +0.000 A 
ATOM     15  N   UNL     1      -0.267   9.293  17.378  0.00  0.00    +0.000 NA
ATOM     16  C   UNL     1      -1.352  10.057  17.715  0.00  0.00    +0.000 A 
ATOM     17  C   UNL     1      -2.616  10.109  17.116  0.00  0.00    +0.000 A 
ATOM     18  C   UNL     1      -3.565  11.003  17.633  0.00  0.00    +0.000 A 
ATOM     19  C   UNL     1      -3.263  11.813  18.729  0.00  0.00    +0.000 A 
ATOM     20  C   UNL     1      -2.007  11.762  19.347  0.00  0.00    +0.000 A 
ATOM     21  C   UNL     1      -1.070  10.871  18.812  0.00  0.00    +0.000 A 
ATOM     22  N   UNL     1       0.230  10.560  19.134  0.00  0.00    +0.000 N 
ATOM     23  C   UNL     1       1.016  11.128  20.201  0.00  0.00    +0.000 C 
ENDBRANCH  13  14
ENDBRANCH   1  13
TORSDOF 3
ENDMDL
MODEL 7
REMARK VINA RESULT:      -6.4      1.429      2.440
REMARK  Name = 
REMARK  6 active torsions:
REMARK  status: ('A' for Active; 'I' for Inactive)
REMARK    1  A    between atoms: C_1  and  C_2
REMARK    2  A    between atoms: C_7  and  N_8
REMARK    3  A    between atoms: N_8  and  C_9
REMARK    4  A    between atoms: C_9  and  C_10
REMARK    5  A    between atoms: N_18  and  C_19
REMARK    6  A    between atoms: C_20  and  C_21
REMARK                            x       y       z     vdW  Elec       q    Type
REMARK                         _______ _______ _______ _____ _____    ______ ____
ROOT
ATOM      1  N   UNL     1       2.327   7.417  20.375  0.00  0.00    +0.000 NA
ATOM      2  H   UNL     1       2.749   8.292  20.060  0.00  0.00    +0.000 HD
ENDROOT
BRANCH   1   9
ATOM      3  C   UNL     1       5.923   4.428  16.756  0.00  0.00    +0.000 C 
ATOM      4  C   UNL     1       5.310   5.801  16.673  0.00  0.00    +0.000 C 
ATOM      5  O   UNL     1       5.497   6.495  15.672  0.00  0.00    +0.000 OA
ATOM      6  N   UNL     1       4.505   6.202  17.727  0.00  0.00    +0.000 N 
ATOM      7  C   UNL     1       3.765   7.455  17.615  0.00  0.00    +0.000 C 
ATOM      8  C   UNL     1       2.279   7.195  17.853  0.00  0.00    +0.000 C 
ATOM      9  C   UNL     1       2.027   6.541  19.230  0.00  0.00    +0.000 C 
ATOM     10  C   UNL     1       2.850   5.221  19.272  0.00  0.00    +0.000 C 
ATOM     11  C   UNL     1       2.678   4.409  20.555  0.00  0.00    +0.000 C 
ATOM     12  C   UNL     1       4.337   5.482  18.990  0.00  0.00    +0.000 C 
ENDBRANCH   1   9
BRANCH   1  13
ATOM     13  C   UNL     1       1.133   7.781  21.151  0.00  0.00    +0.000 C 
BRANCH  13  14
ATOM     14  C   UNL     1       0.803   9.223  20.931  0.00  0.00    +0.000 A 
ATOM     15  N   UNL     1       1.034   9.892  19.817  0.00  0.00    +0.000 NA
ATOM     16  C   UNL     1       0.614  11.173  20.061  0.00  0.00    +0.000 A 
ATOM     17  C   UNL     1       0.637  12.286  19.212  0.00  0.00    +0.000 A 
ATOM     18  C   UNL     1       0.168  13.512  19.705  0.00  0.00    +0.000 A 
ATOM     19  C   UNL     1      -0.325  13.619  21.007  0.00  0.00    +0.000 A 
ATOM     20  C   UNL     1      -0.367  12.511  21.862  0.00  0.00    +0.000 A 
ATOM     21  C   UNL     1       0.114  11.297  21.357  0.00  0.00    +0.000 A 
ATOM     22  N   UNL     1       0.238  10.035  21.887  0.00  0.00    +0.000 N 
ATOM     23  C   UNL     1      -0.131   9.615  23.216  0.00  0.00    +0.000 C 
ENDBRANCH  13  14
ENDBRANCH   1  13
TORSDOF 3
ENDMDL
MODEL 8
REMARK VINA RESULT:      -6.4      2.080      3.715
REMARK  Name = 
REMARK  6 active torsions:
REMARK  status: ('A' for Active; 'I' for Inactive)
REMARK    1  A    between atoms: C_1  and  C_2
REMARK    2  A    between atoms: C_7  and  N_8
REMARK    3  A    between atoms: N_8  and  C_9
REMARK    4  A    between atoms: C_9  and  C_10
REMARK    5  A    between atoms: N_18  and  C_19
REMARK    6  A    between atoms: C_20  and  C_21
REMARK                            x       y       z     vdW  Elec       q    Type
REMARK                         _______ _______ _______ _____ _____    ______ ____
ROOT
ATOM      1  N   UNL     1       4.900   5.551  19.036  0.00  0.00    +0.000 NA
ATOM      2  H   UNL     1       5.091   6.405  18.507  0.00  0.00    +0.000 HD
ENDROOT
BRANCH   1   9
ATOM      3  C   UNL     1       7.554   4.888  13.793  0.00  0.00    +0.000 C 
ATOM      4  C   UNL     1       6.167   4.556  14.280  0.00  0.00    +0.000 C 
ATOM      5  O   UNL     1       5.373   3.992  13.526  0.00  0.00    +0.000 OA
ATOM      6  N   UNL     1       5.866   4.864  15.596  0.00  0.00    +0.000 N 
ATOM      7  C   UNL     1       4.593   4.416  16.154  0.00  0.00    +0.000 C 
ATOM      8  C   UNL     1       4.847   3.602  17.421  0.00  0.00    +0.000 C 
ATOM      9  C   UNL     1       5.642   4.410  18.471  0.00  0.00    +0.000 C 
ATOM     10  C   UNL     1       6.975   4.853  17.802  0.00  0.00    +0.000 C 
ATOM     11  C   UNL     1       7.917   5.630  18.721  0.00  0.00    +0.000 C 
ATOM     12  C   UNL     1       6.715   5.636  16.505  0.00  0.00    +0.000 C 
ENDBRANCH   1   9
BRANCH   1  13
ATOM     13  C   UNL     1       3.444   5.360  19.015  0.00  0.00    +0.000 C 
BRANCH  13  14
ATOM     14  C   UNL     1       2.755   6.687  19.020  0.00  0.00    +0.000 A 
ATOM     15  N   UNL     1       2.903   7.621  18.099  0.00  0.00    +0.000 NA
ATOM     16  C   UNL     1       2.126   8.672  18.509  0.00  0.00    +0.000 A 
ATOM     17  C   UNL     1       1.927   9.915  17.896  0.00  0.00    +0.000 A 
ATOM     18  C   UNL     1       1.095  10.848  18.532  0.00  0.00    +0.000 A 
ATOM     19  C   UNL     1       0.467  10.541  19.741  0.00  0.00    +0.000 A 
ATOM     20  C   UNL     1       0.647   9.297  20.358  0.00  0.00    +0.000 A 
ATOM     21  C   UNL     1       1.487   8.381  19.714  0.00  0.00    +0.000 A 
ATOM     22  N   UNL     1       1.899   7.104  20.013  0.00  0.00    +0.000 N 
ATOM     23  C   UNL     1       1.531   6.325  21.169  0.00  0.00    +0.000 C 
ENDBRANCH  13  14
ENDBRANCH   1  13
TORSDOF 3
ENDMDL
MODEL 9
REMARK VINA RESULT:      -6.4      2.972      7.981
REMARK  Name = 
REMARK  6 active torsions:
REMARK  status: ('A' for Active; 'I' for Inactive)
REMARK    1  A    between atoms: C_1  and  C_2
REMARK    2  A    between atoms: C_7  and  N_8
REMARK    3  A    between atoms: N_8  and  C_9
REMARK    4  A    between atoms: C_9  and  C_10
REMARK    5  A    between atoms: N_18  and  C_19
REMARK    6  A    between atoms: C_20  and  C_21
REMARK                            x       y       z     vdW  Elec       q    Type
REMARK                         _______ _______ _______ _____ _____    ______ ____
ROOT
ATOM      1  N   UNL     1       1.450   7.600  19.394  0.00  0.00    +0.000 NA
ATOM      2  H   UNL     1       1.305   7.359  18.411  0.00  0.00    +0.000 HD
ENDROOT
BRANCH   1   9
ATOM      3  C   UNL     1      -2.129  12.261  20.053  0.00  0.00    +0.000 C 
ATOM      4  C   UNL     1      -1.520  11.611  18.838  0.00  0.00    +0.000 C 
ATOM      5  O   UNL     1      -1.708  12.101  17.723  0.00  0.00    +0.000 OA
ATOM      6  N   UNL     1      -0.720  10.500  19.047  0.00  0.00    +0.000 N 
ATOM      7  C   UNL     1       0.017   9.937  17.919  0.00  0.00    +0.000 C 
ATOM      8  C   UNL     1       1.503   9.865  18.262  0.00  0.00    +0.000 C 
ATOM      9  C   UNL     1       1.755   9.034  19.540  0.00  0.00    +0.000 C 
ATOM     10  C   UNL     1       0.936   9.692  20.688  0.00  0.00    +0.000 C 
ATOM     11  C   UNL     1       1.108   9.023  22.052  0.00  0.00    +0.000 C 
ATOM     12  C   UNL     1      -0.551   9.800  20.321  0.00  0.00    +0.000 C 
ENDBRANCH   1   9
BRANCH   1  13
ATOM     13  C   UNL     1       2.524   6.728  19.888  0.00  0.00    +0.000 C 
BRANCH  13  14
ATOM     14  C   UNL     1       3.342   6.228  18.740  0.00  0.00    +0.000 A 
ATOM     15  N   UNL     1       3.855   6.985  17.787  0.00  0.00    +0.000 NA
ATOM     16  C   UNL     1       4.491   6.124  16.933  0.00  0.00    +0.000 A 
ATOM     17  C   UNL     1       5.195   6.408  15.757  0.00  0.00    +0.000 A 
ATOM     18  C   UNL     1       5.742   5.340  15.031  0.00  0.00    +0.000 A 
ATOM     19  C   UNL     1       5.602   4.024  15.478  0.00  0.00    +0.000 A 
ATOM     20  C   UNL     1       4.913   3.727  16.660  0.00  0.00    +0.000 A 
ATOM     21  C   UNL     1       4.365   4.805  17.366  0.00  0.00    +0.000 A 
ATOM     22  N   UNL     1       3.635   4.901  18.527  0.00  0.00    +0.000 N 
ATOM     23  C   UNL     1       3.217   3.815  19.379  0.00  0.00    +0.000 C 
ENDBRANCH  13  14
ENDBRANCH   1  13
TORSDOF 3
ENDMDL
