MODEL 1
REMARK VINA RESULT:      -7.0      0.000      0.000
REMARK  Name = 
REMARK  6 active torsions:
REMARK  status: ('A' for Active; 'I' for Inactive)
REMARK    1  A    between atoms: C_1  and  C_2
REMARK    2  A    between atoms: C_5  and  C_6
REMARK    3  A    between atoms: C_7  and  N_8
REMARK    4  A    between atoms: C_9  and  S_10
REMARK    5  A    between atoms: N_11  and  C_12
REMARK    6  A    between atoms: C_12  and  C_13
REMARK                            x       y       z     vdW  Elec       q    Type
REMARK                         _______ _______ _______ _____ _____    ______ ____
ROOT
ATOM      1  N   UNL     1       4.602   7.254  16.832  0.00  0.00    +0.000 N 
ATOM      2  C   UNL     1       3.663   7.140  17.830  0.00  0.00    +0.000 C 
ATOM      3  N   UNL     1       3.589   6.194  18.699  0.00  0.00    +0.000 NA
ATOM      4  H   UNL     1       4.745   8.193  16.489  0.00  0.00    +0.000 HD
ENDROOT
BRANCH   1  11
ATOM      5  C   UNL     1       5.425   3.843  13.358  0.00  0.00    +0.000 C 
ATOM      6  C   UNL     1       5.911   4.565  14.577  0.00  0.00    +0.000 A 
ATOM      7  C   UNL     1       7.127   4.265  15.184  0.00  0.00    +0.000 A 
ATOM      8  C   UNL     1       7.518   4.965  16.326  0.00  0.00    +0.000 A 
ATOM      9  C   UNL     1       6.703   5.966  16.885  0.00  0.00    +0.000 A 
ATOM     10  C   UNL     1       7.213   6.681  18.111  0.00  0.00    +0.000 C 
ATOM     11  C   UNL     1       5.454   6.269  16.293  0.00  0.00    +0.000 A 
ATOM     12  C   UNL     1       5.104   5.567  15.130  0.00  0.00    +0.000 A 
ENDBRANCH   1  11
BRANCH   2  13
ATOM     13  S   UNL     1       2.534   8.498  17.774  0.00  0.00    +0.000 S 
ATOM     14  H   UNL     1       2.889   8.936  16.558  0.00  0.00    +0.000 HD
ENDBRANCH   2  13
BRANCH   3  15
ATOM     15  C   UNL     1       2.543   6.111  19.712  0.00  0.00    +0.000 C 
BRANCH  15  16
ATOM     16  C   UNL     1       1.969   4.718  19.912  0.00  0.00    +0.000 A 
ATOM     17  C   UNL     1       1.512   4.020  18.782  0.00  0.00    +0.000 A 
ATOM     18  C   UNL     1       0.988   2.729  18.895  0.00  0.00    +0.000 A 
ATOM     19  C   UNL     1       0.928   2.115  20.143  0.00  0.00    +0.000 A 
ATOM     20  C   UNL     1       1.405   2.783  21.267  0.00  0.00    +0.000 A 
ATOM     21  C   UNL     1       1.925   4.078  21.154  0.00  0.00    +0.000 A 
ENDBRANCH  15  16
ENDBRANCH   3  15
TORSDOF 4
ENDMDL
MODEL 2
REMARK VINA RESULT:      -6.9      0.267      1.126
REMARK  Name = 
REMARK  6 active torsions:
REMARK  status: ('A' for Active; 'I' for Inactive)
REMARK    1  A    between atoms: C_1  and  C_2
REMARK    2  A    between atoms: C_5  and  C_6
REMARK    3  A    between atoms: C_7  and  N_8
REMARK    4  A    between atoms: C_9  and  S_10
REMARK    5  A    between atoms: N_11  and  C_12
REMARK    6  A    between atoms: C_12  and  C_13
REMARK                            x       y       z     vdW  Elec       q    Type
REMARK                         _______ _______ _______ _____ _____    ______ ____
ROOT
ATOM      1  N   UNL     1       4.602   7.280  16.782  0.00  0.00    +0.000 N 
ATOM      2  C   UNL     1       3.685   7.189  17.802  0.00  0.00    +0.000 C 
ATOM      3  N   UNL     1       3.635   6.266  18.699  0.00  0.00    +0.000 NA
ATOM      4  H   UNL     1       4.731   8.210  16.411  0.00  0.00    +0.000 HD
ENDROOT
BRANCH   1  11
ATOM      5  C   UNL     1       5.384   3.802  13.366  0.00  0.00    +0.000 C 
ATOM      6  C   UNL     1       5.885   4.548  14.564  0.00  0.00    +0.000 A 
ATOM      7  C   UNL     1       7.109   4.262  15.161  0.00  0.00    +0.000 A 
ATOM      8  C   UNL     1       7.514   4.985  16.284  0.00  0.00    +0.000 A 
ATOM      9  C   UNL     1       6.705   5.996  16.834  0.00  0.00    +0.000 A 
ATOM     10  C   UNL     1       7.229   6.736  18.038  0.00  0.00    +0.000 C 
ATOM     11  C   UNL     1       5.448   6.286  16.252  0.00  0.00    +0.000 A 
ATOM     12  C   UNL     1       5.084   5.560  15.108  0.00  0.00    +0.000 A 
ENDBRANCH   1  11
BRANCH   2  13
ATOM     13  S   UNL     1       2.547   8.538  17.734  0.00  0.00    +0.000 S 
ATOM     14  H   UNL     1       1.485   7.818  17.348  0.00  0.00    +0.000 HD
ENDBRANCH   2  13
BRANCH   3  15
ATOM     15  C   UNL     1       2.611   6.205  19.735  0.00  0.00    +0.000 C 
BRANCH  15  16
ATOM     16  C   UNL     1       2.090   4.806  20.024  0.00  0.00    +0.000 A 
ATOM     17  C   UNL     1       2.248   4.294  21.322  0.00  0.00    +0.000 A 
ATOM     18  C   UNL     1       1.776   3.022  21.657  0.00  0.00    +0.000 A 
ATOM     19  C   UNL     1       1.127   2.251  20.697  0.00  0.00    +0.000 A 
ATOM     20  C   UNL     1       0.938   2.758  19.415  0.00  0.00    +0.000 A 
ATOM     21  C   UNL     1       1.414   4.030  19.078  0.00  0.00    +0.000 A 
ENDBRANCH  15  16
ENDBRANCH   3  15
TORSDOF 4
ENDMDL
MODEL 3
REMARK VINA RESULT:      -6.9      2.501      3.847
REMARK  Name = 
REMARK  6 active torsions:
REMARK  status: ('A' for Active; 'I' for Inactive)
REMARK    1  A    between atoms: C_1  and  C_2
REMARK    2  A    between atoms: C_5  and  C_6
REMARK    3  A    between atoms: C_7  and  N_8
REMARK    4  A    between atoms: C_9  and  S_10
REMARK    5  A    between atoms: N_11  and  C_12
REMARK    6  A    between atoms: C_12  and  C_13
REMARK                            x       y       z     vdW  Elec       q    Type
REMARK                         _______ _______ _______ _____ _____    ______ ____
ROOT
ATOM      1  N   UNL     1       4.880   3.298  17.763  0.00  0.00    +0.000 N 
ATOM      2  C   UNL     1       4.125   3.930  18.722  0.00  0.00    +0.000 C 
ATOM      3  N   UNL     1       3.651   5.125  18.651  0.00  0.00    +0.000 NA
ATOM      4  H   UNL     1       4.857   2.289  17.802  0.00  0.00    +0.000 HD
ENDROOT
BRANCH   1  11
ATOM      5  C   UNL     1       5.426   3.791  12.880  0.00  0.00    +0.000 C 
ATOM      6  C   UNL     1       5.903   4.135  14.258  0.00  0.00    +0.000 A 
ATOM      7  C   UNL     1       7.021   4.932  14.481  0.00  0.00    +0.000 A 
ATOM      8  C   UNL     1       7.422   5.206  15.790  0.00  0.00    +0.000 A 
ATOM      9  C   UNL     1       6.724   4.683  16.893  0.00  0.00    +0.000 A 
ATOM     10  C   UNL     1       7.219   5.044  18.271  0.00  0.00    +0.000 C 
ATOM     11  C   UNL     1       5.597   3.853  16.684  0.00  0.00    +0.000 A 
ATOM     12  C   UNL     1       5.204   3.621  15.358  0.00  0.00    +0.000 A 
ENDBRANCH   1  11
BRANCH   2  13
ATOM     13  S   UNL     1       3.871   2.866  20.109  0.00  0.00    +0.000 S 
ATOM     14  H   UNL     1       3.538   1.778  19.403  0.00  0.00    +0.000 HD
ENDBRANCH   2  13
BRANCH   3  15
ATOM     15  C   UNL     1       2.887   5.754  19.722  0.00  0.00    +0.000 C 
BRANCH  15  16
ATOM     16  C   UNL     1       2.305   7.112  19.367  0.00  0.00    +0.000 A 
ATOM     17  C   UNL     1       1.664   7.845  20.379  0.00  0.00    +0.000 A 
ATOM     18  C   UNL     1       1.121   9.107  20.122  0.00  0.00    +0.000 A 
ATOM     19  C   UNL     1       1.227   9.658  18.848  0.00  0.00    +0.000 A 
ATOM     20  C   UNL     1       1.885   8.955  17.843  0.00  0.00    +0.000 A 
ATOM     21  C   UNL     1       2.424   7.689  18.099  0.00  0.00    +0.000 A 
ENDBRANCH  15  16
ENDBRANCH   3  15
TORSDOF 4
ENDMDL
MODEL 4
REMARK VINA RESULT:      -6.8      2.498      3.940
REMARK  Name = 
REMARK  6 active torsions:
REMARK  status: ('A' for Active; 'I' for Inactive)
REMARK    1  A    between atoms: C_1  and  C_2
REMARK    2  A    between atoms: C_5  and  C_6
REMARK    3  A    between atoms: C_7  and  N_8
REMARK    4  A    between atoms: C_9  and  S_10
REMARK    5  A    between atoms: N_11  and  C_12
REMARK    6  A    between atoms: C_12  and  C_13
REMARK                            x       y       z     vdW  Elec       q    Type
REMARK                         _______ _______ _______ _____ _____    ______ ____
ROOT
ATOM      1  N   UNL     1       4.311   3.673  18.373  0.00  0.00    +0.000 N 
ATOM      2  C   UNL     1       3.464   4.377  19.197  0.00  0.00    +0.000 C 
ATOM      3  N   UNL     1       3.124   5.611  19.061  0.00  0.00    +0.000 NA
ATOM      4  H   UNL     1       4.187   2.671  18.394  0.00  0.00    +0.000 HD
ENDROOT
BRANCH   1  11
ATOM      5  C   UNL     1       5.828   3.950  13.682  0.00  0.00    +0.000 C 
ATOM      6  C   UNL     1       6.041   4.328  15.116  0.00  0.00    +0.000 A 
ATOM      7  C   UNL     1       7.132   5.087  15.532  0.00  0.00    +0.000 A 
ATOM      8  C   UNL     1       7.281   5.395  16.885  0.00  0.00    +0.000 A 
ATOM      9  C   UNL     1       6.355   4.945  17.844  0.00  0.00    +0.000 A 
ATOM     10  C   UNL     1       6.587   5.338  19.281  0.00  0.00    +0.000 C 
ATOM     11  C   UNL     1       5.252   4.155  17.441  0.00  0.00    +0.000 A 
ATOM     12  C   UNL     1       5.116   3.888  16.071  0.00  0.00    +0.000 A 
ENDBRANCH   1  11
BRANCH   2  13
ATOM     13  S   UNL     1       2.876   3.345  20.505  0.00  0.00    +0.000 S 
ATOM     14  H   UNL     1       3.678   2.304  20.245  0.00  0.00    +0.000 HD
ENDBRANCH   2  13
BRANCH   3  15
ATOM     15  C   UNL     1       2.248   6.311  19.993  0.00  0.00    +0.000 C 
BRANCH  15  16
ATOM     16  C   UNL     1       1.896   7.731  19.580  0.00  0.00    +0.000 A 
ATOM     17  C   UNL     1       2.229   8.146  18.281  0.00  0.00    +0.000 A 
ATOM     18  C   UNL     1       1.919   9.433  17.833  0.00  0.00    +0.000 A 
ATOM     19  C   UNL     1       1.258  10.318  18.680  0.00  0.00    +0.000 A 
ATOM     20  C   UNL     1       0.895   9.911  19.960  0.00  0.00    +0.000 A 
ATOM     21  C   UNL     1       1.210   8.623  20.410  0.00  0.00    +0.000 A 
ENDBRANCH  15  16
ENDBRANCH   3  15
TORSDOF 4
ENDMDL
MODEL 5
REMARK VINA RESULT:      -6.8      4.355      6.194
REMARK  Name = 
REMARK  6 active torsions:
REMARK  status: ('A' for Active; 'I' for Inactive)
REMARK    1  A    between atoms: C_1  and  C_2
REMARK    2  A    between atoms: C_5  and  C_6
REMARK    3  A    between atoms: C_7  and  N_8
REMARK    4  A    between atoms: C_9  and  S_10
REMARK    5  A    between atoms: N_11  and  C_12
REMARK    6  A    between atoms: C_12  and  C_13
REMARK                            x       y       z     vdW  Elec       q    Type
REMARK                         _______ _______ _______ _____ _____    ______ ____
ROOT
ATOM      1  N   UNL     1       1.824   7.088  20.619  0.00  0.00    +0.000 N 
ATOM      2  C   UNL     1       1.387   8.389  20.537  0.00  0.00    +0.000 C 
ATOM      3  N   UNL     1       1.075   9.020  19.459  0.00  0.00    +0.000 NA
ATOM      4  H   UNL     1       1.674   6.646  21.514  0.00  0.00    +0.000 HD
ENDROOT
BRANCH   1  11
ATOM      5  C   UNL     1       4.755   6.626  16.672  0.00  0.00    +0.000 C 
ATOM      6  C   UNL     1       3.815   5.983  17.645  0.00  0.00    +0.000 A 
ATOM      7  C   UNL     1       3.446   4.644  17.550  0.00  0.00    +0.000 A 
ATOM      8  C   UNL     1       2.556   4.106  18.480  0.00  0.00    +0.000 A 
ATOM      9  C   UNL     1       2.011   4.894  19.511  0.00  0.00    +0.000 A 
ATOM     10  C   UNL     1       1.069   4.226  20.480  0.00  0.00    +0.000 C 
ATOM     11  C   UNL     1       2.359   6.262  19.609  0.00  0.00    +0.000 A 
ATOM     12  C   UNL     1       3.278   6.763  18.676  0.00  0.00    +0.000 A 
ENDBRANCH   1  11
BRANCH   2  13
ATOM     13  S   UNL     1       1.298   9.113  22.145  0.00  0.00    +0.000 S 
ATOM     14  H   UNL     1       0.881  10.321  21.742  0.00  0.00    +0.000 HD
ENDBRANCH   2  13
BRANCH   3  15
ATOM     15  C   UNL     1       0.653  10.415  19.436  0.00  0.00    +0.000 C 
BRANCH  15  16
ATOM     16  C   UNL     1      -0.693  10.655  18.770  0.00  0.00    +0.000 A 
ATOM     17  C   UNL     1      -1.008   9.907  17.624  0.00  0.00    +0.000 A 
ATOM     18  C   UNL     1      -2.235  10.068  16.973  0.00  0.00    +0.000 A 
ATOM     19  C   UNL     1      -3.168  10.972  17.472  0.00  0.00    +0.000 A 
ATOM     20  C   UNL     1      -2.880  11.698  18.625  0.00  0.00    +0.000 A 
ATOM     21  C   UNL     1      -1.650  11.540  19.273  0.00  0.00    +0.000 A 
ENDBRANCH  15  16
ENDBRANCH   3  15
TORSDOF 4
ENDMDL
MODEL 6
REMARK VINA RESULT:      -6.7      2.085      6.531
REMARK  Name = 
REMARK  6 active torsions:
REMARK  status: ('A' for Active; 'I' for Inactive)
REMARK    1  A    between atoms: C_1  and  C_2
REMARK    2  A    between atoms: C_5  and  C_6
REMARK    3  A    between atoms: C_7  and  N_8
REMARK    4  A    between atoms: C_9  and  S_10
REMARK    5  A    between atoms: N_11  and  C_12
REMARK    6  A    between atoms: C_12  and  C_13
REMARK                            x       y       z     vdW  Elec       q    Type
REMARK                         _______ _______ _______ _____ _____    ______ ____
ROOT
ATOM      1  N   UNL     1       5.155   5.543  18.951  0.00  0.00    +0.000 N 
ATOM      2  C   UNL     1       6.233   5.516  18.098  0.00  0.00    +0.000 C 
ATOM      3  N   UNL     1       6.193   5.309  16.829  0.00  0.00    +0.000 NA
ATOM      4  H   UNL     1       5.302   6.062  19.805  0.00  0.00    +0.000 HD
ENDROOT
BRANCH   1  11
ATOM      5  C   UNL     1       2.058   1.704  19.194  0.00  0.00    +0.000 C 
ATOM      6  C   UNL     1       2.273   3.151  18.873  0.00  0.00    +0.000 A 
ATOM      7  C   UNL     1       1.257   3.962  18.374  0.00  0.00    +0.000 A 
ATOM      8  C   UNL     1       1.524   5.300  18.082  0.00  0.00    +0.000 A 
ATOM      9  C   UNL     1       2.805   5.849  18.273  0.00  0.00    +0.000 A 
ATOM     10  C   UNL     1       2.998   7.308  17.946  0.00  0.00    +0.000 C 
ATOM     11  C   UNL     1       3.854   5.034  18.760  0.00  0.00    +0.000 A 
ATOM     12  C   UNL     1       3.546   3.701  19.070  0.00  0.00    +0.000 A 
ENDBRANCH   1  11
BRANCH   2  13
ATOM     13  S   UNL     1       7.731   5.813  18.986  0.00  0.00    +0.000 S 
ATOM     14  H   UNL     1       8.558   5.324  18.052  0.00  0.00    +0.000 HD
ENDBRANCH   2  13
BRANCH   3  15
ATOM     15  C   UNL     1       7.380   5.255  15.983  0.00  0.00    +0.000 C 
BRANCH  15  16
ATOM     16  C   UNL     1       7.119   4.788  14.560  0.00  0.00    +0.000 A 
ATOM     17  C   UNL     1       6.101   3.844  14.348  0.00  0.00    +0.000 A 
ATOM     18  C   UNL     1       5.800   3.384  13.063  0.00  0.00    +0.000 A 
ATOM     19  C   UNL     1       6.508   3.877  11.970  0.00  0.00    +0.000 A 
ATOM     20  C   UNL     1       7.499   4.835  12.163  0.00  0.00    +0.000 A 
ATOM     21  C   UNL     1       7.803   5.291  13.451  0.00  0.00    +0.000 A 
ENDBRANCH  15  16
ENDBRANCH   3  15
TORSDOF 4
ENDMDL
MODEL 7
REMARK VINA RESULT:      -6.7      4.387      6.268
REMARK  Name = 
REMARK  6 active torsions:
REMARK  status: ('A' for Active; 'I' for Inactive)
REMARK    1  A    between atoms: C_1  and  C_2
REMARK    2  A    between atoms: C_5  and  C_6
REMARK    3  A    between atoms: C_7  and  N_8
REMARK    4  A    between atoms: C_9  and  S_10
REMARK    5  A    between atoms: N_11  and  C_12
REMARK    6  A    between atoms: C_12  and  C_13
REMARK                            x       y       z     vdW  Elec       q    Type
REMARK                         _______ _______ _______ _____ _____    ______ ____
ROOT
ATOM      1  N   UNL     1       1.855   7.080  20.604  0.00  0.00    +0.000 N 
ATOM      2  C   UNL     1       1.386   8.369  20.515  0.00  0.00    +0.000 C 
ATOM      3  N   UNL     1       1.039   8.979  19.436  0.00  0.00    +0.000 NA
ATOM      4  H   UNL     1       1.732   6.645  21.507  0.00  0.00    +0.000 HD
ENDROOT
BRANCH   1  11
ATOM      5  C   UNL     1       4.819   6.612  16.682  0.00  0.00    +0.000 C 
ATOM      6  C   UNL     1       3.863   5.972  17.642  0.00  0.00    +0.000 A 
ATOM      7  C   UNL     1       3.482   4.638  17.536  0.00  0.00    +0.000 A 
ATOM      8  C   UNL     1       2.577   4.104  18.454  0.00  0.00    +0.000 A 
ATOM      9  C   UNL     1       2.031   4.891  19.485  0.00  0.00    +0.000 A 
ATOM     10  C   UNL     1       1.073   4.227  20.441  0.00  0.00    +0.000 C 
ATOM     11  C   UNL     1       2.391   6.255  19.595  0.00  0.00    +0.000 A 
ATOM     12  C   UNL     1       3.325   6.752  18.673  0.00  0.00    +0.000 A 
ENDBRANCH   1  11
BRANCH   2  13
ATOM     13  S   UNL     1       1.310   9.111  22.117  0.00  0.00    +0.000 S 
ATOM     14  H   UNL     1       1.877  10.274  21.769  0.00  0.00    +0.000 HD
ENDBRANCH   2  13
BRANCH   3  15
ATOM     15  C   UNL     1       0.584  10.364  19.404  0.00  0.00    +0.000 C 
BRANCH  15  16
ATOM     16  C   UNL     1      -0.774  10.565  18.750  0.00  0.00    +0.000 A 
ATOM     17  C   UNL     1      -1.646  11.512  19.310  0.00  0.00    +0.000 A 
ATOM     18  C   UNL     1      -2.902  11.757  18.747  0.00  0.00    +0.000 A 
ATOM     19  C   UNL     1      -3.294  11.064  17.605  0.00  0.00    +0.000 A 
ATOM     20  C   UNL     1      -2.427  10.144  17.022  0.00  0.00    +0.000 A 
ATOM     21  C   UNL     1      -1.171   9.896  17.589  0.00  0.00    +0.000 A 
ENDBRANCH  15  16
ENDBRANCH   3  15
TORSDOF 4
ENDMDL
MODEL 8
REMARK VINA RESULT:      -6.7      2.043      6.532
REMARK  Name = 
REMARK  6 active torsions:
REMARK  status: ('A' for Active; 'I' for Inactive)
REMARK    1  A    between atoms: C_1  and  C_2
REMARK    2  A    between atoms: C_5  and  C_6
REMARK    3  A    between atoms: C_7  and  N_8
REMARK    4  A    between atoms: C_9  and  S_10
REMARK    5  A    between atoms: N_11  and  C_12
REMARK    6  A    between atoms: C_12  and  C_13
REMARK                            x       y       z     vdW  Elec       q    Type
REMARK                         _______ _______ _______ _____ _____    ______ ____
ROOT
ATOM      1  N   UNL     1       5.136   5.485  18.974  0.00  0.00    +0.000 N 
ATOM      2  C   UNL     1       6.175   5.550  18.075  0.00  0.00    +0.000 C 
ATOM      3  N   UNL     1       6.077   5.470  16.794  0.00  0.00    +0.000 NA
ATOM      4  H   UNL     1       5.321   5.917  19.868  0.00  0.00    +0.000 HD
ENDROOT
BRANCH   1  11
ATOM      5  C   UNL     1       1.984   1.699  19.316  0.00  0.00    +0.000 C 
ATOM      6  C   UNL     1       2.220   3.133  18.953  0.00  0.00    +0.000 A 
ATOM      7  C   UNL     1       1.219   3.943  18.426  0.00  0.00    +0.000 A 
ATOM      8  C   UNL     1       1.505   5.269  18.097  0.00  0.00    +0.000 A 
ATOM      9  C   UNL     1       2.794   5.805  18.277  0.00  0.00    +0.000 A 
ATOM     10  C   UNL     1       3.009   7.250  17.908  0.00  0.00    +0.000 C 
ATOM     11  C   UNL     1       3.829   4.989  18.792  0.00  0.00    +0.000 A 
ATOM     12  C   UNL     1       3.500   3.671  19.140  0.00  0.00    +0.000 A 
ENDBRANCH   1  11
BRANCH   2  13
ATOM     13  S   UNL     1       7.711   5.767  18.919  0.00  0.00    +0.000 S 
ATOM     14  H   UNL     1       7.502   7.040  19.283  0.00  0.00    +0.000 HD
ENDBRANCH   2  13
BRANCH   3  15
ATOM     15  C   UNL     1       7.223   5.509  15.895  0.00  0.00    +0.000 C 
BRANCH  15  16
ATOM     16  C   UNL     1       6.970   4.903  14.524  0.00  0.00    +0.000 A 
ATOM     17  C   UNL     1       7.788   5.309  13.457  0.00  0.00    +0.000 A 
ATOM     18  C   UNL     1       7.618   4.778  12.175  0.00  0.00    +0.000 A 
ATOM     19  C   UNL     1       6.632   3.821  11.949  0.00  0.00    +0.000 A 
ATOM     20  C   UNL     1       5.834   3.388  13.004  0.00  0.00    +0.000 A 
ATOM     21  C   UNL     1       6.002   3.923  14.287  0.00  0.00    +0.000 A 
ENDBRANCH  15  16
ENDBRANCH   3  15
TORSDOF 4
ENDMDL
MODEL 9
REMARK VINA RESULT:      -6.3      2.044      6.427
REMARK  Name = 
REMARK  6 active torsions:
REMARK  status: ('A' for Active; 'I' for Inactive)
REMARK    1  A    between atoms: C_1  and  C_2
REMARK    2  A    between atoms: C_5  and  C_6
REMARK    3  A    between atoms: C_7  and  N_8
REMARK    4  A    between atoms: C_9  and  S_10
REMARK    5  A    between atoms: N_11  and  C_12
REMARK    6  A    between atoms: C_12  and  C_13
REMARK                            x       y       z     vdW  Elec       q    Type
REMARK                         _______ _______ _______ _____ _____    ______ ____
ROOT
ATOM      1  N   UNL     1       5.073   6.056  18.296  0.00  0.00    +0.000 N 
ATOM      2  C   UNL     1       6.030   5.985  17.311  0.00  0.00    +0.000 C 
ATOM      3  N   UNL     1       5.973   5.265  16.246  0.00  0.00    +0.000 NA
ATOM      4  H   UNL     1       5.093   6.902  18.847  0.00  0.00    +0.000 HD
ENDROOT
BRANCH   1  11
ATOM      5  C   UNL     1       3.465   1.396  18.592  0.00  0.00    +0.000 C 
ATOM      6  C   UNL     1       3.176   2.858  18.750  0.00  0.00    +0.000 A 
ATOM      7  C   UNL     1       1.923   3.333  19.124  0.00  0.00    +0.000 A 
ATOM      8  C   UNL     1       1.714   4.707  19.242  0.00  0.00    +0.000 A 
ATOM      9  C   UNL     1       2.744   5.629  18.982  0.00  0.00    +0.000 A 
ATOM     10  C   UNL     1       2.433   7.095  19.149  0.00  0.00    +0.000 C 
ATOM     11  C   UNL     1       4.019   5.164  18.580  0.00  0.00    +0.000 A 
ATOM     12  C   UNL     1       4.204   3.776  18.499  0.00  0.00    +0.000 A 
ENDBRANCH   1  11
BRANCH   2  13
ATOM     13  S   UNL     1       7.391   7.043  17.695  0.00  0.00    +0.000 S 
ATOM     14  H   UNL     1       6.667   8.022  18.254  0.00  0.00    +0.000 HD
ENDBRANCH   2  13
BRANCH   3  15
ATOM     15  C   UNL     1       7.040   5.206  15.255  0.00  0.00    +0.000 C 
BRANCH  15  16
ATOM     16  C   UNL     1       6.654   4.523  13.953  0.00  0.00    +0.000 A 
ATOM     17  C   UNL     1       5.371   3.962  13.853  0.00  0.00    +0.000 A 
ATOM     18  C   UNL     1       4.947   3.334  12.678  0.00  0.00    +0.000 A 
ATOM     19  C   UNL     1       5.802   3.273  11.581  0.00  0.00    +0.000 A 
ATOM     20  C   UNL     1       7.066   3.852  11.656  0.00  0.00    +0.000 A 
ATOM     21  C   UNL     1       7.491   4.476  12.835  0.00  0.00    +0.000 A 
ENDBRANCH  15  16
ENDBRANCH   3  15
TORSDOF 4
ENDMDL
