MODEL 1
REMARK VINA RESULT:      -6.1      0.000      0.000
REMARK  Name = 
REMARK  4 active torsions:
REMARK  status: ('A' for Active; 'I' for Inactive)
REMARK    1  A    between atoms: C_1  and  C_2
REMARK    2  A    between atoms: C_2  and  N_3
REMARK    3  A    between atoms: C_5  and  C_6
REMARK    4  A    between atoms: N_13  and  C_14
REMARK                            x       y       z     vdW  Elec       q    Type
REMARK                         _______ _______ _______ _____ _____    ______ ____
ROOT
ATOM      1  N   UNL     1       4.433   4.566  17.274  0.00  0.00    +0.000 N 
ATOM      2  N   UNL     1       4.091   5.885  17.463  0.00  0.00    +0.000 NA
ATOM      3  C   UNL     1       3.036   5.853  18.231  0.00  0.00    +0.000 A 
ATOM      4  N   UNL     1       2.615   4.590  18.547  0.00  0.00    +0.000 N 
ATOM      5  C   UNL     1       1.469   4.150  19.325  0.00  0.00    +0.000 C 
ATOM      6  C   UNL     1       3.523   3.737  17.938  0.00  0.00    +0.000 A 
ATOM      7  S   UNL     1       3.544   2.070  17.990  0.00  0.00    +0.000 S 
ENDROOT
BRANCH   3   8
ATOM      8  C   UNL     1       2.367   7.094  18.695  0.00  0.00    +0.000 A 
ATOM      9  C   UNL     1       2.087   8.099  17.756  0.00  0.00    +0.000 A 
ATOM     10  C   UNL     1       1.476   9.295  18.152  0.00  0.00    +0.000 A 
ATOM     11  C   UNL     1       1.146   9.488  19.495  0.00  0.00    +0.000 A 
ATOM     12 CL   UNL     1       0.389  10.951  19.988  0.00  0.00    +0.000 Cl
ATOM     13  C   UNL     1       1.437   8.507  20.437  0.00  0.00    +0.000 A 
ATOM     14  C   UNL     1       2.070   7.324  20.044  0.00  0.00    +0.000 A 
ENDBRANCH   3   8
BRANCH   1  16
ATOM     15  C   UNL     1       5.492   4.423  15.044  0.00  0.00    +0.000 C 
ATOM     16  C   UNL     1       5.636   4.207  16.539  0.00  0.00    +0.000 C 
ENDBRANCH   1  16
TORSDOF 2
ENDMDL
MODEL 2
REMARK VINA RESULT:      -6.1      1.018      1.075
REMARK  Name = 
REMARK  4 active torsions:
REMARK  status: ('A' for Active; 'I' for Inactive)
REMARK    1  A    between atoms: C_1  and  C_2
REMARK    2  A    between atoms: C_2  and  N_3
REMARK    3  A    between atoms: C_5  and  C_6
REMARK    4  A    between atoms: N_13  and  C_14
REMARK                            x       y       z     vdW  Elec       q    Type
REMARK                         _______ _______ _______ _____ _____    ______ ____
ROOT
ATOM      1  N   UNL     1       4.779   4.836  18.476  0.00  0.00    +0.000 N 
ATOM      2  N   UNL     1       4.283   6.106  18.289  0.00  0.00    +0.000 NA
ATOM      3  C   UNL     1       3.187   6.148  18.996  0.00  0.00    +0.000 A 
ATOM      4  N   UNL     1       2.885   4.971  19.625  0.00  0.00    +0.000 N 
ATOM      5  C   UNL     1       1.741   4.613  20.449  0.00  0.00    +0.000 C 
ATOM      6  C   UNL     1       3.920   4.106  19.304  0.00  0.00    +0.000 A 
ATOM      7  S   UNL     1       4.118   2.527  19.804  0.00  0.00    +0.000 S 
ENDROOT
BRANCH   3   8
ATOM      8  C   UNL     1       2.356   7.375  19.083  0.00  0.00    +0.000 A 
ATOM      9  C   UNL     1       2.140   8.125  17.917  0.00  0.00    +0.000 A 
ATOM     10  C   UNL     1       1.382   9.301  17.955  0.00  0.00    +0.000 A 
ATOM     11  C   UNL     1       0.838   9.731  19.167  0.00  0.00    +0.000 A 
ATOM     12 CL   UNL     1      -0.102  11.169  19.222  0.00  0.00    +0.000 Cl
ATOM     13  C   UNL     1       1.062   9.006  20.333  0.00  0.00    +0.000 A 
ATOM     14  C   UNL     1       1.843   7.846  20.298  0.00  0.00    +0.000 A 
ENDBRANCH   3   8
BRANCH   1  16
ATOM     15  C   UNL     1       6.026   4.348  16.397  0.00  0.00    +0.000 C 
ATOM     16  C   UNL     1       6.062   4.447  17.912  0.00  0.00    +0.000 C 
ENDBRANCH   1  16
TORSDOF 2
ENDMDL
MODEL 3
REMARK VINA RESULT:      -6.0      1.331      2.722
REMARK  Name = 
REMARK  4 active torsions:
REMARK  status: ('A' for Active; 'I' for Inactive)
REMARK    1  A    between atoms: C_1  and  C_2
REMARK    2  A    between atoms: C_2  and  N_3
REMARK    3  A    between atoms: C_5  and  C_6
REMARK    4  A    between atoms: N_13  and  C_14
REMARK                            x       y       z     vdW  Elec       q    Type
REMARK                         _______ _______ _______ _____ _____    ______ ____
ROOT
ATOM      1  N   UNL     1       3.024   4.024  17.644  0.00  0.00    +0.000 N 
ATOM      2  N   UNL     1       2.209   4.946  18.259  0.00  0.00    +0.000 NA
ATOM      3  C   UNL     1       2.828   6.087  18.122  0.00  0.00    +0.000 A 
ATOM      4  N   UNL     1       4.035   5.993  17.484  0.00  0.00    +0.000 N 
ATOM      5  C   UNL     1       5.024   7.017  17.192  0.00  0.00    +0.000 C 
ATOM      6  C   UNL     1       4.174   4.653  17.156  0.00  0.00    +0.000 A 
ATOM      7  S   UNL     1       5.437   3.933  16.339  0.00  0.00    +0.000 S 
ENDROOT
BRANCH   3   8
ATOM      8  C   UNL     1       2.253   7.357  18.634  0.00  0.00    +0.000 A 
ATOM      9  C   UNL     1       1.961   7.459  20.003  0.00  0.00    +0.000 A 
ATOM     10  C   UNL     1       1.398   8.629  20.526  0.00  0.00    +0.000 A 
ATOM     11  C   UNL     1       1.124   9.702  19.676  0.00  0.00    +0.000 A 
ATOM     12 CL   UNL     1       0.441  11.146  20.312  0.00  0.00    +0.000 Cl
ATOM     13  C   UNL     1       1.391   9.604  18.314  0.00  0.00    +0.000 A 
ATOM     14  C   UNL     1       1.929   8.425  17.789  0.00  0.00    +0.000 A 
ENDBRANCH   3   8
BRANCH   1  16
ATOM     15  C   UNL     1       1.681   2.194  18.627  0.00  0.00    +0.000 C 
ATOM     16  C   UNL     1       2.609   2.636  17.509  0.00  0.00    +0.000 C 
ENDBRANCH   1  16
TORSDOF 2
ENDMDL
MODEL 4
REMARK VINA RESULT:      -6.0      3.429      5.631
REMARK  Name = 
REMARK  4 active torsions:
REMARK  status: ('A' for Active; 'I' for Inactive)
REMARK    1  A    between atoms: C_1  and  C_2
REMARK    2  A    between atoms: C_2  and  N_3
REMARK    3  A    between atoms: C_5  and  C_6
REMARK    4  A    between atoms: N_13  and  C_14
REMARK                            x       y       z     vdW  Elec       q    Type
REMARK                         _______ _______ _______ _____ _____    ______ ____
ROOT
ATOM      1  N   UNL     1       2.471   5.297  20.225  0.00  0.00    +0.000 N 
ATOM      2  N   UNL     1       3.259   5.749  19.191  0.00  0.00    +0.000 NA
ATOM      3  C   UNL     1       3.899   4.692  18.769  0.00  0.00    +0.000 A 
ATOM      4  N   UNL     1       3.623   3.554  19.476  0.00  0.00    +0.000 N 
ATOM      5  C   UNL     1       4.166   2.212  19.343  0.00  0.00    +0.000 C 
ATOM      6  C   UNL     1       2.684   3.929  20.425  0.00  0.00    +0.000 A 
ATOM      7  S   UNL     1       1.946   2.959  21.564  0.00  0.00    +0.000 S 
ENDROOT
BRANCH   3   8
ATOM      8  C   UNL     1       4.845   4.754  17.626  0.00  0.00    +0.000 A 
ATOM      9  C   UNL     1       4.380   4.405  16.349  0.00  0.00    +0.000 A 
ATOM     10  C   UNL     1       5.241   4.428  15.246  0.00  0.00    +0.000 A 
ATOM     11  C   UNL     1       6.575   4.799  15.421  0.00  0.00    +0.000 A 
ATOM     12 CL   UNL     1       7.638   4.838  14.070  0.00  0.00    +0.000 Cl
ATOM     13  C   UNL     1       7.052   5.128  16.686  0.00  0.00    +0.000 A 
ATOM     14  C   UNL     1       6.197   5.079  17.791  0.00  0.00    +0.000 A 
ENDBRANCH   3   8
BRANCH   1  16
ATOM     15  C   UNL     1       1.728   7.640  20.495  0.00  0.00    +0.000 C 
ATOM     16  C   UNL     1       1.529   6.187  20.887  0.00  0.00    +0.000 C 
ENDBRANCH   1  16
TORSDOF 2
ENDMDL
MODEL 5
REMARK VINA RESULT:      -6.0      1.020      1.166
REMARK  Name = 
REMARK  4 active torsions:
REMARK  status: ('A' for Active; 'I' for Inactive)
REMARK    1  A    between atoms: C_1  and  C_2
REMARK    2  A    between atoms: C_2  and  N_3
REMARK    3  A    between atoms: C_5  and  C_6
REMARK    4  A    between atoms: N_13  and  C_14
REMARK                            x       y       z     vdW  Elec       q    Type
REMARK                         _______ _______ _______ _____ _____    ______ ____
ROOT
ATOM      1  N   UNL     1       4.997   4.821  18.137  0.00  0.00    +0.000 N 
ATOM      2  N   UNL     1       4.590   6.118  18.352  0.00  0.00    +0.000 NA
ATOM      3  C   UNL     1       3.299   6.042  18.525  0.00  0.00    +0.000 A 
ATOM      4  N   UNL     1       2.794   4.775  18.404  0.00  0.00    +0.000 N 
ATOM      5  C   UNL     1       1.422   4.301  18.479  0.00  0.00    +0.000 C 
ATOM      6  C   UNL     1       3.892   3.964  18.160  0.00  0.00    +0.000 A 
ATOM      7  S   UNL     1       3.907   2.309  17.951  0.00  0.00    +0.000 S 
ENDROOT
BRANCH   3   8
ATOM      8  C   UNL     1       2.475   7.242  18.816  0.00  0.00    +0.000 A 
ATOM      9  C   UNL     1       2.217   8.149  17.776  0.00  0.00    +0.000 A 
ATOM     10  C   UNL     1       1.462   9.304  18.009  0.00  0.00    +0.000 A 
ATOM     11  C   UNL     1       0.966   9.557  19.288  0.00  0.00    +0.000 A 
ATOM     12 CL   UNL     1       0.032  10.971  19.581  0.00  0.00    +0.000 Cl
ATOM     13  C   UNL     1       1.232   8.676  20.331  0.00  0.00    +0.000 A 
ATOM     14  C   UNL     1       2.008   7.535  20.103  0.00  0.00    +0.000 A 
ENDBRANCH   3   8
BRANCH   1  16
ATOM     15  C   UNL     1       7.304   5.713  18.161  0.00  0.00    +0.000 C 
ATOM     16  C   UNL     1       6.409   4.497  17.999  0.00  0.00    +0.000 C 
ENDBRANCH   1  16
TORSDOF 2
ENDMDL
MODEL 6
REMARK VINA RESULT:      -6.0      3.380      5.615
REMARK  Name = 
REMARK  4 active torsions:
REMARK  status: ('A' for Active; 'I' for Inactive)
REMARK    1  A    between atoms: C_1  and  C_2
REMARK    2  A    between atoms: C_2  and  N_3
REMARK    3  A    between atoms: C_5  and  C_6
REMARK    4  A    between atoms: N_13  and  C_14
REMARK                            x       y       z     vdW  Elec       q    Type
REMARK                         _______ _______ _______ _____ _____    ______ ____
ROOT
ATOM      1  N   UNL     1       2.455   5.435  20.165  0.00  0.00    +0.000 N 
ATOM      2  N   UNL     1       3.175   5.863  19.073  0.00  0.00    +0.000 NA
ATOM      3  C   UNL     1       3.876   4.825  18.703  0.00  0.00    +0.000 A 
ATOM      4  N   UNL     1       3.705   3.725  19.500  0.00  0.00    +0.000 N 
ATOM      5  C   UNL     1       4.338   2.418  19.442  0.00  0.00    +0.000 C 
ATOM      6  C   UNL     1       2.772   4.104  20.454  0.00  0.00    +0.000 A 
ATOM      7  S   UNL     1       2.143   3.171  21.685  0.00  0.00    +0.000 S 
ENDROOT
BRANCH   3   8
ATOM      8  C   UNL     1       4.778   4.868  17.525  0.00  0.00    +0.000 A 
ATOM      9  C   UNL     1       5.916   5.687  17.579  0.00  0.00    +0.000 A 
ATOM     10  C   UNL     1       6.783   5.775  16.483  0.00  0.00    +0.000 A 
ATOM     11  C   UNL     1       6.510   5.043  15.327  0.00  0.00    +0.000 A 
ATOM     12 CL   UNL     1       7.574   5.139  13.980  0.00  0.00    +0.000 Cl
ATOM     13  C   UNL     1       5.373   4.243  15.255  0.00  0.00    +0.000 A 
ATOM     14  C   UNL     1       4.494   4.177  16.341  0.00  0.00    +0.000 A 
ENDBRANCH   3   8
BRANCH   1  16
ATOM     15  C   UNL     1       1.677   7.766  20.443  0.00  0.00    +0.000 C 
ATOM     16  C   UNL     1       1.474   6.303  20.796  0.00  0.00    +0.000 C 
ENDBRANCH   1  16
TORSDOF 2
ENDMDL
MODEL 7
REMARK VINA RESULT:      -5.9      1.015      1.673
REMARK  Name = 
REMARK  4 active torsions:
REMARK  status: ('A' for Active; 'I' for Inactive)
REMARK    1  A    between atoms: C_1  and  C_2
REMARK    2  A    between atoms: C_2  and  N_3
REMARK    3  A    between atoms: C_5  and  C_6
REMARK    4  A    between atoms: N_13  and  C_14
REMARK                            x       y       z     vdW  Elec       q    Type
REMARK                         _______ _______ _______ _____ _____    ______ ____
ROOT
ATOM      1  N   UNL     1       5.001   4.848  18.073  0.00  0.00    +0.000 N 
ATOM      2  N   UNL     1       4.625   6.153  18.293  0.00  0.00    +0.000 NA
ATOM      3  C   UNL     1       3.329   6.111  18.439  0.00  0.00    +0.000 A 
ATOM      4  N   UNL     1       2.792   4.861  18.294  0.00  0.00    +0.000 N 
ATOM      5  C   UNL     1       1.407   4.424  18.335  0.00  0.00    +0.000 C 
ATOM      6  C   UNL     1       3.872   4.021  18.064  0.00  0.00    +0.000 A 
ATOM      7  S   UNL     1       3.845   2.369  17.837  0.00  0.00    +0.000 S 
ENDROOT
BRANCH   3   8
ATOM      8  C   UNL     1       2.533   7.331  18.725  0.00  0.00    +0.000 A 
ATOM      9  C   UNL     1       2.027   7.516  20.021  0.00  0.00    +0.000 A 
ATOM     10  C   UNL     1       1.254   8.640  20.331  0.00  0.00    +0.000 A 
ATOM     11  C   UNL     1       0.981   9.584  19.340  0.00  0.00    +0.000 A 
ATOM     12 CL   UNL     1       0.038  10.972  19.714  0.00  0.00    +0.000 Cl
ATOM     13  C   UNL     1       1.461   9.401  18.046  0.00  0.00    +0.000 A 
ATOM     14  C   UNL     1       2.211   8.264  17.732  0.00  0.00    +0.000 A 
ENDBRANCH   3   8
BRANCH   1  16
ATOM     15  C   UNL     1       7.329   5.681  18.113  0.00  0.00    +0.000 C 
ATOM     16  C   UNL     1       6.405   4.485  17.961  0.00  0.00    +0.000 C 
ENDBRANCH   1  16
TORSDOF 2
ENDMDL
MODEL 8
REMARK VINA RESULT:      -5.9      0.968      1.571
REMARK  Name = 
REMARK  4 active torsions:
REMARK  status: ('A' for Active; 'I' for Inactive)
REMARK    1  A    between atoms: C_1  and  C_2
REMARK    2  A    between atoms: C_2  and  N_3
REMARK    3  A    between atoms: C_5  and  C_6
REMARK    4  A    between atoms: N_13  and  C_14
REMARK                            x       y       z     vdW  Elec       q    Type
REMARK                         _______ _______ _______ _____ _____    ______ ____
ROOT
ATOM      1  N   UNL     1       4.710   4.947  18.309  0.00  0.00    +0.000 N 
ATOM      2  N   UNL     1       4.216   6.218  18.131  0.00  0.00    +0.000 NA
ATOM      3  C   UNL     1       3.157   6.278  18.892  0.00  0.00    +0.000 A 
ATOM      4  N   UNL     1       2.877   5.111  19.549  0.00  0.00    +0.000 N 
ATOM      5  C   UNL     1       1.774   4.774  20.433  0.00  0.00    +0.000 C 
ATOM      6  C   UNL     1       3.888   4.234  19.187  0.00  0.00    +0.000 A 
ATOM      7  S   UNL     1       4.098   2.659  19.697  0.00  0.00    +0.000 S 
ENDROOT
BRANCH   3   8
ATOM      8  C   UNL     1       2.342   7.514  19.004  0.00  0.00    +0.000 A 
ATOM      9  C   UNL     1       1.821   7.864  20.260  0.00  0.00    +0.000 A 
ATOM     10  C   UNL     1       1.029   9.008  20.409  0.00  0.00    +0.000 A 
ATOM     11  C   UNL     1       0.754   9.806  19.298  0.00  0.00    +0.000 A 
ATOM     12 CL   UNL     1      -0.211  11.218  19.474  0.00  0.00    +0.000 Cl
ATOM     13  C   UNL     1       1.249   9.458  18.044  0.00  0.00    +0.000 A 
ATOM     14  C   UNL     1       2.018   8.300  17.892  0.00  0.00    +0.000 A 
ENDBRANCH   3   8
BRANCH   1  16
ATOM     15  C   UNL     1       5.781   4.127  16.236  0.00  0.00    +0.000 C 
ATOM     16  C   UNL     1       5.960   4.540  17.686  0.00  0.00    +0.000 C 
ENDBRANCH   1  16
TORSDOF 2
ENDMDL
MODEL 9
REMARK VINA RESULT:      -5.9      1.340      2.474
REMARK  Name = 
REMARK  4 active torsions:
REMARK  status: ('A' for Active; 'I' for Inactive)
REMARK    1  A    between atoms: C_1  and  C_2
REMARK    2  A    between atoms: C_2  and  N_3
REMARK    3  A    between atoms: C_5  and  C_6
REMARK    4  A    between atoms: N_13  and  C_14
REMARK                            x       y       z     vdW  Elec       q    Type
REMARK                         _______ _______ _______ _____ _____    ______ ____
ROOT
ATOM      1  N   UNL     1       2.890   4.012  17.869  0.00  0.00    +0.000 N 
ATOM      2  N   UNL     1       2.097   4.949  18.489  0.00  0.00    +0.000 NA
ATOM      3  C   UNL     1       2.688   6.092  18.267  0.00  0.00    +0.000 A 
ATOM      4  N   UNL     1       3.858   5.986  17.564  0.00  0.00    +0.000 N 
ATOM      5  C   UNL     1       4.812   7.009  17.172  0.00  0.00    +0.000 C 
ATOM      6  C   UNL     1       3.999   4.634  17.287  0.00  0.00    +0.000 A 
ATOM      7  S   UNL     1       5.225   3.896  16.430  0.00  0.00    +0.000 S 
ENDROOT
BRANCH   3   8
ATOM      8  C   UNL     1       2.124   7.374  18.756  0.00  0.00    +0.000 A 
ATOM      9  C   UNL     1       1.908   8.410  17.833  0.00  0.00    +0.000 A 
ATOM     10  C   UNL     1       1.397   9.644  18.252  0.00  0.00    +0.000 A 
ATOM     11  C   UNL     1       1.103   9.845  19.602  0.00  0.00    +0.000 A 
ATOM     12 CL   UNL     1       0.468  11.355  20.124  0.00  0.00    +0.000 Cl
ATOM     13  C   UNL     1       1.332   8.833  20.529  0.00  0.00    +0.000 A 
ATOM     14  C   UNL     1       1.867   7.610  20.112  0.00  0.00    +0.000 A 
ENDBRANCH   3   8
BRANCH   1  16
ATOM     15  C   UNL     1       1.211   2.346  18.591  0.00  0.00    +0.000 C 
ATOM     16  C   UNL     1       2.490   2.614  17.818  0.00  0.00    +0.000 C 
ENDBRANCH   1  16
TORSDOF 2
ENDMDL
