MODEL 1
REMARK VINA RESULT:      -6.6      0.000      0.000
REMARK  Name = 
REMARK  16 active torsions:
REMARK  status: ('A' for Active; 'I' for Inactive)
REMARK    1  A    between atoms: C_1  and  C_2
REMARK    2  A    between atoms: N_4  and  C_5
REMARK    3  A    between atoms: C_5  and  C_6
REMARK    4  A    between atoms: C_6  and  C_7
REMARK    5  A    between atoms: C_7  and  C_8
REMARK    6  A    between atoms: C_8  and  C_9
REMARK    7  A    between atoms: C_9  and  C_10
REMARK    8  A    between atoms: C_10  and  S_11
REMARK    9  A    between atoms: S_11  and  C_12
REMARK   10  A    between atoms: C_12  and  C_13
REMARK   11  A    between atoms: C_13  and  C_14
REMARK   12  A    between atoms: C_14  and  C_15
REMARK   13  A    between atoms: C_15  and  C_16
REMARK   14  A    between atoms: C_16  and  P_19
REMARK   15  A    between atoms: P_19  and  O_21
REMARK   16  A    between atoms: P_19  and  O_22
REMARK                            x       y       z     vdW  Elec       q    Type
REMARK                         _______ _______ _______ _____ _____    ______ ____
ROOT
ATOM      1  C   UNL     1       1.277   2.737  20.391  0.00  0.00    +0.000 C 
ENDROOT
BRANCH   1   2
ATOM      2  C   UNL     1       1.126   4.226  20.057  0.00  0.00    +0.000 C 
BRANCH   2   3
ATOM      3  C   UNL     1       2.076   5.104  20.866  0.00  0.00    +0.000 C 
BRANCH   3   4
ATOM      4  C   UNL     1       1.667   6.575  20.812  0.00  0.00    +0.000 C 
BRANCH   4   5
ATOM      5  C   UNL     1       2.297   7.250  19.594  0.00  0.00    +0.000 C 
BRANCH   5   9
ATOM      6  C   UNL     1      -0.270  11.181  21.165  0.00  0.00    +0.000 C 
ATOM      7  C   UNL     1       0.484  10.428  20.122  0.00  0.00    +0.000 A 
ATOM      8  C   UNL     1       0.964   9.191  20.279  0.00  0.00    +0.000 A 
ATOM      9  N   UNL     1       1.705   8.554  19.303  0.00  0.00    +0.000 N 
ATOM     10  C   UNL     1       1.932   9.126  18.066  0.00  0.00    +0.000 A 
ATOM     11  O   UNL     1       2.578   8.599  17.159  0.00  0.00    +0.000 OA
ATOM     12  N   UNL     1       1.393  10.375  17.886  0.00  0.00    +0.000 N 
ATOM     13  C   UNL     1       0.743  11.113  18.830  0.00  0.00    +0.000 A 
ATOM     14  O   UNL     1       0.398  12.272  18.631  0.00  0.00    +0.000 OA
ATOM     15  H   UNL     1       1.588  10.825  17.005  0.00  0.00    +0.000 HD
ENDBRANCH   5   9
ENDBRANCH   4   5
ENDBRANCH   3   4
ENDBRANCH   2   3
ENDBRANCH   1   2
BRANCH   1  16
ATOM     16  C   UNL     1       2.020   1.894  19.350  0.00  0.00    +0.000 C 
BRANCH  16  17
ATOM     17  S   UNL     1       2.080   2.602  17.674  0.00  0.00    +0.000 S 
BRANCH  17  18
ATOM     18  C   UNL     1       3.871   2.899  17.518  0.00  0.00    +0.000 C 
BRANCH  18  19
ATOM     19  C   UNL     1       4.268   4.227  18.168  0.00  0.00    +0.000 C 
BRANCH  19  20
ATOM     20  C   UNL     1       5.300   4.112  19.306  0.00  0.00    +0.000 C 
BRANCH  20  21
ATOM     21  C   UNL     1       6.202   5.338  19.342  0.00  0.00    +0.000 C 
BRANCH  21  22
ATOM     22  C   UNL     1       7.093   5.512  18.134  0.00  0.00    +0.000 C 
ATOM     23  F   UNL     1       8.065   6.430  18.341  0.00  0.00    +0.000 F 
ATOM     24  F   UNL     1       7.687   4.365  17.736  0.00  0.00    +0.000 F 
BRANCH  22  25
ATOM     25  P   UNL     1       6.280   6.146  16.622  0.00  0.00    +0.000 P 
ATOM     26  O   UNL     1       6.755   7.589  16.869  0.00  0.00    +0.000 OA
BRANCH  25  27
ATOM     27  O   UNL     1       7.431   5.531  15.616  0.00  0.00    +0.000 OA
ATOM     28  H   UNL     1       7.011   5.057  14.874  0.00  0.00    +0.000 HD
ENDBRANCH  25  27
BRANCH  25  29
ATOM     29  O   UNL     1       5.512   6.746  15.193  0.00  0.00    +0.000 OA
ATOM     30  H   UNL     1       4.600   6.390  15.239  0.00  0.00    +0.000 HD
ENDBRANCH  25  29
ENDBRANCH  22  25
ENDBRANCH  21  22
ENDBRANCH  20  21
ENDBRANCH  19  20
ENDBRANCH  18  19
ENDBRANCH  17  18
ENDBRANCH  16  17
ENDBRANCH   1  16
TORSDOF 15
ENDMDL
MODEL 2
REMARK VINA RESULT:      -6.5      1.879      2.838
REMARK  Name = 
REMARK  16 active torsions:
REMARK  status: ('A' for Active; 'I' for Inactive)
REMARK    1  A    between atoms: C_1  and  C_2
REMARK    2  A    between atoms: N_4  and  C_5
REMARK    3  A    between atoms: C_5  and  C_6
REMARK    4  A    between atoms: C_6  and  C_7
REMARK    5  A    between atoms: C_7  and  C_8
REMARK    6  A    between atoms: C_8  and  C_9
REMARK    7  A    between atoms: C_9  and  C_10
REMARK    8  A    between atoms: C_10  and  S_11
REMARK    9  A    between atoms: S_11  and  C_12
REMARK   10  A    between atoms: C_12  and  C_13
REMARK   11  A    between atoms: C_13  and  C_14
REMARK   12  A    between atoms: C_14  and  C_15
REMARK   13  A    between atoms: C_15  and  C_16
REMARK   14  A    between atoms: C_16  and  P_19
REMARK   15  A    between atoms: P_19  and  O_21
REMARK   16  A    between atoms: P_19  and  O_22
REMARK                            x       y       z     vdW  Elec       q    Type
REMARK                         _______ _______ _______ _____ _____    ______ ____
ROOT
ATOM      1  C   UNL     1       2.767   5.461  19.965  0.00  0.00    +0.000 C 
ENDROOT
BRANCH   1   2
ATOM      2  C   UNL     1       2.439   6.946  19.772  0.00  0.00    +0.000 C 
BRANCH   2   3
ATOM      3  C   UNL     1       2.781   7.440  18.369  0.00  0.00    +0.000 C 
BRANCH   3   4
ATOM      4  C   UNL     1       1.650   8.279  17.775  0.00  0.00    +0.000 C 
BRANCH   4   5
ATOM      5  C   UNL     1       1.807   9.741  18.191  0.00  0.00    +0.000 C 
BRANCH   5   9
ATOM      6  C   UNL     1      -3.074   9.887  17.376  0.00  0.00    +0.000 C 
ATOM      7  C   UNL     1      -1.822  10.414  17.993  0.00  0.00    +0.000 A 
ATOM      8  C   UNL     1      -0.601   9.922  17.764  0.00  0.00    +0.000 A 
ATOM      9  N   UNL     1       0.524  10.408  18.402  0.00  0.00    +0.000 N 
ATOM     10  C   UNL     1       0.470  11.488  19.262  0.00  0.00    +0.000 A 
ATOM     11  O   UNL     1       1.442  11.964  19.850  0.00  0.00    +0.000 OA
ATOM     12  N   UNL     1      -0.778  12.026  19.454  0.00  0.00    +0.000 N 
ATOM     13  C   UNL     1      -1.948  11.543  18.949  0.00  0.00    +0.000 A 
ATOM     14  O   UNL     1      -3.038  12.005  19.266  0.00  0.00    +0.000 OA
ATOM     15  H   UNL     1      -0.841  12.787  20.114  0.00  0.00    +0.000 HD
ENDBRANCH   5   9
ENDBRANCH   4   5
ENDBRANCH   3   4
ENDBRANCH   2   3
ENDBRANCH   1   2
BRANCH   1  16
ATOM     16  C   UNL     1       1.575   4.502  19.902  0.00  0.00    +0.000 C 
BRANCH  16  17
ATOM     17  S   UNL     1       1.999   2.746  19.672  0.00  0.00    +0.000 S 
BRANCH  17  18
ATOM     18  C   UNL     1       2.212   2.704  17.863  0.00  0.00    +0.000 C 
BRANCH  18  19
ATOM     19  C   UNL     1       3.692   2.795  17.482  0.00  0.00    +0.000 C 
BRANCH  19  20
ATOM     20  C   UNL     1       4.152   4.179  16.985  0.00  0.00    +0.000 C 
BRANCH  20  21
ATOM     21  C   UNL     1       5.633   4.162  16.634  0.00  0.00    +0.000 C 
BRANCH  21  22
ATOM     22  C   UNL     1       6.543   4.782  17.668  0.00  0.00    +0.000 C 
ATOM     23  F   UNL     1       6.008   4.745  18.911  0.00  0.00    +0.000 F 
ATOM     24  F   UNL     1       7.762   4.202  17.727  0.00  0.00    +0.000 F 
BRANCH  22  25
ATOM     25  P   UNL     1       6.902   6.563  17.457  0.00  0.00    +0.000 P 
ATOM     26  O   UNL     1       8.039   6.545  18.493  0.00  0.00    +0.000 OA
BRANCH  25  27
ATOM     27  O   UNL     1       7.686   6.345  16.024  0.00  0.00    +0.000 OA
ATOM     28  H   UNL     1       7.959   5.414  15.928  0.00  0.00    +0.000 HD
ENDBRANCH  25  27
BRANCH  25  29
ATOM     29  O   UNL     1       7.243   8.248  17.256  0.00  0.00    +0.000 OA
ATOM     30  H   UNL     1       8.078   8.387  17.750  0.00  0.00    +0.000 HD
ENDBRANCH  25  29
ENDBRANCH  22  25
ENDBRANCH  21  22
ENDBRANCH  20  21
ENDBRANCH  19  20
ENDBRANCH  18  19
ENDBRANCH  17  18
ENDBRANCH  16  17
ENDBRANCH   1  16
TORSDOF 15
ENDMDL
MODEL 3
REMARK VINA RESULT:      -6.5      4.988      8.245
REMARK  Name = 
REMARK  16 active torsions:
REMARK  status: ('A' for Active; 'I' for Inactive)
REMARK    1  A    between atoms: C_1  and  C_2
REMARK    2  A    between atoms: N_4  and  C_5
REMARK    3  A    between atoms: C_5  and  C_6
REMARK    4  A    between atoms: C_6  and  C_7
REMARK    5  A    between atoms: C_7  and  C_8
REMARK    6  A    between atoms: C_8  and  C_9
REMARK    7  A    between atoms: C_9  and  C_10
REMARK    8  A    between atoms: C_10  and  S_11
REMARK    9  A    between atoms: S_11  and  C_12
REMARK   10  A    between atoms: C_12  and  C_13
REMARK   11  A    between atoms: C_13  and  C_14
REMARK   12  A    between atoms: C_14  and  C_15
REMARK   13  A    between atoms: C_15  and  C_16
REMARK   14  A    between atoms: C_16  and  P_19
REMARK   15  A    between atoms: P_19  and  O_21
REMARK   16  A    between atoms: P_19  and  O_22
REMARK                            x       y       z     vdW  Elec       q    Type
REMARK                         _______ _______ _______ _____ _____    ______ ____
ROOT
ATOM      1  C   UNL     1       2.698   6.126  20.148  0.00  0.00    +0.000 C 
ENDROOT
BRANCH   1   2
ATOM      2  C   UNL     1       1.918   4.966  20.778  0.00  0.00    +0.000 C 
BRANCH   2   3
ATOM      3  C   UNL     1       1.160   4.142  19.741  0.00  0.00    +0.000 C 
BRANCH   3   4
ATOM      4  C   UNL     1       1.525   2.660  19.824  0.00  0.00    +0.000 C 
BRANCH   4   5
ATOM      5  C   UNL     1       2.311   2.243  18.581  0.00  0.00    +0.000 C 
BRANCH   5   9
ATOM      6  C   UNL     1       4.987   5.571  16.076  0.00  0.00    +0.000 C 
ATOM      7  C   UNL     1       4.792   4.608  17.199  0.00  0.00    +0.000 A 
ATOM      8  C   UNL     1       3.722   3.821  17.344  0.00  0.00    +0.000 A 
ATOM      9  N   UNL     1       3.561   2.984  18.431  0.00  0.00    +0.000 N 
ATOM     10  C   UNL     1       4.535   2.848  19.402  0.00  0.00    +0.000 A 
ATOM     11  O   UNL     1       4.445   2.112  20.386  0.00  0.00    +0.000 OA
ATOM     12  N   UNL     1       5.657   3.618  19.223  0.00  0.00    +0.000 N 
ATOM     13  C   UNL     1       5.848   4.543  18.240  0.00  0.00    +0.000 A 
ATOM     14  O   UNL     1       6.827   5.281  18.218  0.00  0.00    +0.000 OA
ATOM     15  H   UNL     1       6.358   3.564  19.947  0.00  0.00    +0.000 HD
ENDBRANCH   5   9
ENDBRANCH   4   5
ENDBRANCH   3   4
ENDBRANCH   2   3
ENDBRANCH   1   2
BRANCH   1  16
ATOM     16  C   UNL     1       1.849   7.264  19.574  0.00  0.00    +0.000 C 
BRANCH  16  17
ATOM     17  S   UNL     1       2.569   8.125  18.139  0.00  0.00    +0.000 S 
BRANCH  17  18
ATOM     18  C   UNL     1       1.244   9.326  17.791  0.00  0.00    +0.000 C 
BRANCH  18  19
ATOM     19  C   UNL     1       0.849  10.093  19.057  0.00  0.00    +0.000 C 
BRANCH  19  20
ATOM     20  C   UNL     1      -0.661  10.114  19.360  0.00  0.00    +0.000 C 
BRANCH  20  21
ATOM     21  C   UNL     1      -1.397  11.008  18.372  0.00  0.00    +0.000 C 
BRANCH  21  22
ATOM     22  C   UNL     1      -2.759  10.507  17.949  0.00  0.00    +0.000 C 
ATOM     23  F   UNL     1      -2.922   9.188  18.201  0.00  0.00    +0.000 F 
ATOM     24  F   UNL     1      -3.780  11.169  18.536  0.00  0.00    +0.000 F 
BRANCH  22  25
ATOM     25  P   UNL     1      -3.128  10.605  16.159  0.00  0.00    +0.000 P 
ATOM     26  O   UNL     1      -4.413  11.422  16.382  0.00  0.00    +0.000 OA
BRANCH  25  27
ATOM     27  O   UNL     1      -1.985  11.758  15.877  0.00  0.00    +0.000 OA
ATOM     28  H   UNL     1      -2.401  12.639  15.828  0.00  0.00    +0.000 HD
ENDBRANCH  25  27
BRANCH  25  29
ATOM     29  O   UNL     1      -3.477  10.699  14.467  0.00  0.00    +0.000 OA
ATOM     30  H   UNL     1      -3.963  11.544  14.366  0.00  0.00    +0.000 HD
ENDBRANCH  25  29
ENDBRANCH  22  25
ENDBRANCH  21  22
ENDBRANCH  20  21
ENDBRANCH  19  20
ENDBRANCH  18  19
ENDBRANCH  17  18
ENDBRANCH  16  17
ENDBRANCH   1  16
TORSDOF 15
ENDMDL
MODEL 4
REMARK VINA RESULT:      -6.5      1.555      1.753
REMARK  Name = 
REMARK  16 active torsions:
REMARK  status: ('A' for Active; 'I' for Inactive)
REMARK    1  A    between atoms: C_1  and  C_2
REMARK    2  A    between atoms: N_4  and  C_5
REMARK    3  A    between atoms: C_5  and  C_6
REMARK    4  A    between atoms: C_6  and  C_7
REMARK    5  A    between atoms: C_7  and  C_8
REMARK    6  A    between atoms: C_8  and  C_9
REMARK    7  A    between atoms: C_9  and  C_10
REMARK    8  A    between atoms: C_10  and  S_11
REMARK    9  A    between atoms: S_11  and  C_12
REMARK   10  A    between atoms: C_12  and  C_13
REMARK   11  A    between atoms: C_13  and  C_14
REMARK   12  A    between atoms: C_14  and  C_15
REMARK   13  A    between atoms: C_15  and  C_16
REMARK   14  A    between atoms: C_16  and  P_19
REMARK   15  A    between atoms: P_19  and  O_21
REMARK   16  A    between atoms: P_19  and  O_22
REMARK                            x       y       z     vdW  Elec       q    Type
REMARK                         _______ _______ _______ _____ _____    ______ ____
ROOT
ATOM      1  C   UNL     1       1.447   2.755  20.635  0.00  0.00    +0.000 C 
ENDROOT
BRANCH   1   2
ATOM      2  C   UNL     1       0.913   4.182  20.460  0.00  0.00    +0.000 C 
BRANCH   2   3
ATOM      3  C   UNL     1       2.026   5.226  20.474  0.00  0.00    +0.000 C 
BRANCH   3   4
ATOM      4  C   UNL     1       1.535   6.565  21.021  0.00  0.00    +0.000 C 
BRANCH   4   5
ATOM      5  C   UNL     1       1.929   7.696  20.071  0.00  0.00    +0.000 C 
BRANCH   5   9
ATOM      6  C   UNL     1      -0.865  10.507  23.037  0.00  0.00    +0.000 C 
ATOM      7  C   UNL     1      -0.202  10.217  21.733  0.00  0.00    +0.000 A 
ATOM      8  C   UNL     1       0.471   9.096  21.458  0.00  0.00    +0.000 A 
ATOM      9  N   UNL     1       1.115   8.895  20.253  0.00  0.00    +0.000 N 
ATOM     10  C   UNL     1       1.042   9.812  19.221  0.00  0.00    +0.000 A 
ATOM     11  O   UNL     1       1.591   9.679  18.126  0.00  0.00    +0.000 OA
ATOM     12  N   UNL     1       0.306  10.939  19.486  0.00  0.00    +0.000 N 
ATOM     13  C   UNL     1      -0.270  11.261  20.679  0.00  0.00    +0.000 A 
ATOM     14  O   UNL     1      -0.807  12.345  20.875  0.00  0.00    +0.000 OA
ATOM     15  H   UNL     1       0.280  11.638  18.760  0.00  0.00    +0.000 HD
ENDBRANCH   5   9
ENDBRANCH   4   5
ENDBRANCH   3   4
ENDBRANCH   2   3
ENDBRANCH   1   2
BRANCH   1  16
ATOM     16  C   UNL     1       2.682   2.399  19.803  0.00  0.00    +0.000 C 
BRANCH  16  17
ATOM     17  S   UNL     1       2.420   2.352  18.001  0.00  0.00    +0.000 S 
BRANCH  17  18
ATOM     18  C   UNL     1       3.750   3.471  17.456  0.00  0.00    +0.000 C 
BRANCH  18  19
ATOM     19  C   UNL     1       3.327   4.937  17.592  0.00  0.00    +0.000 C 
BRANCH  19  20
ATOM     20  C   UNL     1       4.332   5.959  17.028  0.00  0.00    +0.000 C 
BRANCH  20  21
ATOM     21  C   UNL     1       5.666   5.861  17.753  0.00  0.00    +0.000 C 
BRANCH  21  22
ATOM     22  C   UNL     1       6.855   5.566  16.868  0.00  0.00    +0.000 C 
ATOM     23  F   UNL     1       7.564   6.680  16.573  0.00  0.00    +0.000 F 
ATOM     24  F   UNL     1       7.708   4.663  17.399  0.00  0.00    +0.000 F 
BRANCH  22  25
ATOM     25  P   UNL     1       6.473   4.902  15.207  0.00  0.00    +0.000 P 
ATOM     26  O   UNL     1       7.868   5.242  14.656  0.00  0.00    +0.000 OA
BRANCH  25  27
ATOM     27  O   UNL     1       6.621   3.332  15.682  0.00  0.00    +0.000 OA
ATOM     28  H   UNL     1       6.993   2.794  14.958  0.00  0.00    +0.000 HD
ENDBRANCH  25  27
BRANCH  25  29
ATOM     29  O   UNL     1       6.112   4.274  13.636  0.00  0.00    +0.000 OA
ATOM     30  H   UNL     1       6.683   3.482  13.553  0.00  0.00    +0.000 HD
ENDBRANCH  25  29
ENDBRANCH  22  25
ENDBRANCH  21  22
ENDBRANCH  20  21
ENDBRANCH  19  20
ENDBRANCH  18  19
ENDBRANCH  17  18
ENDBRANCH  16  17
ENDBRANCH   1  16
TORSDOF 15
ENDMDL
MODEL 5
REMARK VINA RESULT:      -6.5      6.432      7.864
REMARK  Name = 
REMARK  16 active torsions:
REMARK  status: ('A' for Active; 'I' for Inactive)
REMARK    1  A    between atoms: C_1  and  C_2
REMARK    2  A    between atoms: N_4  and  C_5
REMARK    3  A    between atoms: C_5  and  C_6
REMARK    4  A    between atoms: C_6  and  C_7
REMARK    5  A    between atoms: C_7  and  C_8
REMARK    6  A    between atoms: C_8  and  C_9
REMARK    7  A    between atoms: C_9  and  C_10
REMARK    8  A    between atoms: C_10  and  S_11
REMARK    9  A    between atoms: S_11  and  C_12
REMARK   10  A    between atoms: C_12  and  C_13
REMARK   11  A    between atoms: C_13  and  C_14
REMARK   12  A    between atoms: C_14  and  C_15
REMARK   13  A    between atoms: C_15  and  C_16
REMARK   14  A    between atoms: C_16  and  P_19
REMARK   15  A    between atoms: P_19  and  O_21
REMARK   16  A    between atoms: P_19  and  O_22
REMARK                            x       y       z     vdW  Elec       q    Type
REMARK                         _______ _______ _______ _____ _____    ______ ____
ROOT
ATOM      1  C   UNL     1       7.254   7.626  17.548  0.00  0.00    +0.000 C 
ENDROOT
BRANCH   1   2
ATOM      2  C   UNL     1       8.143   8.874  17.489  0.00  0.00    +0.000 C 
BRANCH   2   3
ATOM      3  C   UNL     1       8.895   9.117  18.794  0.00  0.00    +0.000 C 
BRANCH   3   4
ATOM      4  C   UNL     1       8.888  10.594  19.183  0.00  0.00    +0.000 C 
BRANCH   4   5
ATOM      5  C   UNL     1      10.134  11.288  18.632  0.00  0.00    +0.000 C 
BRANCH   5   9
ATOM      6  C   UNL     1       7.590  15.457  19.436  0.00  0.00    +0.000 C 
ATOM      7  C   UNL     1       8.655  14.673  18.748  0.00  0.00    +0.000 A 
ATOM      8  C   UNL     1       8.863  13.364  18.920  0.00  0.00    +0.000 A 
ATOM      9  N   UNL     1       9.898  12.691  18.302  0.00  0.00    +0.000 N 
ATOM     10  C   UNL     1      10.743  13.313  17.402  0.00  0.00    +0.000 A 
ATOM     11  O   UNL     1      11.676  12.758  16.819  0.00  0.00    +0.000 OA
ATOM     12  N   UNL     1      10.495  14.646  17.185  0.00  0.00    +0.000 N 
ATOM     13  C   UNL     1       9.566  15.405  17.831  0.00  0.00    +0.000 A 
ATOM     14  O   UNL     1       9.487  16.618  17.673  0.00  0.00    +0.000 OA
ATOM     15  H   UNL     1      11.131  15.125  16.566  0.00  0.00    +0.000 HD
ENDBRANCH   5   9
ENDBRANCH   4   5
ENDBRANCH   3   4
ENDBRANCH   2   3
ENDBRANCH   1   2
BRANCH   1  16
ATOM     16  C   UNL     1       7.765   6.487  18.435  0.00  0.00    +0.000 C 
BRANCH  16  17
ATOM     17  S   UNL     1       7.458   4.808  17.799  0.00  0.00    +0.000 S 
BRANCH  17  18
ATOM     18  C   UNL     1       6.719   5.210  16.183  0.00  0.00    +0.000 C 
BRANCH  18  19
ATOM     19  C   UNL     1       5.202   5.383  16.300  0.00  0.00    +0.000 C 
BRANCH  19  20
ATOM     20  C   UNL     1       4.445   4.153  16.837  0.00  0.00    +0.000 C 
BRANCH  20  21
ATOM     21  C   UNL     1       3.413   4.566  17.876  0.00  0.00    +0.000 C 
BRANCH  21  22
ATOM     22  C   UNL     1       2.108   3.806  17.819  0.00  0.00    +0.000 C 
ATOM     23  F   UNL     1       1.117   4.529  17.248  0.00  0.00    +0.000 F 
ATOM     24  F   UNL     1       2.200   2.633  17.153  0.00  0.00    +0.000 F 
BRANCH  22  25
ATOM     25  P   UNL     1       1.373   3.351  19.431  0.00  0.00    +0.000 P 
ATOM     26  O   UNL     1       0.412   2.328  18.802  0.00  0.00    +0.000 OA
BRANCH  25  27
ATOM     27  O   UNL     1       2.666   2.436  19.884  0.00  0.00    +0.000 OA
ATOM     28  H   UNL     1       2.888   2.607  20.818  0.00  0.00    +0.000 HD
ENDBRANCH  25  27
BRANCH  25  29
ATOM     29  O   UNL     1       0.678   2.921  20.956  0.00  0.00    +0.000 OA
ATOM     30  H   UNL     1       0.005   2.245  20.734  0.00  0.00    +0.000 HD
ENDBRANCH  25  29
ENDBRANCH  22  25
ENDBRANCH  21  22
ENDBRANCH  20  21
ENDBRANCH  19  20
ENDBRANCH  18  19
ENDBRANCH  17  18
ENDBRANCH  16  17
ENDBRANCH   1  16
TORSDOF 15
ENDMDL
MODEL 6
REMARK VINA RESULT:      -6.4      5.097      8.649
REMARK  Name = 
REMARK  16 active torsions:
REMARK  status: ('A' for Active; 'I' for Inactive)
REMARK    1  A    between atoms: C_1  and  C_2
REMARK    2  A    between atoms: N_4  and  C_5
REMARK    3  A    between atoms: C_5  and  C_6
REMARK    4  A    between atoms: C_6  and  C_7
REMARK    5  A    between atoms: C_7  and  C_8
REMARK    6  A    between atoms: C_8  and  C_9
REMARK    7  A    between atoms: C_9  and  C_10
REMARK    8  A    between atoms: C_10  and  S_11
REMARK    9  A    between atoms: S_11  and  C_12
REMARK   10  A    between atoms: C_12  and  C_13
REMARK   11  A    between atoms: C_13  and  C_14
REMARK   12  A    between atoms: C_14  and  C_15
REMARK   13  A    between atoms: C_15  and  C_16
REMARK   14  A    between atoms: C_16  and  P_19
REMARK   15  A    between atoms: P_19  and  O_21
REMARK   16  A    between atoms: P_19  and  O_22
REMARK                            x       y       z     vdW  Elec       q    Type
REMARK                         _______ _______ _______ _____ _____    ______ ____
ROOT
ATOM      1  C   UNL     1       2.587   6.620  19.997  0.00  0.00    +0.000 C 
ENDROOT
BRANCH   1   2
ATOM      2  C   UNL     1       1.803   5.435  20.574  0.00  0.00    +0.000 C 
BRANCH   2   3
ATOM      3  C   UNL     1       1.617   4.310  19.560  0.00  0.00    +0.000 C 
BRANCH   3   4
ATOM      4  C   UNL     1       2.556   4.468  18.365  0.00  0.00    +0.000 C 
BRANCH   4   5
ATOM      5  C   UNL     1       3.819   3.634  18.577  0.00  0.00    +0.000 C 
BRANCH   5   9
ATOM      6  C   UNL     1       5.544   4.078  13.958  0.00  0.00    +0.000 C 
ATOM      7  C   UNL     1       5.673   4.232  15.436  0.00  0.00    +0.000 A 
ATOM      8  C   UNL     1       4.769   3.807  16.324  0.00  0.00    +0.000 A 
ATOM      9  N   UNL     1       4.906   4.021  17.681  0.00  0.00    +0.000 N 
ATOM     10  C   UNL     1       6.029   4.621  18.218  0.00  0.00    +0.000 A 
ATOM     11  O   UNL     1       6.205   4.829  19.420  0.00  0.00    +0.000 OA
ATOM     12  N   UNL     1       6.983   5.008  17.310  0.00  0.00    +0.000 N 
ATOM     13  C   UNL     1       6.877   4.930  15.953  0.00  0.00    +0.000 A 
ATOM     14  O   UNL     1       7.719   5.411  15.203  0.00  0.00    +0.000 OA
ATOM     15  H   UNL     1       7.788   5.488  17.682  0.00  0.00    +0.000 HD
ENDBRANCH   5   9
ENDBRANCH   4   5
ENDBRANCH   3   4
ENDBRANCH   2   3
ENDBRANCH   1   2
BRANCH   1  16
ATOM     16  C   UNL     1       1.835   7.954  19.947  0.00  0.00    +0.000 C 
BRANCH  16  17
ATOM     17  S   UNL     1       1.262   8.584  21.557  0.00  0.00    +0.000 S 
BRANCH  17  18
ATOM     18  C   UNL     1      -0.267   9.431  21.040  0.00  0.00    +0.000 C 
BRANCH  18  19
ATOM     19  C   UNL     1      -0.055  10.200  19.733  0.00  0.00    +0.000 C 
BRANCH  19  20
ATOM     20  C   UNL     1      -0.971  11.423  19.541  0.00  0.00    +0.000 C 
BRANCH  20  21
ATOM     21  C   UNL     1      -1.534  11.460  18.128  0.00  0.00    +0.000 C 
BRANCH  21  22
ATOM     22  C   UNL     1      -2.819  10.691  17.931  0.00  0.00    +0.000 C 
ATOM     23  F   UNL     1      -2.721   9.409  18.353  0.00  0.00    +0.000 F 
ATOM     24  F   UNL     1      -3.880  11.251  18.554  0.00  0.00    +0.000 F 
BRANCH  22  25
ATOM     25  P   UNL     1      -3.373  10.484  16.199  0.00  0.00    +0.000 P 
ATOM     26  O   UNL     1      -4.603  11.387  16.394  0.00  0.00    +0.000 OA
BRANCH  25  27
ATOM     27  O   UNL     1      -2.234  11.511  15.599  0.00  0.00    +0.000 OA
ATOM     28  H   UNL     1      -2.602  12.411  15.516  0.00  0.00    +0.000 HD
ENDBRANCH  25  27
BRANCH  25  29
ATOM     29  O   UNL     1      -3.896  10.288  14.562  0.00  0.00    +0.000 OA
ATOM     30  H   UNL     1      -3.819   9.325  14.395  0.00  0.00    +0.000 HD
ENDBRANCH  25  29
ENDBRANCH  22  25
ENDBRANCH  21  22
ENDBRANCH  20  21
ENDBRANCH  19  20
ENDBRANCH  18  19
ENDBRANCH  17  18
ENDBRANCH  16  17
ENDBRANCH   1  16
TORSDOF 15
ENDMDL
MODEL 7
REMARK VINA RESULT:      -6.4      4.164      7.503
REMARK  Name = 
REMARK  16 active torsions:
REMARK  status: ('A' for Active; 'I' for Inactive)
REMARK    1  A    between atoms: C_1  and  C_2
REMARK    2  A    between atoms: N_4  and  C_5
REMARK    3  A    between atoms: C_5  and  C_6
REMARK    4  A    between atoms: C_6  and  C_7
REMARK    5  A    between atoms: C_7  and  C_8
REMARK    6  A    between atoms: C_8  and  C_9
REMARK    7  A    between atoms: C_9  and  C_10
REMARK    8  A    between atoms: C_10  and  S_11
REMARK    9  A    between atoms: S_11  and  C_12
REMARK   10  A    between atoms: C_12  and  C_13
REMARK   11  A    between atoms: C_13  and  C_14
REMARK   12  A    between atoms: C_14  and  C_15
REMARK   13  A    between atoms: C_15  and  C_16
REMARK   14  A    between atoms: C_16  and  P_19
REMARK   15  A    between atoms: P_19  and  O_21
REMARK   16  A    between atoms: P_19  and  O_22
REMARK                            x       y       z     vdW  Elec       q    Type
REMARK                         _______ _______ _______ _____ _____    ______ ____
ROOT
ATOM      1  C   UNL     1       1.866   3.749  21.227  0.00  0.00    +0.000 C 
ENDROOT
BRANCH   1   2
ATOM      2  C   UNL     1       2.869   2.804  20.554  0.00  0.00    +0.000 C 
BRANCH   2   3
ATOM      3  C   UNL     1       2.497   2.494  19.106  0.00  0.00    +0.000 C 
BRANCH   3   4
ATOM      4  C   UNL     1       3.726   2.481  18.199  0.00  0.00    +0.000 C 
BRANCH   4   5
ATOM      5  C   UNL     1       4.701   3.580  18.620  0.00  0.00    +0.000 C 
BRANCH   5   9
ATOM      6  C   UNL     1       5.505   4.025  13.756  0.00  0.00    +0.000 C 
ATOM      7  C   UNL     1       5.902   4.208  15.182  0.00  0.00    +0.000 A 
ATOM      8  C   UNL     1       5.202   3.758  16.227  0.00  0.00    +0.000 A 
ATOM      9  N   UNL     1       5.581   4.000  17.532  0.00  0.00    +0.000 N 
ATOM     10  C   UNL     1       6.755   4.659  17.844  0.00  0.00    +0.000 A 
ATOM     11  O   UNL     1       7.143   4.893  18.989  0.00  0.00    +0.000 OA
ATOM     12  N   UNL     1       7.502   5.073  16.769  0.00  0.00    +0.000 N 
ATOM     13  C   UNL     1       7.147   4.968  15.457  0.00  0.00    +0.000 A 
ATOM     14  O   UNL     1       7.810   5.474  14.558  0.00  0.00    +0.000 OA
ATOM     15  H   UNL     1       8.339   5.595  16.980  0.00  0.00    +0.000 HD
ENDBRANCH   5   9
ENDBRANCH   4   5
ENDBRANCH   3   4
ENDBRANCH   2   3
ENDBRANCH   1   2
BRANCH   1  16
ATOM     16  C   UNL     1       1.185   4.763  20.304  0.00  0.00    +0.000 C 
BRANCH  16  17
ATOM     17  S   UNL     1       1.786   6.476  20.451  0.00  0.00    +0.000 S 
BRANCH  17  18
ATOM     18  C   UNL     1       3.078   6.471  19.166  0.00  0.00    +0.000 C 
BRANCH  18  19
ATOM     19  C   UNL     1       2.807   7.546  18.109  0.00  0.00    +0.000 C 
BRANCH  19  20
ATOM     20  C   UNL     1       1.447   8.257  18.239  0.00  0.00    +0.000 C 
BRANCH  20  21
ATOM     21  C   UNL     1       1.637   9.729  18.578  0.00  0.00    +0.000 C 
BRANCH  21  22
ATOM     22  C   UNL     1       0.429  10.409  19.177  0.00  0.00    +0.000 C 
ATOM     23  F   UNL     1       0.344  11.712  18.821  0.00  0.00    +0.000 F 
ATOM     24  F   UNL     1      -0.739   9.814  18.848  0.00  0.00    +0.000 F 
BRANCH  22  25
ATOM     25  P   UNL     1       0.386  10.505  21.004  0.00  0.00    +0.000 P 
ATOM     26  O   UNL     1       1.376  11.682  21.050  0.00  0.00    +0.000 OA
BRANCH  25  27
ATOM     27  O   UNL     1      -1.087  11.242  21.038  0.00  0.00    +0.000 OA
ATOM     28  H   UNL     1      -1.740  10.713  20.541  0.00  0.00    +0.000 HD
ENDBRANCH  25  27
BRANCH  25  29
ATOM     29  O   UNL     1       0.345  10.597  22.731  0.00  0.00    +0.000 OA
ATOM     30  H   UNL     1       0.097  11.526  22.919  0.00  0.00    +0.000 HD
ENDBRANCH  25  29
ENDBRANCH  22  25
ENDBRANCH  21  22
ENDBRANCH  20  21
ENDBRANCH  19  20
ENDBRANCH  18  19
ENDBRANCH  17  18
ENDBRANCH  16  17
ENDBRANCH   1  16
TORSDOF 15
ENDMDL
MODEL 8
REMARK VINA RESULT:      -6.3      2.312      3.300
REMARK  Name = 
REMARK  16 active torsions:
REMARK  status: ('A' for Active; 'I' for Inactive)
REMARK    1  A    between atoms: C_1  and  C_2
REMARK    2  A    between atoms: N_4  and  C_5
REMARK    3  A    between atoms: C_5  and  C_6
REMARK    4  A    between atoms: C_6  and  C_7
REMARK    5  A    between atoms: C_7  and  C_8
REMARK    6  A    between atoms: C_8  and  C_9
REMARK    7  A    between atoms: C_9  and  C_10
REMARK    8  A    between atoms: C_10  and  S_11
REMARK    9  A    between atoms: S_11  and  C_12
REMARK   10  A    between atoms: C_12  and  C_13
REMARK   11  A    between atoms: C_13  and  C_14
REMARK   12  A    between atoms: C_14  and  C_15
REMARK   13  A    between atoms: C_15  and  C_16
REMARK   14  A    between atoms: C_16  and  P_19
REMARK   15  A    between atoms: P_19  and  O_21
REMARK   16  A    between atoms: P_19  and  O_22
REMARK                            x       y       z     vdW  Elec       q    Type
REMARK                         _______ _______ _______ _____ _____    ______ ____
ROOT
ATOM      1  C   UNL     1       1.596   5.507  20.851  0.00  0.00    +0.000 C 
ENDROOT
BRANCH   1   2
ATOM      2  C   UNL     1       2.330   6.323  19.780  0.00  0.00    +0.000 C 
BRANCH   2   3
ATOM      3  C   UNL     1       1.951   7.801  19.813  0.00  0.00    +0.000 C 
BRANCH   3   4
ATOM      4  C   UNL     1       1.059   8.128  21.009  0.00  0.00    +0.000 C 
BRANCH   4   5
ATOM      5  C   UNL     1       1.390   9.519  21.547  0.00  0.00    +0.000 C 
BRANCH   5   9
ATOM      6  C   UNL     1      -1.126  12.274  18.293  0.00  0.00    +0.000 C 
ATOM      7  C   UNL     1      -0.858  11.776  19.673  0.00  0.00    +0.000 A 
ATOM      8  C   UNL     1       0.155  10.970  20.005  0.00  0.00    +0.000 A 
ATOM      9  N   UNL     1       0.331  10.491  21.288  0.00  0.00    +0.000 N 
ATOM     10  C   UNL     1      -0.487  10.877  22.333  0.00  0.00    +0.000 A 
ATOM     11  O   UNL     1      -0.370  10.486  23.495  0.00  0.00    +0.000 OA
ATOM     12  N   UNL     1      -1.495  11.748  22.002  0.00  0.00    +0.000 N 
ATOM     13  C   UNL     1      -1.800  12.183  20.746  0.00  0.00    +0.000 A 
ATOM     14  O   UNL     1      -2.793  12.863  20.513  0.00  0.00    +0.000 OA
ATOM     15  H   UNL     1      -2.128  12.004  22.744  0.00  0.00    +0.000 HD
ENDBRANCH   5   9
ENDBRANCH   4   5
ENDBRANCH   3   4
ENDBRANCH   2   3
ENDBRANCH   1   2
BRANCH   1  16
ATOM     16  C   UNL     1       1.041   4.155  20.392  0.00  0.00    +0.000 C 
BRANCH  16  17
ATOM     17  S   UNL     1       2.277   2.831  20.200  0.00  0.00    +0.000 S 
BRANCH  17  18
ATOM     18  C   UNL     1       1.777   2.161  18.582  0.00  0.00    +0.000 C 
BRANCH  18  19
ATOM     19  C   UNL     1       2.950   2.169  17.597  0.00  0.00    +0.000 C 
BRANCH  19  20
ATOM     20  C   UNL     1       4.093   3.137  17.955  0.00  0.00    +0.000 C 
BRANCH  20  21
ATOM     21  C   UNL     1       4.131   4.311  16.987  0.00  0.00    +0.000 C 
BRANCH  21  22
ATOM     22  C   UNL     1       5.309   4.323  16.042  0.00  0.00    +0.000 C 
ATOM     23  F   UNL     1       6.045   3.191  16.125  0.00  0.00    +0.000 F 
ATOM     24  F   UNL     1       4.957   4.493  14.748  0.00  0.00    +0.000 F 
BRANCH  22  25
ATOM     25  P   UNL     1       6.564   5.620  16.341  0.00  0.00    +0.000 P 
ATOM     26  O   UNL     1       6.047   5.914  17.759  0.00  0.00    +0.000 OA
BRANCH  25  27
ATOM     27  O   UNL     1       7.780   4.538  16.591  0.00  0.00    +0.000 OA
ATOM     28  H   UNL     1       8.584   4.819  16.116  0.00  0.00    +0.000 HD
ENDBRANCH  25  27
BRANCH  25  29
ATOM     29  O   UNL     1       7.751   6.847  16.623  0.00  0.00    +0.000 OA
ATOM     30  H   UNL     1       7.239   7.682  16.636  0.00  0.00    +0.000 HD
ENDBRANCH  25  29
ENDBRANCH  22  25
ENDBRANCH  21  22
ENDBRANCH  20  21
ENDBRANCH  19  20
ENDBRANCH  18  19
ENDBRANCH  17  18
ENDBRANCH  16  17
ENDBRANCH   1  16
TORSDOF 15
ENDMDL
MODEL 9
REMARK VINA RESULT:      -6.3      2.085      2.903
REMARK  Name = 
REMARK  16 active torsions:
REMARK  status: ('A' for Active; 'I' for Inactive)
REMARK    1  A    between atoms: C_1  and  C_2
REMARK    2  A    between atoms: N_4  and  C_5
REMARK    3  A    between atoms: C_5  and  C_6
REMARK    4  A    between atoms: C_6  and  C_7
REMARK    5  A    between atoms: C_7  and  C_8
REMARK    6  A    between atoms: C_8  and  C_9
REMARK    7  A    between atoms: C_9  and  C_10
REMARK    8  A    between atoms: C_10  and  S_11
REMARK    9  A    between atoms: S_11  and  C_12
REMARK   10  A    between atoms: C_12  and  C_13
REMARK   11  A    between atoms: C_13  and  C_14
REMARK   12  A    between atoms: C_14  and  C_15
REMARK   13  A    between atoms: C_15  and  C_16
REMARK   14  A    between atoms: C_16  and  P_19
REMARK   15  A    between atoms: P_19  and  O_21
REMARK   16  A    between atoms: P_19  and  O_22
REMARK                            x       y       z     vdW  Elec       q    Type
REMARK                         _______ _______ _______ _____ _____    ______ ____
ROOT
ATOM      1  C   UNL     1       3.034   6.013  19.662  0.00  0.00    +0.000 C 
ENDROOT
BRANCH   1   2
ATOM      2  C   UNL     1       2.347   7.379  19.778  0.00  0.00    +0.000 C 
BRANCH   2   3
ATOM      3  C   UNL     1       1.269   7.400  20.858  0.00  0.00    +0.000 C 
BRANCH   3   4
ATOM      4  C   UNL     1       1.160   8.774  21.519  0.00  0.00    +0.000 C 
BRANCH   4   5
ATOM      5  C   UNL     1       0.089   9.609  20.819  0.00  0.00    +0.000 C 
BRANCH   5   9
ATOM      6  C   UNL     1       2.277  14.047  20.966  0.00  0.00    +0.000 C 
ATOM      7  C   UNL     1       1.718  12.875  20.233  0.00  0.00    +0.000 A 
ATOM      8  C   UNL     1       1.100  11.843  20.815  0.00  0.00    +0.000 A 
ATOM      9  N   UNL     1       0.646  10.752  20.099  0.00  0.00    +0.000 N 
ATOM     10  C   UNL     1       0.733  10.692  18.721  0.00  0.00    +0.000 A 
ATOM     11  O   UNL     1       0.337   9.748  18.036  0.00  0.00    +0.000 OA
ATOM     12  N   UNL     1       1.319  11.777  18.120  0.00  0.00    +0.000 N 
ATOM     13  C   UNL     1       1.885  12.840  18.758  0.00  0.00    +0.000 A 
ATOM     14  O   UNL     1       2.501  13.713  18.156  0.00  0.00    +0.000 OA
ATOM     15  H   UNL     1       1.430  11.729  17.119  0.00  0.00    +0.000 HD
ENDBRANCH   5   9
ENDBRANCH   4   5
ENDBRANCH   3   4
ENDBRANCH   2   3
ENDBRANCH   1   2
BRANCH   1  16
ATOM     16  C   UNL     1       2.364   4.866  20.424  0.00  0.00    +0.000 C 
BRANCH  16  17
ATOM     17  S   UNL     1       1.293   3.786  19.422  0.00  0.00    +0.000 S 
BRANCH  17  18
ATOM     18  C   UNL     1       1.906   4.189  17.754  0.00  0.00    +0.000 C 
BRANCH  18  19
ATOM     19  C   UNL     1       2.910   3.140  17.268  0.00  0.00    +0.000 C 
BRANCH  19  20
ATOM     20  C   UNL     1       4.386   3.575  17.329  0.00  0.00    +0.000 C 
BRANCH  20  21
ATOM     21  C   UNL     1       4.790   4.294  16.050  0.00  0.00    +0.000 C 
BRANCH  21  22
ATOM     22  C   UNL     1       5.887   5.321  16.212  0.00  0.00    +0.000 C 
ATOM     23  F   UNL     1       6.838   5.211  15.256  0.00  0.00    +0.000 F 
ATOM     24  F   UNL     1       5.435   6.594  16.200  0.00  0.00    +0.000 F 
BRANCH  22  25
ATOM     25  P   UNL     1       6.871   5.207  17.750  0.00  0.00    +0.000 P 
ATOM     26  O   UNL     1       7.981   4.379  17.079  0.00  0.00    +0.000 OA
BRANCH  25  27
ATOM     27  O   UNL     1       7.425   6.754  17.637  0.00  0.00    +0.000 OA
ATOM     28  H   UNL     1       7.473   7.160  18.523  0.00  0.00    +0.000 HD
ENDBRANCH  25  27
BRANCH  25  29
ATOM     29  O   UNL     1       7.803   5.100  19.204  0.00  0.00    +0.000 OA
ATOM     30  H   UNL     1       7.449   5.815  19.772  0.00  0.00    +0.000 HD
ENDBRANCH  25  29
ENDBRANCH  22  25
ENDBRANCH  21  22
ENDBRANCH  20  21
ENDBRANCH  19  20
ENDBRANCH  18  19
ENDBRANCH  17  18
ENDBRANCH  16  17
ENDBRANCH   1  16
TORSDOF 15
ENDMDL
