MODEL 1
REMARK VINA RESULT:      -7.4      0.000      0.000
REMARK  Name = 
REMARK  7 active torsions:
REMARK  status: ('A' for Active; 'I' for Inactive)
REMARK    1  A    between atoms: C_1  and  C_2
REMARK    2  A    between atoms: C_2  and  C_3
REMARK    3  A    between atoms: N_8  and  C_9
REMARK    4  A    between atoms: C_9  and  C_10
REMARK    5  A    between atoms: C_14  and  C_15
REMARK    6  A    between atoms: C_17  and  C_18
REMARK    7  A    between atoms: C_23  and  O_24
REMARK                            x       y       z     vdW  Elec       q    Type
REMARK                         _______ _______ _______ _____ _____    ______ ____
ROOT
ATOM      1  C   UNL     1       1.961   8.167  19.170  0.00  0.00    +0.000 C 
ATOM      2  O   UNL     1       1.590   7.932  20.320  0.00  0.00    +0.000 OA
ATOM      3  N   UNL     1       2.918   7.376  18.556  0.00  0.00    +0.000 N 
ATOM      4  N   UNL     1       3.411   7.600  17.296  0.00  0.00    +0.000 NA
ATOM      5  C   UNL     1       4.360   6.727  17.134  0.00  0.00    +0.000 C 
ATOM      6  C   UNL     1       5.146   6.601  15.873  0.00  0.00    +0.000 C 
ATOM      7  C   UNL     1       4.684   5.878  18.329  0.00  0.00    +0.000 C 
ATOM      8  C   UNL     1       3.469   6.177  19.191  0.00  0.00    +0.000 C 
ENDROOT
BRANCH   8   9
ATOM      9  C   UNL     1       2.494   5.009  19.216  0.00  0.00    +0.000 A 
ATOM     10  C   UNL     1       2.109   4.335  18.043  0.00  0.00    +0.000 A 
ATOM     11  C   UNL     1       1.197   3.279  18.087  0.00  0.00    +0.000 A 
ATOM     12  C   UNL     1       0.659   2.876  19.305  0.00  0.00    +0.000 A 
ATOM     13  C   UNL     1       1.041   3.518  20.483  0.00  0.00    +0.000 A 
ATOM     14  C   UNL     1       1.958   4.568  20.432  0.00  0.00    +0.000 A 
BRANCH  14  15
ATOM     15  O   UNL     1       2.359   5.180  21.588  0.00  0.00    +0.000 OA
ATOM     16  H   UNL     1       2.881   4.545  22.107  0.00  0.00    +0.000 HD
ENDBRANCH  14  15
ENDBRANCH   8   9
BRANCH   1  17
ATOM     17  C   UNL     1       1.431   9.332  18.310  0.00  0.00    +0.000 C 
BRANCH  17  23
ATOM     18  C   UNL     1      -0.012  11.144  19.262  0.00  0.00    +0.000 C 
ATOM     19  C   UNL     1      -1.475  11.473  19.637  0.00  0.00    +0.000 C 
ATOM     20  C   UNL     1      -2.407  11.371  18.434  0.00  0.00    +0.000 C 
ATOM     21  C   UNL     1      -2.269  10.006  17.779  0.00  0.00    +0.000 C 
ATOM     22  C   UNL     1      -0.810   9.706  17.450  0.00  0.00    +0.000 C 
ATOM     23  N   UNL     1       0.054   9.797  18.643  0.00  0.00    +0.000 NA
BRANCH  18  25
ATOM     24  C   UNL     1       0.326  10.900  21.830  0.00  0.00    +0.000 C 
ATOM     25  C   UNL     1       0.905  11.349  20.494  0.00  0.00    +0.000 C 
ENDBRANCH  18  25
ENDBRANCH  17  23
ENDBRANCH   1  17
TORSDOF 5
ENDMDL
MODEL 2
REMARK VINA RESULT:      -7.4      2.678      6.822
REMARK  Name = 
REMARK  7 active torsions:
REMARK  status: ('A' for Active; 'I' for Inactive)
REMARK    1  A    between atoms: C_1  and  C_2
REMARK    2  A    between atoms: C_2  and  C_3
REMARK    3  A    between atoms: N_8  and  C_9
REMARK    4  A    between atoms: C_9  and  C_10
REMARK    5  A    between atoms: C_14  and  C_15
REMARK    6  A    between atoms: C_17  and  C_18
REMARK    7  A    between atoms: C_23  and  O_24
REMARK                            x       y       z     vdW  Elec       q    Type
REMARK                         _______ _______ _______ _____ _____    ______ ____
ROOT
ATOM      1  C   UNL     1       4.729   4.868  19.247  0.00  0.00    +0.000 C 
ATOM      2  O   UNL     1       5.268   5.793  19.855  0.00  0.00    +0.000 OA
ATOM      3  N   UNL     1       3.378   4.603  19.408  0.00  0.00    +0.000 N 
ATOM      4  N   UNL     1       2.718   3.567  18.798  0.00  0.00    +0.000 NA
ATOM      5  C   UNL     1       1.514   3.585  19.290  0.00  0.00    +0.000 C 
ATOM      6  C   UNL     1       0.446   2.635  18.866  0.00  0.00    +0.000 C 
ATOM      7  C   UNL     1       1.264   4.586  20.379  0.00  0.00    +0.000 C 
ATOM      8  C   UNL     1       2.505   5.450  20.222  0.00  0.00    +0.000 C 
ENDROOT
BRANCH   8   9
ATOM      9  C   UNL     1       2.183   6.786  19.568  0.00  0.00    +0.000 A 
ATOM     10  C   UNL     1       2.350   6.999  18.188  0.00  0.00    +0.000 A 
ATOM     11  C   UNL     1       2.069   8.240  17.614  0.00  0.00    +0.000 A 
ATOM     12  C   UNL     1       1.610   9.286  18.408  0.00  0.00    +0.000 A 
ATOM     13  C   UNL     1       1.418   9.091  19.775  0.00  0.00    +0.000 A 
ATOM     14  C   UNL     1       1.696   7.846  20.343  0.00  0.00    +0.000 A 
BRANCH  14  15
ATOM     15  O   UNL     1       1.480   7.642  21.677  0.00  0.00    +0.000 OA
ATOM     16  H   UNL     1       0.651   7.145  21.783  0.00  0.00    +0.000 HD
ENDBRANCH  14  15
ENDBRANCH   8   9
BRANCH   1  17
ATOM     17  C   UNL     1       5.466   3.923  18.277  0.00  0.00    +0.000 C 
BRANCH  17  23
ATOM     18  C   UNL     1       7.164   4.901  16.719  0.00  0.00    +0.000 C 
ATOM     19  C   UNL     1       7.314   5.548  15.323  0.00  0.00    +0.000 C 
ATOM     20  C   UNL     1       6.840   4.618  14.212  0.00  0.00    +0.000 C 
ATOM     21  C   UNL     1       5.417   4.156  14.487  0.00  0.00    +0.000 C 
ATOM     22  C   UNL     1       5.304   3.551  15.882  0.00  0.00    +0.000 C 
ATOM     23  N   UNL     1       5.755   4.489  16.929  0.00  0.00    +0.000 NA
BRANCH  18  25
ATOM     24  C   UNL     1       7.517   7.337  17.564  0.00  0.00    +0.000 C 
ATOM     25  C   UNL     1       7.742   5.849  17.801  0.00  0.00    +0.000 C 
ENDBRANCH  18  25
ENDBRANCH  17  23
ENDBRANCH   1  17
TORSDOF 5
ENDMDL
MODEL 3
REMARK VINA RESULT:      -7.2      1.189      1.702
REMARK  Name = 
REMARK  7 active torsions:
REMARK  status: ('A' for Active; 'I' for Inactive)
REMARK    1  A    between atoms: C_1  and  C_2
REMARK    2  A    between atoms: C_2  and  C_3
REMARK    3  A    between atoms: N_8  and  C_9
REMARK    4  A    between atoms: C_9  and  C_10
REMARK    5  A    between atoms: C_14  and  C_15
REMARK    6  A    between atoms: C_17  and  C_18
REMARK    7  A    between atoms: C_23  and  O_24
REMARK                            x       y       z     vdW  Elec       q    Type
REMARK                         _______ _______ _______ _____ _____    ______ ____
ROOT
ATOM      1  C   UNL     1       2.060   8.042  19.319  0.00  0.00    +0.000 C 
ATOM      2  O   UNL     1       1.731   7.773  20.474  0.00  0.00    +0.000 OA
ATOM      3  N   UNL     1       2.986   7.263  18.644  0.00  0.00    +0.000 N 
ATOM      4  N   UNL     1       3.432   7.523  17.373  0.00  0.00    +0.000 NA
ATOM      5  C   UNL     1       4.367   6.648  17.147  0.00  0.00    +0.000 C 
ATOM      6  C   UNL     1       5.102   6.556  15.854  0.00  0.00    +0.000 C 
ATOM      7  C   UNL     1       4.729   5.760  18.302  0.00  0.00    +0.000 C 
ATOM      8  C   UNL     1       3.550   6.041  19.219  0.00  0.00    +0.000 C 
ENDROOT
BRANCH   8   9
ATOM      9  C   UNL     1       2.566   4.880  19.245  0.00  0.00    +0.000 A 
ATOM     10  C   UNL     1       2.183   4.202  18.073  0.00  0.00    +0.000 A 
ATOM     11  C   UNL     1       1.262   3.153  18.118  0.00  0.00    +0.000 A 
ATOM     12  C   UNL     1       0.714   2.761  19.335  0.00  0.00    +0.000 A 
ATOM     13  C   UNL     1       1.094   3.407  20.511  0.00  0.00    +0.000 A 
ATOM     14  C   UNL     1       2.020   4.450  20.461  0.00  0.00    +0.000 A 
BRANCH  14  15
ATOM     15  O   UNL     1       2.418   5.065  21.615  0.00  0.00    +0.000 OA
ATOM     16  H   UNL     1       2.884   5.886  21.382  0.00  0.00    +0.000 HD
ENDBRANCH  14  15
ENDBRANCH   8   9
BRANCH   1  17
ATOM     17  C   UNL     1       1.508   9.237  18.517  0.00  0.00    +0.000 C 
BRANCH  17  23
ATOM     18  C   UNL     1       1.088  11.700  18.681  0.00  0.00    +0.000 C 
ATOM     19  C   UNL     1       0.607  12.798  19.658  0.00  0.00    +0.000 C 
ATOM     20  C   UNL     1      -0.807  12.530  20.160  0.00  0.00    +0.000 C 
ATOM     21  C   UNL     1      -0.893  11.137  20.764  0.00  0.00    +0.000 C 
ATOM     22  C   UNL     1      -0.384  10.087  19.782  0.00  0.00    +0.000 C 
ATOM     23  N   UNL     1       0.993  10.373  19.335  0.00  0.00    +0.000 NA
BRANCH  18  25
ATOM     24  C   UNL     1       2.897  13.527  18.277  0.00  0.00    +0.000 C 
ATOM     25  C   UNL     1       2.491  12.066  18.130  0.00  0.00    +0.000 C 
ENDBRANCH  18  25
ENDBRANCH  17  23
ENDBRANCH   1  17
TORSDOF 5
ENDMDL
MODEL 4
REMARK VINA RESULT:      -7.1      0.579      1.960
REMARK  Name = 
REMARK  7 active torsions:
REMARK  status: ('A' for Active; 'I' for Inactive)
REMARK    1  A    between atoms: C_1  and  C_2
REMARK    2  A    between atoms: C_2  and  C_3
REMARK    3  A    between atoms: N_8  and  C_9
REMARK    4  A    between atoms: C_9  and  C_10
REMARK    5  A    between atoms: C_14  and  C_15
REMARK    6  A    between atoms: C_17  and  C_18
REMARK    7  A    between atoms: C_23  and  O_24
REMARK                            x       y       z     vdW  Elec       q    Type
REMARK                         _______ _______ _______ _____ _____    ______ ____
ROOT
ATOM      1  C   UNL     1       1.925   8.179  19.036  0.00  0.00    +0.000 C 
ATOM      2  O   UNL     1       1.532   7.981  20.186  0.00  0.00    +0.000 OA
ATOM      3  N   UNL     1       2.907   7.381  18.474  0.00  0.00    +0.000 N 
ATOM      4  N   UNL     1       3.425   7.565  17.217  0.00  0.00    +0.000 NA
ATOM      5  C   UNL     1       4.391   6.702  17.109  0.00  0.00    +0.000 C 
ATOM      6  C   UNL     1       5.206   6.541  15.870  0.00  0.00    +0.000 C 
ATOM      7  C   UNL     1       4.701   5.904  18.342  0.00  0.00    +0.000 C 
ATOM      8  C   UNL     1       3.462   6.216  19.165  0.00  0.00    +0.000 C 
ENDROOT
BRANCH   8   9
ATOM      9  C   UNL     1       2.505   5.033  19.213  0.00  0.00    +0.000 A 
ATOM     10  C   UNL     1       2.149   4.316  18.057  0.00  0.00    +0.000 A 
ATOM     11  C   UNL     1       1.252   3.248  18.122  0.00  0.00    +0.000 A 
ATOM     12  C   UNL     1       0.701   2.876  19.345  0.00  0.00    +0.000 A 
ATOM     13  C   UNL     1       1.055   3.562  20.506  0.00  0.00    +0.000 A 
ATOM     14  C   UNL     1       1.957   4.624  20.436  0.00  0.00    +0.000 A 
BRANCH  14  15
ATOM     15  O   UNL     1       2.330   5.279  21.577  0.00  0.00    +0.000 OA
ATOM     16  H   UNL     1       1.669   5.967  21.767  0.00  0.00    +0.000 HD
ENDBRANCH  14  15
ENDBRANCH   8   9
BRANCH   1  17
ATOM     17  C   UNL     1       1.396   9.302  18.121  0.00  0.00    +0.000 C 
BRANCH  17  23
ATOM     18  C   UNL     1      -0.821  10.221  18.836  0.00  0.00    +0.000 C 
ATOM     19  C   UNL     1      -1.478  11.452  19.500  0.00  0.00    +0.000 C 
ATOM     20  C   UNL     1      -0.930  11.703  20.900  0.00  0.00    +0.000 C 
ATOM     21  C   UNL     1       0.587  11.808  20.858  0.00  0.00    +0.000 C 
ATOM     22  C   UNL     1       1.195  10.590  20.171  0.00  0.00    +0.000 C 
ATOM     23  N   UNL     1       0.653  10.393  18.813  0.00  0.00    +0.000 NA
BRANCH  18  25
ATOM     24  C   UNL     1      -2.979   9.713  17.475  0.00  0.00    +0.000 C 
ATOM     25  C   UNL     1      -1.475   9.956  17.456  0.00  0.00    +0.000 C 
ENDBRANCH  18  25
ENDBRANCH  17  23
ENDBRANCH   1  17
TORSDOF 5
ENDMDL
MODEL 5
REMARK VINA RESULT:      -6.8      2.196      4.028
REMARK  Name = 
REMARK  7 active torsions:
REMARK  status: ('A' for Active; 'I' for Inactive)
REMARK    1  A    between atoms: C_1  and  C_2
REMARK    2  A    between atoms: C_2  and  C_3
REMARK    3  A    between atoms: N_8  and  C_9
REMARK    4  A    between atoms: C_9  and  C_10
REMARK    5  A    between atoms: C_14  and  C_15
REMARK    6  A    between atoms: C_17  and  C_18
REMARK    7  A    between atoms: C_23  and  O_24
REMARK                            x       y       z     vdW  Elec       q    Type
REMARK                         _______ _______ _______ _____ _____    ______ ____
ROOT
ATOM      1  C   UNL     1       2.521   7.014  18.999  0.00  0.00    +0.000 C 
ATOM      2  O   UNL     1       2.821   7.417  17.875  0.00  0.00    +0.000 OA
ATOM      3  N   UNL     1       2.660   5.678  19.335  0.00  0.00    +0.000 N 
ATOM      4  N   UNL     1       2.308   5.147  20.550  0.00  0.00    +0.000 NA
ATOM      5  C   UNL     1       2.476   3.864  20.431  0.00  0.00    +0.000 C 
ATOM      6  C   UNL     1       2.237   2.903  21.546  0.00  0.00    +0.000 C 
ATOM      7  C   UNL     1       2.864   3.375  19.066  0.00  0.00    +0.000 C 
ATOM      8  C   UNL     1       3.250   4.697  18.422  0.00  0.00    +0.000 C 
ENDROOT
BRANCH   8   9
ATOM      9  C   UNL     1       4.759   4.837  18.284  0.00  0.00    +0.000 A 
ATOM     10  C   UNL     1       5.564   5.302  19.339  0.00  0.00    +0.000 A 
ATOM     11  C   UNL     1       6.944   5.443  19.182  0.00  0.00    +0.000 A 
ATOM     12  C   UNL     1       7.543   5.116  17.970  0.00  0.00    +0.000 A 
ATOM     13  C   UNL     1       6.766   4.635  16.916  0.00  0.00    +0.000 A 
ATOM     14  C   UNL     1       5.388   4.491  17.081  0.00  0.00    +0.000 A 
BRANCH  14  15
ATOM     15  O   UNL     1       4.628   3.990  16.061  0.00  0.00    +0.000 OA
ATOM     16  H   UNL     1       4.474   3.045  16.226  0.00  0.00    +0.000 HD
ENDBRANCH  14  15
ENDBRANCH   8   9
BRANCH   1  17
ATOM     17  C   UNL     1       1.966   7.913  20.122  0.00  0.00    +0.000 C 
BRANCH  17  23
ATOM     18  C   UNL     1       0.340   9.689  20.806  0.00  0.00    +0.000 C 
ATOM     19  C   UNL     1      -0.773  10.609  20.253  0.00  0.00    +0.000 C 
ATOM     20  C   UNL     1      -0.259  11.517  19.142  0.00  0.00    +0.000 C 
ATOM     21  C   UNL     1       0.404  10.688  18.052  0.00  0.00    +0.000 C 
ATOM     22  C   UNL     1       1.474   9.775  18.641  0.00  0.00    +0.000 C 
ATOM     23  N   UNL     1       0.932   8.900  19.699  0.00  0.00    +0.000 NA
BRANCH  18  25
ATOM     24  C   UNL     1      -0.150   9.526  23.357  0.00  0.00    +0.000 C 
ATOM     25  C   UNL     1      -0.210   8.854  21.991  0.00  0.00    +0.000 C 
ENDBRANCH  18  25
ENDBRANCH  17  23
ENDBRANCH   1  17
TORSDOF 5
ENDMDL
MODEL 6
REMARK VINA RESULT:      -6.8      1.788      3.793
REMARK  Name = 
REMARK  7 active torsions:
REMARK  status: ('A' for Active; 'I' for Inactive)
REMARK    1  A    between atoms: C_1  and  C_2
REMARK    2  A    between atoms: C_2  and  C_3
REMARK    3  A    between atoms: N_8  and  C_9
REMARK    4  A    between atoms: C_9  and  C_10
REMARK    5  A    between atoms: C_14  and  C_15
REMARK    6  A    between atoms: C_17  and  C_18
REMARK    7  A    between atoms: C_23  and  O_24
REMARK                            x       y       z     vdW  Elec       q    Type
REMARK                         _______ _______ _______ _____ _____    ______ ____
ROOT
ATOM      1  C   UNL     1       2.328   7.956  18.965  0.00  0.00    +0.000 C 
ATOM      2  O   UNL     1       2.765   8.506  17.955  0.00  0.00    +0.000 OA
ATOM      3  N   UNL     1       2.401   6.580  19.113  0.00  0.00    +0.000 N 
ATOM      4  N   UNL     1       1.900   5.892  20.188  0.00  0.00    +0.000 NA
ATOM      5  C   UNL     1       2.057   4.634  19.900  0.00  0.00    +0.000 C 
ATOM      6  C   UNL     1       1.671   3.531  20.826  0.00  0.00    +0.000 C 
ATOM      7  C   UNL     1       2.592   4.335  18.530  0.00  0.00    +0.000 C 
ATOM      8  C   UNL     1       3.076   5.722  18.137  0.00  0.00    +0.000 C 
ENDROOT
BRANCH   8   9
ATOM      9  C   UNL     1       4.593   5.826  18.193  0.00  0.00    +0.000 A 
ATOM     10  C   UNL     1       5.339   5.288  19.257  0.00  0.00    +0.000 A 
ATOM     11  C   UNL     1       6.728   5.415  19.298  0.00  0.00    +0.000 A 
ATOM     12  C   UNL     1       7.396   6.077  18.272  0.00  0.00    +0.000 A 
ATOM     13  C   UNL     1       6.679   6.602  17.198  0.00  0.00    +0.000 A 
ATOM     14  C   UNL     1       5.290   6.466  17.160  0.00  0.00    +0.000 A 
BRANCH  14  15
ATOM     15  O   UNL     1       4.587   6.952  16.093  0.00  0.00    +0.000 OA
ATOM     16  H   UNL     1       5.169   7.540  15.583  0.00  0.00    +0.000 HD
ENDBRANCH  14  15
ENDBRANCH   8   9
BRANCH   1  17
ATOM     17  C   UNL     1       1.663   8.701  20.139  0.00  0.00    +0.000 C 
BRANCH  17  23
ATOM     18  C   UNL     1       0.048  10.520  20.734  0.00  0.00    +0.000 C 
ATOM     19  C   UNL     1      -1.320  11.120  20.337  0.00  0.00    +0.000 C 
ATOM     20  C   UNL     1      -1.336  11.589  18.887  0.00  0.00    +0.000 C 
ATOM     21  C   UNL     1      -0.909  10.457  17.965  0.00  0.00    +0.000 C 
ATOM     22  C   UNL     1       0.429   9.874  18.406  0.00  0.00    +0.000 C 
ATOM     23  N   UNL     1       0.397   9.415  19.808  0.00  0.00    +0.000 NA
BRANCH  18  25
ATOM     24  C   UNL     1      -1.070  10.772  23.070  0.00  0.00    +0.000 C 
ATOM     25  C   UNL     1       0.040  10.143  22.237  0.00  0.00    +0.000 C 
ENDBRANCH  18  25
ENDBRANCH  17  23
ENDBRANCH   1  17
TORSDOF 5
ENDMDL
MODEL 7
REMARK VINA RESULT:      -6.6      1.810      4.213
REMARK  Name = 
REMARK  7 active torsions:
REMARK  status: ('A' for Active; 'I' for Inactive)
REMARK    1  A    between atoms: C_1  and  C_2
REMARK    2  A    between atoms: C_2  and  C_3
REMARK    3  A    between atoms: N_8  and  C_9
REMARK    4  A    between atoms: C_9  and  C_10
REMARK    5  A    between atoms: C_14  and  C_15
REMARK    6  A    between atoms: C_17  and  C_18
REMARK    7  A    between atoms: C_23  and  O_24
REMARK                            x       y       z     vdW  Elec       q    Type
REMARK                         _______ _______ _______ _____ _____    ______ ____
ROOT
ATOM      1  C   UNL     1       2.222   7.988  18.530  0.00  0.00    +0.000 C 
ATOM      2  O   UNL     1       2.737   8.529  17.551  0.00  0.00    +0.000 OA
ATOM      3  N   UNL     1       2.319   6.619  18.718  0.00  0.00    +0.000 N 
ATOM      4  N   UNL     1       1.738   5.941  19.759  0.00  0.00    +0.000 NA
ATOM      5  C   UNL     1       1.956   4.682  19.519  0.00  0.00    +0.000 C 
ATOM      6  C   UNL     1       1.515   3.589  20.432  0.00  0.00    +0.000 C 
ATOM      7  C   UNL     1       2.626   4.369  18.213  0.00  0.00    +0.000 C 
ATOM      8  C   UNL     1       3.106   5.760  17.832  0.00  0.00    +0.000 C 
ENDROOT
BRANCH   8   9
ATOM      9  C   UNL     1       4.608   5.910  18.026  0.00  0.00    +0.000 A 
ATOM     10  C   UNL     1       5.267   5.400  19.159  0.00  0.00    +0.000 A 
ATOM     11  C   UNL     1       6.643   5.570  19.326  0.00  0.00    +0.000 A 
ATOM     12  C   UNL     1       7.383   6.246  18.362  0.00  0.00    +0.000 A 
ATOM     13  C   UNL     1       6.752   6.744  17.222  0.00  0.00    +0.000 A 
ATOM     14  C   UNL     1       5.378   6.566  17.057  0.00  0.00    +0.000 A 
BRANCH  14  15
ATOM     15  O   UNL     1       4.761   7.025  15.926  0.00  0.00    +0.000 OA
ATOM     16  H   UNL     1       3.818   7.155  16.121  0.00  0.00    +0.000 HD
ENDBRANCH  14  15
ENDBRANCH   8   9
BRANCH   1  17
ATOM     17  C   UNL     1       1.430   8.740  19.618  0.00  0.00    +0.000 C 
BRANCH  17  23
ATOM     18  C   UNL     1      -0.234  10.459  18.878  0.00  0.00    +0.000 C 
ATOM     19  C   UNL     1      -0.372  11.958  18.528  0.00  0.00    +0.000 C 
ATOM     20  C   UNL     1       0.022  12.852  19.699  0.00  0.00    +0.000 C 
ATOM     21  C   UNL     1       1.418  12.496  20.184  0.00  0.00    +0.000 C 
ATOM     22  C   UNL     1       1.522  11.006  20.491  0.00  0.00    +0.000 C 
ATOM     23  N   UNL     1       1.150  10.176  19.328  0.00  0.00    +0.000 NA
BRANCH  18  25
ATOM     24  C   UNL     1      -2.115   9.942  17.155  0.00  0.00    +0.000 C 
ATOM     25  C   UNL     1      -0.731   9.595  17.691  0.00  0.00    +0.000 C 
ENDBRANCH  18  25
ENDBRANCH  17  23
ENDBRANCH   1  17
TORSDOF 5
ENDMDL
MODEL 8
REMARK VINA RESULT:      -6.5      2.302      4.517
REMARK  Name = 
REMARK  7 active torsions:
REMARK  status: ('A' for Active; 'I' for Inactive)
REMARK    1  A    between atoms: C_1  and  C_2
REMARK    2  A    between atoms: C_2  and  C_3
REMARK    3  A    between atoms: N_8  and  C_9
REMARK    4  A    between atoms: C_9  and  C_10
REMARK    5  A    between atoms: C_14  and  C_15
REMARK    6  A    between atoms: C_17  and  C_18
REMARK    7  A    between atoms: C_23  and  O_24
REMARK                            x       y       z     vdW  Elec       q    Type
REMARK                         _______ _______ _______ _____ _____    ______ ____
ROOT
ATOM      1  C   UNL     1       2.542   7.011  18.376  0.00  0.00    +0.000 C 
ATOM      2  O   UNL     1       3.069   7.946  17.773  0.00  0.00    +0.000 OA
ATOM      3  N   UNL     1       2.930   5.703  18.136  0.00  0.00    +0.000 N 
ATOM      4  N   UNL     1       2.362   4.608  18.736  0.00  0.00    +0.000 NA
ATOM      5  C   UNL     1       2.911   3.576  18.168  0.00  0.00    +0.000 C 
ATOM      6  C   UNL     1       2.598   2.170  18.553  0.00  0.00    +0.000 C 
ATOM      7  C   UNL     1       3.845   3.871  17.030  0.00  0.00    +0.000 C 
ATOM      8  C   UNL     1       4.036   5.365  17.238  0.00  0.00    +0.000 C 
ENDROOT
BRANCH   8   9
ATOM      9  C   UNL     1       5.404   5.682  17.824  0.00  0.00    +0.000 A 
ATOM     10  C   UNL     1       5.841   5.128  19.041  0.00  0.00    +0.000 A 
ATOM     11  C   UNL     1       7.092   5.450  19.570  0.00  0.00    +0.000 A 
ATOM     12  C   UNL     1       7.930   6.327  18.889  0.00  0.00    +0.000 A 
ATOM     13  C   UNL     1       7.525   6.874  17.672  0.00  0.00    +0.000 A 
ATOM     14  C   UNL     1       6.276   6.543  17.145  0.00  0.00    +0.000 A 
BRANCH  14  15
ATOM     15  O   UNL     1       5.888   7.052  15.936  0.00  0.00    +0.000 OA
ATOM     16  H   UNL     1       6.276   6.504  15.233  0.00  0.00    +0.000 HD
ENDBRANCH  14  15
ENDBRANCH   8   9
BRANCH   1  17
ATOM     17  C   UNL     1       1.423   7.176  19.423  0.00  0.00    +0.000 C 
BRANCH  17  23
ATOM     18  C   UNL     1       0.357   9.425  19.706  0.00  0.00    +0.000 C 
ATOM     19  C   UNL     1       0.506  10.762  20.466  0.00  0.00    +0.000 C 
ATOM     20  C   UNL     1       0.472  10.563  21.977  0.00  0.00    +0.000 C 
ATOM     21  C   UNL     1       1.516   9.539  22.394  0.00  0.00    +0.000 C 
ATOM     22  C   UNL     1       1.355   8.246  21.603  0.00  0.00    +0.000 C 
ATOM     23  N   UNL     1       1.412   8.479  20.147  0.00  0.00    +0.000 NA
BRANCH  18  25
ATOM     24  C   UNL     1      -1.061  10.055  17.617  0.00  0.00    +0.000 C 
ATOM     25  C   UNL     1       0.307   9.691  18.179  0.00  0.00    +0.000 C 
ENDBRANCH  18  25
ENDBRANCH  17  23
ENDBRANCH   1  17
TORSDOF 5
ENDMDL
MODEL 9
REMARK VINA RESULT:      -6.3      2.846      6.894
REMARK  Name = 
REMARK  7 active torsions:
REMARK  status: ('A' for Active; 'I' for Inactive)
REMARK    1  A    between atoms: C_1  and  C_2
REMARK    2  A    between atoms: C_2  and  C_3
REMARK    3  A    between atoms: N_8  and  C_9
REMARK    4  A    between atoms: C_9  and  C_10
REMARK    5  A    between atoms: C_14  and  C_15
REMARK    6  A    between atoms: C_17  and  C_18
REMARK    7  A    between atoms: C_23  and  O_24
REMARK                            x       y       z     vdW  Elec       q    Type
REMARK                         _______ _______ _______ _____ _____    ______ ____
ROOT
ATOM      1  C   UNL     1       4.713   4.713  19.297  0.00  0.00    +0.000 C 
ATOM      2  O   UNL     1       5.263   5.600  19.951  0.00  0.00    +0.000 OA
ATOM      3  N   UNL     1       3.363   4.445  19.457  0.00  0.00    +0.000 N 
ATOM      4  N   UNL     1       2.692   3.447  18.797  0.00  0.00    +0.000 NA
ATOM      5  C   UNL     1       1.494   3.443  19.301  0.00  0.00    +0.000 C 
ATOM      6  C   UNL     1       0.417   2.522  18.836  0.00  0.00    +0.000 C 
ATOM      7  C   UNL     1       1.259   4.381  20.449  0.00  0.00    +0.000 C 
ATOM      8  C   UNL     1       2.503   5.247  20.328  0.00  0.00    +0.000 C 
ENDROOT
BRANCH   8   9
ATOM      9  C   UNL     1       2.180   6.619  19.754  0.00  0.00    +0.000 A 
ATOM     10  C   UNL     1       1.646   7.652  20.546  0.00  0.00    +0.000 A 
ATOM     11  C   UNL     1       1.337   8.896  19.993  0.00  0.00    +0.000 A 
ATOM     12  C   UNL     1       1.562   9.130  18.640  0.00  0.00    +0.000 A 
ATOM     13  C   UNL     1       2.107   8.127  17.840  0.00  0.00    +0.000 A 
ATOM     14  C   UNL     1       2.420   6.888  18.400  0.00  0.00    +0.000 A 
BRANCH  14  15
ATOM     15  O   UNL     1       2.984   5.912  17.626  0.00  0.00    +0.000 OA
ATOM     16  H   UNL     1       3.032   6.235  16.710  0.00  0.00    +0.000 HD
ENDBRANCH  14  15
ENDBRANCH   8   9
BRANCH   1  17
ATOM     17  C   UNL     1       5.436   3.822  18.268  0.00  0.00    +0.000 C 
BRANCH  17  23
ATOM     18  C   UNL     1       7.137   4.876  16.763  0.00  0.00    +0.000 C 
ATOM     19  C   UNL     1       7.288   5.606  15.408  0.00  0.00    +0.000 C 
ATOM     20  C   UNL     1       6.798   4.750  14.245  0.00  0.00    +0.000 C 
ATOM     21  C   UNL     1       5.372   4.287  14.499  0.00  0.00    +0.000 C 
ATOM     22  C   UNL     1       5.258   3.599  15.855  0.00  0.00    +0.000 C 
ATOM     23  N   UNL     1       5.724   4.466  16.955  0.00  0.00    +0.000 NA
BRANCH  18  25
ATOM     24  C   UNL     1       7.575   7.254  17.723  0.00  0.00    +0.000 C 
ATOM     25  C   UNL     1       7.730   5.749  17.898  0.00  0.00    +0.000 C 
ENDBRANCH  18  25
ENDBRANCH  17  23
ENDBRANCH   1  17
TORSDOF 5
ENDMDL
