MODEL 1
REMARK VINA RESULT:      -6.7      0.000      0.000
REMARK  Name = 
REMARK  17 active torsions:
REMARK  status: ('A' for Active; 'I' for Inactive)
REMARK    1  A    between atoms: C_1  and  C_2
REMARK    2  A    between atoms: C_2  and  C_3
REMARK    3  A    between atoms: C_3  and  C_4
REMARK    4  A    between atoms: C_4  and  C_5
REMARK    5  A    between atoms: C_5  and  C_6
REMARK    6  A    between atoms: C_6  and  C_7
REMARK    7  A    between atoms: C_7  and  C_8
REMARK    8  A    between atoms: C_8  and  C_9
REMARK    9  A    between atoms: C_13  and  C_14
REMARK   10  A    between atoms: C_14  and  C_15
REMARK   11  A    between atoms: C_15  and  C_16
REMARK   12  A    between atoms: C_16  and  C_17
REMARK   13  A    between atoms: C_17  and  C_18
REMARK   14  A    between atoms: C_18  and  C_19
REMARK   15  A    between atoms: C_19  and  C_20
REMARK   16  A    between atoms: C_20  and  C_21
REMARK   17  A    between atoms: C_21  and  O_23
REMARK                            x       y       z     vdW  Elec       q    Type
REMARK                         _______ _______ _______ _____ _____    ______ ____
ROOT
ATOM      1  C   UNL     1       5.987   4.801  16.974  0.00  0.00    +0.000 A 
ATOM      2  N   UNL     1       5.999   4.249  15.757  0.00  0.00    +0.000 NA
ATOM      3  O   UNL     1       7.032   4.876  15.077  0.00  0.00    +0.000 OA
ATOM      4  N   UNL     1       7.651   5.824  15.876  0.00  0.00    +0.000 NA
ATOM      5  C   UNL     1       7.000   5.785  17.042  0.00  0.00    +0.000 A 
ENDROOT
BRANCH   5   6
ATOM      6  C   UNL     1       7.399   6.704  18.141  0.00  0.00    +0.000 C 
BRANCH   6   7
ATOM      7  C   UNL     1       7.733   8.121  17.672  0.00  0.00    +0.000 C 
BRANCH   7   8
ATOM      8  C   UNL     1       8.764   8.860  18.518  0.00  0.00    +0.000 C 
BRANCH   8   9
ATOM      9  C   UNL     1       8.699  10.344  18.157  0.00  0.00    +0.000 C 
BRANCH   9  10
ATOM     10  C   UNL     1       9.500  11.193  19.131  0.00  0.00    +0.000 C 
BRANCH  10  11
ATOM     11  C   UNL     1       9.942  12.496  18.469  0.00  0.00    +0.000 C 
BRANCH  11  12
ATOM     12  C   UNL     1      11.191  12.273  17.626  0.00  0.00    +0.000 C 
BRANCH  12  13
ATOM     13  C   UNL     1      11.499  13.475  16.756  0.00  0.00    +0.000 C 
ATOM     14  O   UNL     1      11.215  14.626  17.015  0.00  0.00    +0.000 OA
BRANCH  13  15
ATOM     15  O   UNL     1      12.145  13.120  15.619  0.00  0.00    +0.000 OA
ATOM     16  H   UNL     1      12.115  13.801  14.921  0.00  0.00    +0.000 HD
ENDBRANCH  13  15
ENDBRANCH  12  13
ENDBRANCH  11  12
ENDBRANCH  10  11
ENDBRANCH   9  10
ENDBRANCH   8   9
ENDBRANCH   7   8
ENDBRANCH   6   7
ENDBRANCH   5   6
BRANCH   1  17
ATOM     17  C   UNL     1       4.983   4.351  17.978  0.00  0.00    +0.000 C 
BRANCH  17  18
ATOM     18  C   UNL     1       3.555   4.760  17.600  0.00  0.00    +0.000 C 
BRANCH  18  19
ATOM     19  C   UNL     1       2.675   3.538  17.344  0.00  0.00    +0.000 C 
BRANCH  19  20
ATOM     20  C   UNL     1       1.267   3.761  17.890  0.00  0.00    +0.000 C 
BRANCH  20  21
ATOM     21  C   UNL     1       0.814   2.584  18.748  0.00  0.00    +0.000 C 
BRANCH  21  22
ATOM     22  C   UNL     1       1.769   2.377  19.922  0.00  0.00    +0.000 C 
BRANCH  22  24
ATOM     23  C   UNL     1       2.315   4.551  21.050  0.00  0.00    +0.000 C 
ATOM     24  C   UNL     1       1.432   3.315  21.078  0.00  0.00    +0.000 C 
ENDBRANCH  22  24
ENDBRANCH  21  22
ENDBRANCH  20  21
ENDBRANCH  19  20
ENDBRANCH  18  19
ENDBRANCH  17  18
ENDBRANCH   1  17
TORSDOF 16
ENDMDL
MODEL 2
REMARK VINA RESULT:      -6.7      4.928      9.026
REMARK  Name = 
REMARK  17 active torsions:
REMARK  status: ('A' for Active; 'I' for Inactive)
REMARK    1  A    between atoms: C_1  and  C_2
REMARK    2  A    between atoms: C_2  and  C_3
REMARK    3  A    between atoms: C_3  and  C_4
REMARK    4  A    between atoms: C_4  and  C_5
REMARK    5  A    between atoms: C_5  and  C_6
REMARK    6  A    between atoms: C_6  and  C_7
REMARK    7  A    between atoms: C_7  and  C_8
REMARK    8  A    between atoms: C_8  and  C_9
REMARK    9  A    between atoms: C_13  and  C_14
REMARK   10  A    between atoms: C_14  and  C_15
REMARK   11  A    between atoms: C_15  and  C_16
REMARK   12  A    between atoms: C_16  and  C_17
REMARK   13  A    between atoms: C_17  and  C_18
REMARK   14  A    between atoms: C_18  and  C_19
REMARK   15  A    between atoms: C_19  and  C_20
REMARK   16  A    between atoms: C_20  and  C_21
REMARK   17  A    between atoms: C_21  and  O_23
REMARK                            x       y       z     vdW  Elec       q    Type
REMARK                         _______ _______ _______ _____ _____    ______ ____
ROOT
ATOM      1  C   UNL     1       6.914   5.575  17.989  0.00  0.00    +0.000 A 
ATOM      2  N   UNL     1       7.989   5.384  18.759  0.00  0.00    +0.000 NA
ATOM      3  O   UNL     1       7.494   5.140  20.031  0.00  0.00    +0.000 OA
ATOM      4  N   UNL     1       6.109   5.191  20.044  0.00  0.00    +0.000 NA
ATOM      5  C   UNL     1       5.752   5.470  18.787  0.00  0.00    +0.000 A 
ENDROOT
BRANCH   5   6
ATOM      6  C   UNL     1       4.312   5.619  18.445  0.00  0.00    +0.000 C 
BRANCH   6   7
ATOM      7  C   UNL     1       3.876   4.796  17.232  0.00  0.00    +0.000 C 
BRANCH   7   8
ATOM      8  C   UNL     1       3.773   3.293  17.470  0.00  0.00    +0.000 C 
BRANCH   8   9
ATOM      9  C   UNL     1       2.296   2.940  17.646  0.00  0.00    +0.000 C 
BRANCH   9  10
ATOM     10  C   UNL     1       1.561   3.992  18.459  0.00  0.00    +0.000 C 
BRANCH  10  11
ATOM     11  C   UNL     1       0.833   3.349  19.637  0.00  0.00    +0.000 C 
BRANCH  11  12
ATOM     12  C   UNL     1       1.642   2.188  20.200  0.00  0.00    +0.000 C 
BRANCH  12  13
ATOM     13  C   UNL     1       2.690   2.663  21.186  0.00  0.00    +0.000 C 
ATOM     14  O   UNL     1       3.856   2.327  21.195  0.00  0.00    +0.000 OA
BRANCH  13  15
ATOM     15  O   UNL     1       2.172   3.531  22.088  0.00  0.00    +0.000 OA
ATOM     16  H   UNL     1       2.580   3.469  22.973  0.00  0.00    +0.000 HD
ENDBRANCH  13  15
ENDBRANCH  12  13
ENDBRANCH  11  12
ENDBRANCH  10  11
ENDBRANCH   9  10
ENDBRANCH   8   9
ENDBRANCH   7   8
ENDBRANCH   6   7
ENDBRANCH   5   6
BRANCH   1  17
ATOM     17  C   UNL     1       7.087   5.866  16.538  0.00  0.00    +0.000 C 
BRANCH  17  18
ATOM     18  C   UNL     1       7.027   4.600  15.677  0.00  0.00    +0.000 C 
BRANCH  18  19
ATOM     19  C   UNL     1       6.588   4.918  14.249  0.00  0.00    +0.000 C 
BRANCH  19  20
ATOM     20  C   UNL     1       6.230   3.639  13.496  0.00  0.00    +0.000 C 
BRANCH  20  21
ATOM     21  C   UNL     1       4.834   3.729  12.887  0.00  0.00    +0.000 C 
BRANCH  21  22
ATOM     22  C   UNL     1       4.842   3.220  11.447  0.00  0.00    +0.000 C 
BRANCH  22  24
ATOM     23  C   UNL     1       3.179   4.119   9.798  0.00  0.00    +0.000 C 
ATOM     24  C   UNL     1       3.424   3.099  10.897  0.00  0.00    +0.000 C 
ENDBRANCH  22  24
ENDBRANCH  21  22
ENDBRANCH  20  21
ENDBRANCH  19  20
ENDBRANCH  18  19
ENDBRANCH  17  18
ENDBRANCH   1  17
TORSDOF 16
ENDMDL
MODEL 3
REMARK VINA RESULT:      -6.7      3.070      9.413
REMARK  Name = 
REMARK  17 active torsions:
REMARK  status: ('A' for Active; 'I' for Inactive)
REMARK    1  A    between atoms: C_1  and  C_2
REMARK    2  A    between atoms: C_2  and  C_3
REMARK    3  A    between atoms: C_3  and  C_4
REMARK    4  A    between atoms: C_4  and  C_5
REMARK    5  A    between atoms: C_5  and  C_6
REMARK    6  A    between atoms: C_6  and  C_7
REMARK    7  A    between atoms: C_7  and  C_8
REMARK    8  A    between atoms: C_8  and  C_9
REMARK    9  A    between atoms: C_13  and  C_14
REMARK   10  A    between atoms: C_14  and  C_15
REMARK   11  A    between atoms: C_15  and  C_16
REMARK   12  A    between atoms: C_16  and  C_17
REMARK   13  A    between atoms: C_17  and  C_18
REMARK   14  A    between atoms: C_18  and  C_19
REMARK   15  A    between atoms: C_19  and  C_20
REMARK   16  A    between atoms: C_20  and  C_21
REMARK   17  A    between atoms: C_21  and  O_23
REMARK                            x       y       z     vdW  Elec       q    Type
REMARK                         _______ _______ _______ _____ _____    ______ ____
ROOT
ATOM      1  C   UNL     1       6.801   5.562  16.674  0.00  0.00    +0.000 A 
ATOM      2  N   UNL     1       7.338   5.251  15.490  0.00  0.00    +0.000 NA
ATOM      3  O   UNL     1       6.426   5.692  14.543  0.00  0.00    +0.000 OA
ATOM      4  N   UNL     1       5.319   6.267  15.148  0.00  0.00    +0.000 NA
ATOM      5  C   UNL     1       5.546   6.177  16.462  0.00  0.00    +0.000 A 
ENDROOT
BRANCH   5   6
ATOM      6  C   UNL     1       4.532   6.689  17.423  0.00  0.00    +0.000 C 
BRANCH   6   7
ATOM      7  C   UNL     1       3.412   5.694  17.728  0.00  0.00    +0.000 C 
BRANCH   7   8
ATOM      8  C   UNL     1       3.865   4.256  17.956  0.00  0.00    +0.000 C 
BRANCH   8   9
ATOM      9  C   UNL     1       2.859   3.327  17.275  0.00  0.00    +0.000 C 
BRANCH   9  10
ATOM     10  C   UNL     1       1.961   2.636  18.286  0.00  0.00    +0.000 C 
BRANCH  10  11
ATOM     11  C   UNL     1       1.142   3.661  19.067  0.00  0.00    +0.000 C 
BRANCH  11  12
ATOM     12  C   UNL     1       0.891   3.178  20.490  0.00  0.00    +0.000 C 
BRANCH  12  13
ATOM     13  C   UNL     1       1.975   3.649  21.438  0.00  0.00    +0.000 C 
ATOM     14  O   UNL     1       2.434   3.007  22.361  0.00  0.00    +0.000 OA
BRANCH  13  15
ATOM     15  O   UNL     1       2.393   4.902  21.141  0.00  0.00    +0.000 OA
ATOM     16  H   UNL     1       2.750   5.390  21.907  0.00  0.00    +0.000 HD
ENDBRANCH  13  15
ENDBRANCH  12  13
ENDBRANCH  11  12
ENDBRANCH  10  11
ENDBRANCH   9  10
ENDBRANCH   8   9
ENDBRANCH   7   8
ENDBRANCH   6   7
ENDBRANCH   5   6
BRANCH   1  17
ATOM     17  C   UNL     1       7.531   5.222  17.927  0.00  0.00    +0.000 C 
BRANCH  17  18
ATOM     18  C   UNL     1       7.821   6.457  18.787  0.00  0.00    +0.000 C 
BRANCH  18  19
ATOM     19  C   UNL     1       7.996   7.707  17.926  0.00  0.00    +0.000 C 
BRANCH  19  20
ATOM     20  C   UNL     1       8.756   8.788  18.691  0.00  0.00    +0.000 C 
BRANCH  20  21
ATOM     21  C   UNL     1       8.474  10.173  18.116  0.00  0.00    +0.000 C 
BRANCH  21  22
ATOM     22  C   UNL     1       9.667  11.100  18.339  0.00  0.00    +0.000 C 
BRANCH  22  24
ATOM     23  C   UNL     1      10.811  13.122  17.389  0.00  0.00    +0.000 C 
ATOM     24  C   UNL     1       9.477  12.428  17.611  0.00  0.00    +0.000 C 
ENDBRANCH  22  24
ENDBRANCH  21  22
ENDBRANCH  20  21
ENDBRANCH  19  20
ENDBRANCH  18  19
ENDBRANCH  17  18
ENDBRANCH   1  17
TORSDOF 16
ENDMDL
MODEL 4
REMARK VINA RESULT:      -6.6      4.625      8.824
REMARK  Name = 
REMARK  17 active torsions:
REMARK  status: ('A' for Active; 'I' for Inactive)
REMARK    1  A    between atoms: C_1  and  C_2
REMARK    2  A    between atoms: C_2  and  C_3
REMARK    3  A    between atoms: C_3  and  C_4
REMARK    4  A    between atoms: C_4  and  C_5
REMARK    5  A    between atoms: C_5  and  C_6
REMARK    6  A    between atoms: C_6  and  C_7
REMARK    7  A    between atoms: C_7  and  C_8
REMARK    8  A    between atoms: C_8  and  C_9
REMARK    9  A    between atoms: C_13  and  C_14
REMARK   10  A    between atoms: C_14  and  C_15
REMARK   11  A    between atoms: C_15  and  C_16
REMARK   12  A    between atoms: C_16  and  C_17
REMARK   13  A    between atoms: C_17  and  C_18
REMARK   14  A    between atoms: C_18  and  C_19
REMARK   15  A    between atoms: C_19  and  C_20
REMARK   16  A    between atoms: C_20  and  C_21
REMARK   17  A    between atoms: C_21  and  O_23
REMARK                            x       y       z     vdW  Elec       q    Type
REMARK                         _______ _______ _______ _____ _____    ______ ____
ROOT
ATOM      1  C   UNL     1       6.470   6.298  17.809  0.00  0.00    +0.000 A 
ATOM      2  N   UNL     1       7.773   6.526  17.998  0.00  0.00    +0.000 NA
ATOM      3  O   UNL     1       8.077   5.940  19.217  0.00  0.00    +0.000 OA
ATOM      4  N   UNL     1       6.955   5.358  19.784  0.00  0.00    +0.000 NA
ATOM      5  C   UNL     1       5.962   5.588  18.921  0.00  0.00    +0.000 A 
ENDROOT
BRANCH   5   6
ATOM      6  C   UNL     1       4.588   5.108  19.232  0.00  0.00    +0.000 C 
BRANCH   6   7
ATOM      7  C   UNL     1       3.529   6.211  19.212  0.00  0.00    +0.000 C 
BRANCH   7   8
ATOM      8  C   UNL     1       2.264   5.883  18.426  0.00  0.00    +0.000 C 
BRANCH   8   9
ATOM      9  C   UNL     1       1.604   4.666  19.074  0.00  0.00    +0.000 C 
BRANCH   9  10
ATOM     10  C   UNL     1       1.359   3.557  18.064  0.00  0.00    +0.000 C 
BRANCH  10  11
ATOM     11  C   UNL     1       1.381   2.192  18.748  0.00  0.00    +0.000 C 
BRANCH  11  12
ATOM     12  C   UNL     1       2.525   2.111  19.750  0.00  0.00    +0.000 C 
BRANCH  12  13
ATOM     13  C   UNL     1       3.803   1.621  19.100  0.00  0.00    +0.000 C 
ATOM     14  O   UNL     1       3.891   1.139  17.990  0.00  0.00    +0.000 OA
BRANCH  13  15
ATOM     15  O   UNL     1       4.874   1.782  19.913  0.00  0.00    +0.000 OA
ATOM     16  H   UNL     1       5.637   1.222  19.675  0.00  0.00    +0.000 HD
ENDBRANCH  13  15
ENDBRANCH  12  13
ENDBRANCH  11  12
ENDBRANCH  10  11
ENDBRANCH   9  10
ENDBRANCH   8   9
ENDBRANCH   7   8
ENDBRANCH   6   7
ENDBRANCH   5   6
BRANCH   1  17
ATOM     17  C   UNL     1       5.804   6.801  16.575  0.00  0.00    +0.000 C 
BRANCH  17  18
ATOM     18  C   UNL     1       5.465   5.674  15.593  0.00  0.00    +0.000 C 
BRANCH  18  19
ATOM     19  C   UNL     1       6.705   4.861  15.228  0.00  0.00    +0.000 C 
BRANCH  19  20
ATOM     20  C   UNL     1       6.708   4.517  13.741  0.00  0.00    +0.000 C 
BRANCH  20  21
ATOM     21  C   UNL     1       5.586   3.541  13.397  0.00  0.00    +0.000 C 
BRANCH  21  22
ATOM     22  C   UNL     1       5.416   3.429  11.884  0.00  0.00    +0.000 C 
BRANCH  22  24
ATOM     23  C   UNL     1       3.576   3.918  10.250  0.00  0.00    +0.000 C 
ATOM     24  C   UNL     1       3.960   3.163  11.511  0.00  0.00    +0.000 C 
ENDBRANCH  22  24
ENDBRANCH  21  22
ENDBRANCH  20  21
ENDBRANCH  19  20
ENDBRANCH  18  19
ENDBRANCH  17  18
ENDBRANCH   1  17
TORSDOF 16
ENDMDL
MODEL 5
REMARK VINA RESULT:      -6.6      5.476      8.908
REMARK  Name = 
REMARK  17 active torsions:
REMARK  status: ('A' for Active; 'I' for Inactive)
REMARK    1  A    between atoms: C_1  and  C_2
REMARK    2  A    between atoms: C_2  and  C_3
REMARK    3  A    between atoms: C_3  and  C_4
REMARK    4  A    between atoms: C_4  and  C_5
REMARK    5  A    between atoms: C_5  and  C_6
REMARK    6  A    between atoms: C_6  and  C_7
REMARK    7  A    between atoms: C_7  and  C_8
REMARK    8  A    between atoms: C_8  and  C_9
REMARK    9  A    between atoms: C_13  and  C_14
REMARK   10  A    between atoms: C_14  and  C_15
REMARK   11  A    between atoms: C_15  and  C_16
REMARK   12  A    between atoms: C_16  and  C_17
REMARK   13  A    between atoms: C_17  and  C_18
REMARK   14  A    between atoms: C_18  and  C_19
REMARK   15  A    between atoms: C_19  and  C_20
REMARK   16  A    between atoms: C_20  and  C_21
REMARK   17  A    between atoms: C_21  and  O_23
REMARK                            x       y       z     vdW  Elec       q    Type
REMARK                         _______ _______ _______ _____ _____    ______ ____
ROOT
ATOM      1  C   UNL     1       5.475   5.300  17.228  0.00  0.00    +0.000 A 
ATOM      2  N   UNL     1       6.398   4.487  17.751  0.00  0.00    +0.000 NA
ATOM      3  O   UNL     1       6.136   4.458  19.112  0.00  0.00    +0.000 OA
ATOM      4  N   UNL     1       5.053   5.263  19.428  0.00  0.00    +0.000 NA
ATOM      5  C   UNL     1       4.652   5.790  18.268  0.00  0.00    +0.000 A 
ENDROOT
BRANCH   5   6
ATOM      6  C   UNL     1       3.503   6.735  18.245  0.00  0.00    +0.000 C 
BRANCH   6   7
ATOM      7  C   UNL     1       2.600   6.640  19.475  0.00  0.00    +0.000 C 
BRANCH   7   8
ATOM      8  C   UNL     1       1.602   5.488  19.462  0.00  0.00    +0.000 C 
BRANCH   8   9
ATOM      9  C   UNL     1       1.489   4.941  20.884  0.00  0.00    +0.000 C 
BRANCH   9  10
ATOM     10  C   UNL     1       1.418   3.423  20.897  0.00  0.00    +0.000 C 
BRANCH  10  11
ATOM     11  C   UNL     1       1.010   2.892  19.525  0.00  0.00    +0.000 C 
BRANCH  11  12
ATOM     12  C   UNL     1       2.060   1.928  18.988  0.00  0.00    +0.000 C 
BRANCH  12  13
ATOM     13  C   UNL     1       2.895   2.564  17.895  0.00  0.00    +0.000 C 
ATOM     14  O   UNL     1       2.465   3.207  16.961  0.00  0.00    +0.000 OA
BRANCH  13  15
ATOM     15  O   UNL     1       4.218   2.331  18.075  0.00  0.00    +0.000 OA
ATOM     16  H   UNL     1       4.466   2.173  19.006  0.00  0.00    +0.000 HD
ENDBRANCH  13  15
ENDBRANCH  12  13
ENDBRANCH  11  12
ENDBRANCH  10  11
ENDBRANCH   9  10
ENDBRANCH   8   9
ENDBRANCH   7   8
ENDBRANCH   6   7
ENDBRANCH   5   6
BRANCH   1  17
ATOM     17  C   UNL     1       5.466   5.560  15.761  0.00  0.00    +0.000 C 
BRANCH  17  18
ATOM     18  C   UNL     1       6.174   4.455  14.968  0.00  0.00    +0.000 C 
BRANCH  18  19
ATOM     19  C   UNL     1       5.308   3.959  13.811  0.00  0.00    +0.000 C 
BRANCH  19  20
ATOM     20  C   UNL     1       6.170   3.624  12.596  0.00  0.00    +0.000 C 
BRANCH  20  21
ATOM     21  C   UNL     1       5.639   2.395  11.864  0.00  0.00    +0.000 C 
BRANCH  21  22
ATOM     22  C   UNL     1       4.918   2.803  10.582  0.00  0.00    +0.000 C 
BRANCH  22  24
ATOM     23  C   UNL     1       2.965   4.156   9.774  0.00  0.00    +0.000 C 
ATOM     24  C   UNL     1       3.485   3.243  10.872  0.00  0.00    +0.000 C 
ENDBRANCH  22  24
ENDBRANCH  21  22
ENDBRANCH  20  21
ENDBRANCH  19  20
ENDBRANCH  18  19
ENDBRANCH  17  18
ENDBRANCH   1  17
TORSDOF 16
ENDMDL
MODEL 6
REMARK VINA RESULT:      -6.6      4.387      8.981
REMARK  Name = 
REMARK  17 active torsions:
REMARK  status: ('A' for Active; 'I' for Inactive)
REMARK    1  A    between atoms: C_1  and  C_2
REMARK    2  A    between atoms: C_2  and  C_3
REMARK    3  A    between atoms: C_3  and  C_4
REMARK    4  A    between atoms: C_4  and  C_5
REMARK    5  A    between atoms: C_5  and  C_6
REMARK    6  A    between atoms: C_6  and  C_7
REMARK    7  A    between atoms: C_7  and  C_8
REMARK    8  A    between atoms: C_8  and  C_9
REMARK    9  A    between atoms: C_13  and  C_14
REMARK   10  A    between atoms: C_14  and  C_15
REMARK   11  A    between atoms: C_15  and  C_16
REMARK   12  A    between atoms: C_16  and  C_17
REMARK   13  A    between atoms: C_17  and  C_18
REMARK   14  A    between atoms: C_18  and  C_19
REMARK   15  A    between atoms: C_19  and  C_20
REMARK   16  A    between atoms: C_20  and  C_21
REMARK   17  A    between atoms: C_21  and  O_23
REMARK                            x       y       z     vdW  Elec       q    Type
REMARK                         _______ _______ _______ _____ _____    ______ ____
ROOT
ATOM      1  C   UNL     1       6.888   6.060  16.835  0.00  0.00    +0.000 A 
ATOM      2  N   UNL     1       7.727   7.089  16.988  0.00  0.00    +0.000 NA
ATOM      3  O   UNL     1       8.021   7.127  18.343  0.00  0.00    +0.000 OA
ATOM      4  N   UNL     1       7.352   6.124  19.026  0.00  0.00    +0.000 NA
ATOM      5  C   UNL     1       6.645   5.473  18.097  0.00  0.00    +0.000 A 
ENDROOT
BRANCH   5   6
ATOM      6  C   UNL     1       5.780   4.330  18.495  0.00  0.00    +0.000 C 
BRANCH   6   7
ATOM      7  C   UNL     1       4.365   4.395  17.919  0.00  0.00    +0.000 C 
BRANCH   7   8
ATOM      8  C   UNL     1       3.655   5.734  18.088  0.00  0.00    +0.000 C 
BRANCH   8   9
ATOM      9  C   UNL     1       2.208   5.456  18.495  0.00  0.00    +0.000 C 
BRANCH   9  10
ATOM     10  C   UNL     1       1.679   4.186  17.850  0.00  0.00    +0.000 C 
BRANCH  10  11
ATOM     11  C   UNL     1       0.947   3.326  18.878  0.00  0.00    +0.000 C 
BRANCH  11  12
ATOM     12  C   UNL     1       1.164   3.868  20.285  0.00  0.00    +0.000 C 
BRANCH  12  13
ATOM     13  C   UNL     1       1.890   2.869  21.163  0.00  0.00    +0.000 C 
ATOM     14  O   UNL     1       1.469   2.406  22.203  0.00  0.00    +0.000 OA
BRANCH  13  15
ATOM     15  O   UNL     1       3.098   2.535  20.650  0.00  0.00    +0.000 OA
ATOM     16  H   UNL     1       3.528   1.790  21.110  0.00  0.00    +0.000 HD
ENDBRANCH  13  15
ENDBRANCH  12  13
ENDBRANCH  11  12
ENDBRANCH  10  11
ENDBRANCH   9  10
ENDBRANCH   8   9
ENDBRANCH   7   8
ENDBRANCH   6   7
ENDBRANCH   5   6
BRANCH   1  17
ATOM     17  C   UNL     1       6.364   5.732  15.480  0.00  0.00    +0.000 C 
BRANCH  17  18
ATOM     18  C   UNL     1       6.786   4.334  15.013  0.00  0.00    +0.000 C 
BRANCH  18  19
ATOM     19  C   UNL     1       5.700   3.678  14.163  0.00  0.00    +0.000 C 
BRANCH  19  20
ATOM     20  C   UNL     1       6.116   3.633  12.695  0.00  0.00    +0.000 C 
BRANCH  20  21
ATOM     21  C   UNL     1       4.908   3.432  11.784  0.00  0.00    +0.000 C 
BRANCH  21  22
ATOM     22  C   UNL     1       4.920   2.032  11.177  0.00  0.00    +0.000 C 
BRANCH  22  24
ATOM     23  C   UNL     1       6.274  -0.073  11.345  0.00  0.00    +0.000 C 
ATOM     24  C   UNL     1       6.325   1.437  11.189  0.00  0.00    +0.000 C 
ENDBRANCH  22  24
ENDBRANCH  21  22
ENDBRANCH  20  21
ENDBRANCH  19  20
ENDBRANCH  18  19
ENDBRANCH  17  18
ENDBRANCH   1  17
TORSDOF 16
ENDMDL
MODEL 7
REMARK VINA RESULT:      -6.5      4.579      6.478
REMARK  Name = 
REMARK  17 active torsions:
REMARK  status: ('A' for Active; 'I' for Inactive)
REMARK    1  A    between atoms: C_1  and  C_2
REMARK    2  A    between atoms: C_2  and  C_3
REMARK    3  A    between atoms: C_3  and  C_4
REMARK    4  A    between atoms: C_4  and  C_5
REMARK    5  A    between atoms: C_5  and  C_6
REMARK    6  A    between atoms: C_6  and  C_7
REMARK    7  A    between atoms: C_7  and  C_8
REMARK    8  A    between atoms: C_8  and  C_9
REMARK    9  A    between atoms: C_13  and  C_14
REMARK   10  A    between atoms: C_14  and  C_15
REMARK   11  A    between atoms: C_15  and  C_16
REMARK   12  A    between atoms: C_16  and  C_17
REMARK   13  A    between atoms: C_17  and  C_18
REMARK   14  A    between atoms: C_18  and  C_19
REMARK   15  A    between atoms: C_19  and  C_20
REMARK   16  A    between atoms: C_20  and  C_21
REMARK   17  A    between atoms: C_21  and  O_23
REMARK                            x       y       z     vdW  Elec       q    Type
REMARK                         _______ _______ _______ _____ _____    ______ ____
ROOT
ATOM      1  C   UNL     1       5.785   5.195  16.426  0.00  0.00    +0.000 A 
ATOM      2  N   UNL     1       7.110   5.115  16.271  0.00  0.00    +0.000 NA
ATOM      3  O   UNL     1       7.595   6.378  16.575  0.00  0.00    +0.000 OA
ATOM      4  N   UNL     1       6.563   7.241  16.908  0.00  0.00    +0.000 NA
ATOM      5  C   UNL     1       5.447   6.514  16.805  0.00  0.00    +0.000 A 
ENDROOT
BRANCH   5   6
ATOM      6  C   UNL     1       4.128   7.146  17.078  0.00  0.00    +0.000 C 
BRANCH   6   7
ATOM      7  C   UNL     1       3.541   6.788  18.444  0.00  0.00    +0.000 C 
BRANCH   7   8
ATOM      8  C   UNL     1       2.312   7.592  18.854  0.00  0.00    +0.000 C 
BRANCH   8   9
ATOM      9  C   UNL     1       2.223   8.820  17.948  0.00  0.00    +0.000 C 
BRANCH   9  10
ATOM     10  C   UNL     1       0.855   9.477  18.026  0.00  0.00    +0.000 C 
BRANCH  10  11
ATOM     11  C   UNL     1       0.889  10.680  18.965  0.00  0.00    +0.000 C 
BRANCH  11  12
ATOM     12  C   UNL     1      -0.187  10.555  20.036  0.00  0.00    +0.000 C 
BRANCH  12  13
ATOM     13  C   UNL     1       0.270   9.685  21.189  0.00  0.00    +0.000 C 
ATOM     14  O   UNL     1      -0.129   8.564  21.430  0.00  0.00    +0.000 OA
BRANCH  13  15
ATOM     15  O   UNL     1       1.202  10.308  21.950  0.00  0.00    +0.000 OA
ATOM     16  H   UNL     1       0.885  11.135  22.360  0.00  0.00    +0.000 HD
ENDBRANCH  13  15
ENDBRANCH  12  13
ENDBRANCH  11  12
ENDBRANCH  10  11
ENDBRANCH   9  10
ENDBRANCH   8   9
ENDBRANCH   7   8
ENDBRANCH   6   7
ENDBRANCH   5   6
BRANCH   1  17
ATOM     17  C   UNL     1       4.939   3.996  16.174  0.00  0.00    +0.000 C 
BRANCH  17  18
ATOM     18  C   UNL     1       4.136   3.578  17.411  0.00  0.00    +0.000 C 
BRANCH  18  19
ATOM     19  C   UNL     1       2.706   3.190  17.042  0.00  0.00    +0.000 C 
BRANCH  19  20
ATOM     20  C   UNL     1       1.698   4.014  17.840  0.00  0.00    +0.000 C 
BRANCH  20  21
ATOM     21  C   UNL     1       1.259   3.277  19.102  0.00  0.00    +0.000 C 
BRANCH  21  22
ATOM     22  C   UNL     1       1.131   4.248  20.274  0.00  0.00    +0.000 C 
BRANCH  22  24
ATOM     23  C   UNL     1       2.897   2.643  21.047  0.00  0.00    +0.000 C 
ATOM     24  C   UNL     1       2.073   3.866  21.412  0.00  0.00    +0.000 C 
ENDBRANCH  22  24
ENDBRANCH  21  22
ENDBRANCH  20  21
ENDBRANCH  19  20
ENDBRANCH  18  19
ENDBRANCH  17  18
ENDBRANCH   1  17
TORSDOF 16
ENDMDL
MODEL 8
REMARK VINA RESULT:      -6.5      3.500      9.756
REMARK  Name = 
REMARK  17 active torsions:
REMARK  status: ('A' for Active; 'I' for Inactive)
REMARK    1  A    between atoms: C_1  and  C_2
REMARK    2  A    between atoms: C_2  and  C_3
REMARK    3  A    between atoms: C_3  and  C_4
REMARK    4  A    between atoms: C_4  and  C_5
REMARK    5  A    between atoms: C_5  and  C_6
REMARK    6  A    between atoms: C_6  and  C_7
REMARK    7  A    between atoms: C_7  and  C_8
REMARK    8  A    between atoms: C_8  and  C_9
REMARK    9  A    between atoms: C_13  and  C_14
REMARK   10  A    between atoms: C_14  and  C_15
REMARK   11  A    between atoms: C_15  and  C_16
REMARK   12  A    between atoms: C_16  and  C_17
REMARK   13  A    between atoms: C_17  and  C_18
REMARK   14  A    between atoms: C_18  and  C_19
REMARK   15  A    between atoms: C_19  and  C_20
REMARK   16  A    between atoms: C_20  and  C_21
REMARK   17  A    between atoms: C_21  and  O_23
REMARK                            x       y       z     vdW  Elec       q    Type
REMARK                         _______ _______ _______ _____ _____    ______ ____
ROOT
ATOM      1  C   UNL     1       7.283   6.668  18.053  0.00  0.00    +0.000 A 
ATOM      2  N   UNL     1       8.093   6.181  18.997  0.00  0.00    +0.000 NA
ATOM      3  O   UNL     1       7.612   4.911  19.277  0.00  0.00    +0.000 OA
ATOM      4  N   UNL     1       6.495   4.621  18.509  0.00  0.00    +0.000 NA
ATOM      5  C   UNL     1       6.287   5.709  17.762  0.00  0.00    +0.000 A 
ENDROOT
BRANCH   5   6
ATOM      6  C   UNL     1       5.136   5.747  16.820  0.00  0.00    +0.000 C 
BRANCH   6   7
ATOM      7  C   UNL     1       4.114   6.840  17.137  0.00  0.00    +0.000 C 
BRANCH   7   8
ATOM      8  C   UNL     1       3.253   6.587  18.369  0.00  0.00    +0.000 C 
BRANCH   8   9
ATOM      9  C   UNL     1       2.283   5.450  18.046  0.00  0.00    +0.000 C 
BRANCH   9  10
ATOM     10  C   UNL     1       1.894   4.674  19.293  0.00  0.00    +0.000 C 
BRANCH  10  11
ATOM     11  C   UNL     1       2.051   3.173  19.062  0.00  0.00    +0.000 C 
BRANCH  11  12
ATOM     12  C   UNL     1       2.799   2.526  20.221  0.00  0.00    +0.000 C 
BRANCH  12  13
ATOM     13  C   UNL     1       4.237   2.217  19.855  0.00  0.00    +0.000 C 
ATOM     14  O   UNL     1       5.095   1.836  20.624  0.00  0.00    +0.000 OA
BRANCH  13  15
ATOM     15  O   UNL     1       4.473   2.418  18.536  0.00  0.00    +0.000 OA
ATOM     16  H   UNL     1       4.894   3.276  18.339  0.00  0.00    +0.000 HD
ENDBRANCH  13  15
ENDBRANCH  12  13
ENDBRANCH  11  12
ENDBRANCH  10  11
ENDBRANCH   9  10
ENDBRANCH   8   9
ENDBRANCH   7   8
ENDBRANCH   6   7
ENDBRANCH   5   6
BRANCH   1  17
ATOM     17  C   UNL     1       7.519   8.036  17.513  0.00  0.00    +0.000 C 
BRANCH  17  18
ATOM     18  C   UNL     1       8.501   8.842  18.372  0.00  0.00    +0.000 C 
BRANCH  18  19
ATOM     19  C   UNL     1       8.513  10.315  17.970  0.00  0.00    +0.000 C 
BRANCH  19  20
ATOM     20  C   UNL     1       9.563  11.085  18.768  0.00  0.00    +0.000 C 
BRANCH  20  21
ATOM     21  C   UNL     1      10.713  11.540  17.874  0.00  0.00    +0.000 C 
BRANCH  21  22
ATOM     22  C   UNL     1      12.003  11.663  18.681  0.00  0.00    +0.000 C 
BRANCH  22  24
ATOM     23  C   UNL     1      11.743  13.891  19.806  0.00  0.00    +0.000 C 
ATOM     24  C   UNL     1      11.761  12.384  20.004  0.00  0.00    +0.000 C 
ENDBRANCH  22  24
ENDBRANCH  21  22
ENDBRANCH  20  21
ENDBRANCH  19  20
ENDBRANCH  18  19
ENDBRANCH  17  18
ENDBRANCH   1  17
TORSDOF 16
ENDMDL
MODEL 9
REMARK VINA RESULT:      -6.5      3.322      8.974
REMARK  Name = 
REMARK  17 active torsions:
REMARK  status: ('A' for Active; 'I' for Inactive)
REMARK    1  A    between atoms: C_1  and  C_2
REMARK    2  A    between atoms: C_2  and  C_3
REMARK    3  A    between atoms: C_3  and  C_4
REMARK    4  A    between atoms: C_4  and  C_5
REMARK    5  A    between atoms: C_5  and  C_6
REMARK    6  A    between atoms: C_6  and  C_7
REMARK    7  A    between atoms: C_7  and  C_8
REMARK    8  A    between atoms: C_8  and  C_9
REMARK    9  A    between atoms: C_13  and  C_14
REMARK   10  A    between atoms: C_14  and  C_15
REMARK   11  A    between atoms: C_15  and  C_16
REMARK   12  A    between atoms: C_16  and  C_17
REMARK   13  A    between atoms: C_17  and  C_18
REMARK   14  A    between atoms: C_18  and  C_19
REMARK   15  A    between atoms: C_19  and  C_20
REMARK   16  A    between atoms: C_20  and  C_21
REMARK   17  A    between atoms: C_21  and  O_23
REMARK                            x       y       z     vdW  Elec       q    Type
REMARK                         _______ _______ _______ _____ _____    ______ ____
ROOT
ATOM      1  C   UNL     1       6.944   4.833  16.406  0.00  0.00    +0.000 A 
ATOM      2  N   UNL     1       7.615   5.255  15.329  0.00  0.00    +0.000 NA
ATOM      3  O   UNL     1       6.673   5.335  14.315  0.00  0.00    +0.000 OA
ATOM      4  N   UNL     1       5.420   4.952  14.767  0.00  0.00    +0.000 NA
ATOM      5  C   UNL     1       5.590   4.633  16.053  0.00  0.00    +0.000 A 
ENDROOT
BRANCH   5   6
ATOM      6  C   UNL     1       4.431   4.152  16.853  0.00  0.00    +0.000 C 
BRANCH   6   7
ATOM      7  C   UNL     1       3.652   5.270  17.547  0.00  0.00    +0.000 C 
BRANCH   7   8
ATOM      8  C   UNL     1       4.120   5.609  18.958  0.00  0.00    +0.000 C 
BRANCH   8   9
ATOM      9  C   UNL     1       2.931   6.182  19.728  0.00  0.00    +0.000 C 
BRANCH   9  10
ATOM     10  C   UNL     1       1.687   5.326  19.558  0.00  0.00    +0.000 C 
BRANCH  10  11
ATOM     11  C   UNL     1       1.522   4.377  20.742  0.00  0.00    +0.000 C 
BRANCH  11  12
ATOM     12  C   UNL     1       1.252   2.957  20.260  0.00  0.00    +0.000 C 
BRANCH  12  13
ATOM     13  C   UNL     1       2.498   2.317  19.683  0.00  0.00    +0.000 C 
ATOM     14  O   UNL     1       2.565   1.734  18.621  0.00  0.00    +0.000 OA
BRANCH  13  15
ATOM     15  O   UNL     1       3.564   2.466  20.505  0.00  0.00    +0.000 OA
ATOM     16  H   UNL     1       4.090   3.269  20.324  0.00  0.00    +0.000 HD
ENDBRANCH  13  15
ENDBRANCH  12  13
ENDBRANCH  11  12
ENDBRANCH  10  11
ENDBRANCH   9  10
ENDBRANCH   8   9
ENDBRANCH   7   8
ENDBRANCH   6   7
ENDBRANCH   5   6
BRANCH   1  17
ATOM     17  C   UNL     1       7.666   4.635  17.693  0.00  0.00    +0.000 C 
BRANCH  17  18
ATOM     18  C   UNL     1       7.588   5.867  18.603  0.00  0.00    +0.000 C 
BRANCH  18  19
ATOM     19  C   UNL     1       7.690   7.161  17.798  0.00  0.00    +0.000 C 
BRANCH  19  20
ATOM     20  C   UNL     1       8.485   8.214  18.565  0.00  0.00    +0.000 C 
BRANCH  20  21
ATOM     21  C   UNL     1       8.171   9.619  18.061  0.00  0.00    +0.000 C 
BRANCH  21  22
ATOM     22  C   UNL     1       9.380  10.535  18.236  0.00  0.00    +0.000 C 
BRANCH  22  24
ATOM     23  C   UNL     1       9.228  12.578  19.684  0.00  0.00    +0.000 C 
ATOM     24  C   UNL     1       9.460  11.077  19.660  0.00  0.00    +0.000 C 
ENDBRANCH  22  24
ENDBRANCH  21  22
ENDBRANCH  20  21
ENDBRANCH  19  20
ENDBRANCH  18  19
ENDBRANCH  17  18
ENDBRANCH   1  17
TORSDOF 16
ENDMDL
