MODEL 1
REMARK VINA RESULT:      -6.4      0.000      0.000
REMARK  Name = 
REMARK  9 active torsions:
REMARK  status: ('A' for Active; 'I' for Inactive)
REMARK    1  A    between atoms: S_2  and  N_4
REMARK    2  A    between atoms: S_2  and  C_14
REMARK    3  A    between atoms: N_4  and  C_5
REMARK    4  A    between atoms: C_5  and  C_6
REMARK    5  A    between atoms: C_6  and  S_7
REMARK    6  A    between atoms: S_7  and  C_8
REMARK    7  A    between atoms: C_8  and  C_9
REMARK    8  A    between atoms: C_16  and  S_17
REMARK    9  A    between atoms: S_17  and  C_20
REMARK                            x       y       z     vdW  Elec       q    Type
REMARK                         _______ _______ _______ _____ _____    ______ ____
ROOT
ATOM      1  O   UNL     1       1.547   9.707  22.222  0.00  0.00    +0.000 OA
ATOM      2  S   UNL     1       0.776   9.579  21.005  0.00  0.00    +0.000 S 
ATOM      3  O   UNL     1      -0.599   9.139  20.995  0.00  0.00    +0.000 OA
ENDROOT
BRANCH   2   4
ATOM      4  C   UNL     1       1.644   8.380  20.000  0.00  0.00    +0.000 A 
ATOM      5  C   UNL     1       2.017   7.069  20.233  0.00  0.00    +0.000 A 
ATOM      6  C   UNL     1       2.522   6.440  19.052  0.00  0.00    +0.000 A 
ATOM      7  C   UNL     1       2.559   7.304  17.979  0.00  0.00    +0.000 A 
ATOM      8  S   UNL     1       1.986   8.862  18.392  0.00  0.00    +0.000 S 
BRANCH   6   9
ATOM      9  S   UNL     1       2.990   4.767  18.962  0.00  0.00    +0.000 S 
ATOM     10  O   UNL     1       3.003   4.324  20.339  0.00  0.00    +0.000 OA
ATOM     11  O   UNL     1       2.106   4.192  17.968  0.00  0.00    +0.000 OA
BRANCH   9  12
ATOM     12  C   UNL     1       4.640   4.779  18.332  0.00  0.00    +0.000 A 
ATOM     13  C   UNL     1       4.881   4.359  17.021  0.00  0.00    +0.000 A 
ATOM     14  C   UNL     1       6.182   4.387  16.519  0.00  0.00    +0.000 A 
ATOM     15  C   UNL     1       7.229   4.849  17.319  0.00  0.00    +0.000 A 
ATOM     16  C   UNL     1       6.980   5.293  18.618  0.00  0.00    +0.000 A 
ATOM     17  C   UNL     1       5.682   5.264  19.129  0.00  0.00    +0.000 A 
ENDBRANCH   9  12
ENDBRANCH   6   9
ENDBRANCH   2   4
BRANCH   2  18
ATOM     18  N   UNL     1       0.878  11.066  20.176  0.00  0.00    +0.000 NA
ATOM     19  H   UNL     1       0.235  11.054  19.383  0.00  0.00    +0.000 HD
BRANCH  18  20
ATOM     20  C   UNL     1       0.772  12.245  21.067  0.00  0.00    +0.000 C 
BRANCH  20  21
ATOM     21  C   UNL     1      -0.673  12.613  21.408  0.00  0.00    +0.000 C 
BRANCH  21  22
ATOM     22  S   UNL     1      -1.349  13.352  19.883  0.00  0.00    +0.000 S 
BRANCH  22  23
ATOM     23  C   UNL     1      -2.906  12.430  19.698  0.00  0.00    +0.000 C 
BRANCH  23  24
ATOM     24  C   UNL     1      -2.733  11.405  18.631  0.00  0.00    +0.000 A 
ATOM     25  C   UNL     1      -3.621  10.696  17.844  0.00  0.00    +0.000 A 
ATOM     26  C   UNL     1      -2.844   9.824  17.046  0.00  0.00    +0.000 A 
ATOM     27  C   UNL     1      -1.533  10.063  17.384  0.00  0.00    +0.000 A 
ATOM     28  O   UNL     1      -1.454  11.025  18.341  0.00  0.00    +0.000 OA
ENDBRANCH  23  24
ENDBRANCH  22  23
ENDBRANCH  21  22
ENDBRANCH  20  21
ENDBRANCH  18  20
ENDBRANCH   2  18
TORSDOF 9
ENDMDL
MODEL 2
REMARK VINA RESULT:      -6.4      3.438      6.150
REMARK  Name = 
REMARK  9 active torsions:
REMARK  status: ('A' for Active; 'I' for Inactive)
REMARK    1  A    between atoms: S_2  and  N_4
REMARK    2  A    between atoms: S_2  and  C_14
REMARK    3  A    between atoms: N_4  and  C_5
REMARK    4  A    between atoms: C_5  and  C_6
REMARK    5  A    between atoms: C_6  and  S_7
REMARK    6  A    between atoms: S_7  and  C_8
REMARK    7  A    between atoms: C_8  and  C_9
REMARK    8  A    between atoms: C_16  and  S_17
REMARK    9  A    between atoms: S_17  and  C_20
REMARK                            x       y       z     vdW  Elec       q    Type
REMARK                         _______ _______ _______ _____ _____    ______ ____
ROOT
ATOM      1  O   UNL     1       3.763   0.867  18.823  0.00  0.00    +0.000 OA
ATOM      2  S   UNL     1       3.054   2.058  18.409  0.00  0.00    +0.000 S 
ATOM      3  O   UNL     1       2.162   2.079  17.274  0.00  0.00    +0.000 OA
ENDROOT
BRANCH   2   4
ATOM      4  C   UNL     1       4.315   3.266  18.018  0.00  0.00    +0.000 A 
ATOM      5  C   UNL     1       4.657   3.904  16.840  0.00  0.00    +0.000 A 
ATOM      6  C   UNL     1       5.611   4.947  17.056  0.00  0.00    +0.000 A 
ATOM      7  C   UNL     1       5.996   5.034  18.376  0.00  0.00    +0.000 A 
ATOM      8  S   UNL     1       5.209   3.869  19.350  0.00  0.00    +0.000 S 
BRANCH   6   9
ATOM      9  S   UNL     1       6.187   6.015  15.809  0.00  0.00    +0.000 S 
ATOM     10  O   UNL     1       5.115   6.970  15.633  0.00  0.00    +0.000 OA
ATOM     11  O   UNL     1       7.513   6.405  16.245  0.00  0.00    +0.000 OA
BRANCH   9  12
ATOM     12  C   UNL     1       6.325   5.011  14.363  0.00  0.00    +0.000 A 
ATOM     13  C   UNL     1       5.255   4.193  13.987  0.00  0.00    +0.000 A 
ATOM     14  C   UNL     1       5.359   3.415  12.833  0.00  0.00    +0.000 A 
ATOM     15  C   UNL     1       6.516   3.471  12.055  0.00  0.00    +0.000 A 
ATOM     16  C   UNL     1       7.570   4.310  12.420  0.00  0.00    +0.000 A 
ATOM     17  C   UNL     1       7.477   5.088  13.574  0.00  0.00    +0.000 A 
ENDBRANCH   9  12
ENDBRANCH   6   9
ENDBRANCH   2   4
BRANCH   2  18
ATOM     18  N   UNL     1       2.219   2.656  19.770  0.00  0.00    +0.000 NA
ATOM     19  H   UNL     1       2.862   2.710  20.562  0.00  0.00    +0.000 HD
BRANCH  18  20
ATOM     20  C   UNL     1       1.443   3.886  19.492  0.00  0.00    +0.000 C 
BRANCH  20  21
ATOM     21  C   UNL     1       1.540   4.925  20.609  0.00  0.00    +0.000 C 
BRANCH  21  22
ATOM     22  S   UNL     1       2.446   6.330  19.876  0.00  0.00    +0.000 S 
BRANCH  22  23
ATOM     23  C   UNL     1       1.617   7.742  20.666  0.00  0.00    +0.000 C 
BRANCH  23  24
ATOM     24  C   UNL     1       1.448   8.826  19.658  0.00  0.00    +0.000 A 
ATOM     25  C   UNL     1       1.654   8.893  18.293  0.00  0.00    +0.000 A 
ATOM     26  C   UNL     1       1.361  10.222  17.907  0.00  0.00    +0.000 A 
ATOM     27  C   UNL     1       0.982  10.879  19.054  0.00  0.00    +0.000 A 
ATOM     28  O   UNL     1       1.025  10.039  20.121  0.00  0.00    +0.000 OA
ENDBRANCH  23  24
ENDBRANCH  22  23
ENDBRANCH  21  22
ENDBRANCH  20  21
ENDBRANCH  18  20
ENDBRANCH   2  18
TORSDOF 9
ENDMDL
MODEL 3
REMARK VINA RESULT:      -6.2      4.971      8.913
REMARK  Name = 
REMARK  9 active torsions:
REMARK  status: ('A' for Active; 'I' for Inactive)
REMARK    1  A    between atoms: S_2  and  N_4
REMARK    2  A    between atoms: S_2  and  C_14
REMARK    3  A    between atoms: N_4  and  C_5
REMARK    4  A    between atoms: C_5  and  C_6
REMARK    5  A    between atoms: C_6  and  S_7
REMARK    6  A    between atoms: S_7  and  C_8
REMARK    7  A    between atoms: C_8  and  C_9
REMARK    8  A    between atoms: C_16  and  S_17
REMARK    9  A    between atoms: S_17  and  C_20
REMARK                            x       y       z     vdW  Elec       q    Type
REMARK                         _______ _______ _______ _____ _____    ______ ____
ROOT
ATOM      1  O   UNL     1       6.090   5.326  15.045  0.00  0.00    +0.000 OA
ATOM      2  S   UNL     1       6.887   5.372  16.251  0.00  0.00    +0.000 S 
ATOM      3  O   UNL     1       7.859   4.358  16.581  0.00  0.00    +0.000 OA
ENDROOT
BRANCH   2   4
ATOM      4  C   UNL     1       5.721   5.344  17.608  0.00  0.00    +0.000 A 
ATOM      5  C   UNL     1       4.384   5.689  17.691  0.00  0.00    +0.000 A 
ATOM      6  C   UNL     1       3.813   5.307  18.945  0.00  0.00    +0.000 A 
ATOM      7  C   UNL     1       4.741   4.732  19.786  0.00  0.00    +0.000 A 
ATOM      8  S   UNL     1       6.291   4.649  19.067  0.00  0.00    +0.000 S 
BRANCH   6   9
ATOM      9  S   UNL     1       2.132   5.501  19.350  0.00  0.00    +0.000 S 
ATOM     10  O   UNL     1       1.426   4.855  18.265  0.00  0.00    +0.000 OA
ATOM     11  O   UNL     1       2.031   5.047  20.723  0.00  0.00    +0.000 OA
BRANCH   9  12
ATOM     12  C   UNL     1       1.836   7.241  19.291  0.00  0.00    +0.000 A 
ATOM     13  C   UNL     1       1.982   7.925  18.081  0.00  0.00    +0.000 A 
ATOM     14  C   UNL     1       1.730   9.297  18.033  0.00  0.00    +0.000 A 
ATOM     15  C   UNL     1       1.317   9.971  19.183  0.00  0.00    +0.000 A 
ATOM     16  C   UNL     1       1.147   9.279  20.382  0.00  0.00    +0.000 A 
ATOM     17  C   UNL     1       1.401   7.908  20.441  0.00  0.00    +0.000 A 
ENDBRANCH   9  12
ENDBRANCH   6   9
ENDBRANCH   2   4
BRANCH   2  18
ATOM     18  N   UNL     1       7.650   6.896  16.302  0.00  0.00    +0.000 NA
ATOM     19  H   UNL     1       7.607   7.325  15.376  0.00  0.00    +0.000 HD
BRANCH  18  20
ATOM     20  C   UNL     1       7.191   7.748  17.423  0.00  0.00    +0.000 C 
BRANCH  20  21
ATOM     21  C   UNL     1       8.319   8.151  18.374  0.00  0.00    +0.000 C 
BRANCH  21  22
ATOM     22  S   UNL     1       8.589   9.929  18.065  0.00  0.00    +0.000 S 
BRANCH  22  23
ATOM     23  C   UNL     1       9.287  10.467  19.655  0.00  0.00    +0.000 C 
BRANCH  23  24
ATOM     24  C   UNL     1      10.497  11.295  19.393  0.00  0.00    +0.000 A 
ATOM     25  C   UNL     1      11.450  11.870  20.213  0.00  0.00    +0.000 A 
ATOM     26  C   UNL     1      12.330  12.586  19.368  0.00  0.00    +0.000 A 
ATOM     27  C   UNL     1      11.870  12.393  18.086  0.00  0.00    +0.000 A 
ATOM     28  O   UNL     1      10.762  11.606  18.090  0.00  0.00    +0.000 OA
ENDBRANCH  23  24
ENDBRANCH  22  23
ENDBRANCH  21  22
ENDBRANCH  20  21
ENDBRANCH  18  20
ENDBRANCH   2  18
TORSDOF 9
ENDMDL
MODEL 4
REMARK VINA RESULT:      -6.2      2.914      8.744
REMARK  Name = 
REMARK  9 active torsions:
REMARK  status: ('A' for Active; 'I' for Inactive)
REMARK    1  A    between atoms: S_2  and  N_4
REMARK    2  A    between atoms: S_2  and  C_14
REMARK    3  A    between atoms: N_4  and  C_5
REMARK    4  A    between atoms: C_5  and  C_6
REMARK    5  A    between atoms: C_6  and  S_7
REMARK    6  A    between atoms: S_7  and  C_8
REMARK    7  A    between atoms: C_8  and  C_9
REMARK    8  A    between atoms: C_16  and  S_17
REMARK    9  A    between atoms: S_17  and  C_20
REMARK                            x       y       z     vdW  Elec       q    Type
REMARK                         _______ _______ _______ _____ _____    ______ ____
ROOT
ATOM      1  O   UNL     1       3.932   7.085  17.419  0.00  0.00    +0.000 OA
ATOM      2  S   UNL     1       3.026   6.471  18.364  0.00  0.00    +0.000 S 
ATOM      3  O   UNL     1       2.042   5.489  17.976  0.00  0.00    +0.000 OA
ENDROOT
BRANCH   2   4
ATOM      4  C   UNL     1       2.077   7.811  19.074  0.00  0.00    +0.000 A 
ATOM      5  C   UNL     1       1.428   8.892  18.506  0.00  0.00    +0.000 A 
ATOM      6  C   UNL     1       0.627   9.594  19.459  0.00  0.00    +0.000 A 
ATOM      7  C   UNL     1       0.730   9.054  20.723  0.00  0.00    +0.000 A 
ATOM      8  S   UNL     1       1.784   7.708  20.759  0.00  0.00    +0.000 S 
BRANCH   6   9
ATOM      9  S   UNL     1      -0.399  10.943  19.066  0.00  0.00    +0.000 S 
ATOM     10  O   UNL     1      -0.975  10.595  17.786  0.00  0.00    +0.000 OA
ATOM     11  O   UNL     1      -1.207  11.148  20.253  0.00  0.00    +0.000 OA
BRANCH   9  12
ATOM     12  C   UNL     1       0.694  12.316  18.866  0.00  0.00    +0.000 A 
ATOM     13  C   UNL     1       2.008  12.096  18.441  0.00  0.00    +0.000 A 
ATOM     14  C   UNL     1       2.864  13.183  18.265  0.00  0.00    +0.000 A 
ATOM     15  C   UNL     1       2.402  14.480  18.496  0.00  0.00    +0.000 A 
ATOM     16  C   UNL     1       1.082  14.697  18.895  0.00  0.00    +0.000 A 
ATOM     17  C   UNL     1       0.220  13.615  19.078  0.00  0.00    +0.000 A 
ENDBRANCH   9  12
ENDBRANCH   6   9
ENDBRANCH   2   4
BRANCH   2  18
ATOM     18  N   UNL     1       3.969   5.825  19.630  0.00  0.00    +0.000 NA
ATOM     19  H   UNL     1       3.351   5.458  20.357  0.00  0.00    +0.000 HD
BRANCH  18  20
ATOM     20  C   UNL     1       5.027   4.899  19.164  0.00  0.00    +0.000 C 
BRANCH  20  21
ATOM     21  C   UNL     1       6.437   5.469  19.319  0.00  0.00    +0.000 C 
BRANCH  21  22
ATOM     22  S   UNL     1       7.400   4.732  17.955  0.00  0.00    +0.000 S 
BRANCH  22  23
ATOM     23  C   UNL     1       7.088   5.919  16.614  0.00  0.00    +0.000 C 
BRANCH  23  24
ATOM     24  C   UNL     1       6.787   5.165  15.365  0.00  0.00    +0.000 A 
ATOM     25  C   UNL     1       5.845   4.208  15.037  0.00  0.00    +0.000 A 
ATOM     26  C   UNL     1       6.101   3.833  13.697  0.00  0.00    +0.000 A 
ATOM     27  C   UNL     1       7.172   4.592  13.286  0.00  0.00    +0.000 A 
ATOM     28  O   UNL     1       7.592   5.407  14.288  0.00  0.00    +0.000 OA
ENDBRANCH  23  24
ENDBRANCH  22  23
ENDBRANCH  21  22
ENDBRANCH  20  21
ENDBRANCH  18  20
ENDBRANCH   2  18
TORSDOF 9
ENDMDL
MODEL 5
REMARK VINA RESULT:      -6.2      0.775      1.220
REMARK  Name = 
REMARK  9 active torsions:
REMARK  status: ('A' for Active; 'I' for Inactive)
REMARK    1  A    between atoms: S_2  and  N_4
REMARK    2  A    between atoms: S_2  and  C_14
REMARK    3  A    between atoms: N_4  and  C_5
REMARK    4  A    between atoms: C_5  and  C_6
REMARK    5  A    between atoms: C_6  and  S_7
REMARK    6  A    between atoms: S_7  and  C_8
REMARK    7  A    between atoms: C_8  and  C_9
REMARK    8  A    between atoms: C_16  and  S_17
REMARK    9  A    between atoms: S_17  and  C_20
REMARK                            x       y       z     vdW  Elec       q    Type
REMARK                         _______ _______ _______ _____ _____    ______ ____
ROOT
ATOM      1  O   UNL     1       1.495   9.489  22.329  0.00  0.00    +0.000 OA
ATOM      2  S   UNL     1       0.570   8.902  21.384  0.00  0.00    +0.000 S 
ATOM      3  O   UNL     1      -0.523   8.051  21.788  0.00  0.00    +0.000 OA
ENDROOT
BRANCH   2   4
ATOM      4  C   UNL     1       1.562   7.884  20.297  0.00  0.00    +0.000 A 
ATOM      5  C   UNL     1       1.989   6.571  20.388  0.00  0.00    +0.000 A 
ATOM      6  C   UNL     1       2.599   6.125  19.174  0.00  0.00    +0.000 A 
ATOM      7  C   UNL     1       2.657   7.121  18.224  0.00  0.00    +0.000 A 
ATOM      8  S   UNL     1       1.978   8.585  18.790  0.00  0.00    +0.000 S 
BRANCH   6   9
ATOM      9  S   UNL     1       3.161   4.500  18.905  0.00  0.00    +0.000 S 
ATOM     10  O   UNL     1       3.191   3.909  20.225  0.00  0.00    +0.000 OA
ATOM     11  O   UNL     1       2.315   3.991  17.844  0.00  0.00    +0.000 OA
BRANCH   9  12
ATOM     12  C   UNL     1       4.811   4.673  18.299  0.00  0.00    +0.000 A 
ATOM     13  C   UNL     1       5.799   5.206  19.132  0.00  0.00    +0.000 A 
ATOM     14  C   UNL     1       7.106   5.323  18.657  0.00  0.00    +0.000 A 
ATOM     15  C   UNL     1       7.422   4.893  17.367  0.00  0.00    +0.000 A 
ATOM     16  C   UNL     1       6.437   4.337  16.550  0.00  0.00    +0.000 A 
ATOM     17  C   UNL     1       5.127   4.220  17.015  0.00  0.00    +0.000 A 
ENDBRANCH   9  12
ENDBRANCH   6   9
ENDBRANCH   2   4
BRANCH   2  18
ATOM     18  N   UNL     1      -0.052  10.168  20.424  0.00  0.00    +0.000 NA
ATOM     19  H   UNL     1      -0.937   9.871  20.009  0.00  0.00    +0.000 HD
BRANCH  18  20
ATOM     20  C   UNL     1      -0.077  11.475  21.118  0.00  0.00    +0.000 C 
BRANCH  20  21
ATOM     21  C   UNL     1      -1.333  11.683  21.965  0.00  0.00    +0.000 C 
BRANCH  21  22
ATOM     22  S   UNL     1      -2.467  12.645  20.906  0.00  0.00    +0.000 S 
BRANCH  22  23
ATOM     23  C   UNL     1      -1.564  12.652  19.328  0.00  0.00    +0.000 C 
BRANCH  23  24
ATOM     24  C   UNL     1      -2.227  11.701  18.392  0.00  0.00    +0.000 A 
ATOM     25  C   UNL     1      -3.538  11.516  17.997  0.00  0.00    +0.000 A 
ATOM     26  C   UNL     1      -3.542  10.410  17.116  0.00  0.00    +0.000 A 
ATOM     27  C   UNL     1      -2.234   9.997  17.016  0.00  0.00    +0.000 A 
ATOM     28  O   UNL     1      -1.427  10.778  17.781  0.00  0.00    +0.000 OA
ENDBRANCH  23  24
ENDBRANCH  22  23
ENDBRANCH  21  22
ENDBRANCH  20  21
ENDBRANCH  18  20
ENDBRANCH   2  18
TORSDOF 9
ENDMDL
MODEL 6
REMARK VINA RESULT:      -6.1      1.112      1.407
REMARK  Name = 
REMARK  9 active torsions:
REMARK  status: ('A' for Active; 'I' for Inactive)
REMARK    1  A    between atoms: S_2  and  N_4
REMARK    2  A    between atoms: S_2  and  C_14
REMARK    3  A    between atoms: N_4  and  C_5
REMARK    4  A    between atoms: C_5  and  C_6
REMARK    5  A    between atoms: C_6  and  S_7
REMARK    6  A    between atoms: S_7  and  C_8
REMARK    7  A    between atoms: C_8  and  C_9
REMARK    8  A    between atoms: C_16  and  S_17
REMARK    9  A    between atoms: S_17  and  C_20
REMARK                            x       y       z     vdW  Elec       q    Type
REMARK                         _______ _______ _______ _____ _____    ______ ____
ROOT
ATOM      1  O   UNL     1       1.742   9.746  22.255  0.00  0.00    +0.000 OA
ATOM      2  S   UNL     1       0.807   9.396  21.210  0.00  0.00    +0.000 S 
ATOM      3  O   UNL     1      -0.466   8.770  21.480  0.00  0.00    +0.000 OA
ENDROOT
BRANCH   2   4
ATOM      4  C   UNL     1       1.667   8.239  20.151  0.00  0.00    +0.000 A 
ATOM      5  C   UNL     1       2.040   6.919  20.327  0.00  0.00    +0.000 A 
ATOM      6  C   UNL     1       2.537   6.340  19.118  0.00  0.00    +0.000 A 
ATOM      7  C   UNL     1       2.568   7.247  18.081  0.00  0.00    +0.000 A 
ATOM      8  S   UNL     1       2.000   8.787  18.562  0.00  0.00    +0.000 S 
BRANCH   6   9
ATOM      9  S   UNL     1       3.002   4.671  18.955  0.00  0.00    +0.000 S 
ATOM     10  O   UNL     1       3.107   4.195  20.316  0.00  0.00    +0.000 OA
ATOM     11  O   UNL     1       2.056   4.117  18.007  0.00  0.00    +0.000 OA
BRANCH   9  12
ATOM     12  C   UNL     1       4.607   4.706  18.218  0.00  0.00    +0.000 A 
ATOM     13  C   UNL     1       4.757   4.345  16.875  0.00  0.00    +0.000 A 
ATOM     14  C   UNL     1       6.023   4.392  16.290  0.00  0.00    +0.000 A 
ATOM     15  C   UNL     1       7.124   4.813  17.038  0.00  0.00    +0.000 A 
ATOM     16  C   UNL     1       6.964   5.198  18.370  0.00  0.00    +0.000 A 
ATOM     17  C   UNL     1       5.702   5.151  18.964  0.00  0.00    +0.000 A 
ENDBRANCH   9  12
ENDBRANCH   6   9
ENDBRANCH   2   4
BRANCH   2  18
ATOM     18  N   UNL     1       0.537  10.797  20.275  0.00  0.00    +0.000 NA
ATOM     19  H   UNL     1       0.575  10.553  19.284  0.00  0.00    +0.000 HD
BRANCH  18  20
ATOM     20  C   UNL     1      -0.656  11.566  20.698  0.00  0.00    +0.000 C 
BRANCH  20  21
ATOM     21  C   UNL     1      -1.114  12.588  19.656  0.00  0.00    +0.000 C 
BRANCH  21  22
ATOM     22  S   UNL     1      -2.738  11.986  19.081  0.00  0.00    +0.000 S 
BRANCH  22  23
ATOM     23  C   UNL     1      -2.288  10.378  18.360  0.00  0.00    +0.000 C 
BRANCH  23  24
ATOM     24  C   UNL     1      -2.711  10.356  16.932  0.00  0.00    +0.000 A 
ATOM     25  C   UNL     1      -2.344   9.586  15.845  0.00  0.00    +0.000 A 
ATOM     26  C   UNL     1      -3.067  10.083  14.735  0.00  0.00    +0.000 A 
ATOM     27  C   UNL     1      -3.839  11.114  15.215  0.00  0.00    +0.000 A 
ATOM     28  O   UNL     1      -3.635  11.285  16.548  0.00  0.00    +0.000 OA
ENDBRANCH  23  24
ENDBRANCH  22  23
ENDBRANCH  21  22
ENDBRANCH  20  21
ENDBRANCH  18  20
ENDBRANCH   2  18
TORSDOF 9
ENDMDL
MODEL 7
REMARK VINA RESULT:      -6.1      3.232      4.571
REMARK  Name = 
REMARK  9 active torsions:
REMARK  status: ('A' for Active; 'I' for Inactive)
REMARK    1  A    between atoms: S_2  and  N_4
REMARK    2  A    between atoms: S_2  and  C_14
REMARK    3  A    between atoms: N_4  and  C_5
REMARK    4  A    between atoms: C_5  and  C_6
REMARK    5  A    between atoms: C_6  and  S_7
REMARK    6  A    between atoms: S_7  and  C_8
REMARK    7  A    between atoms: C_8  and  C_9
REMARK    8  A    between atoms: C_16  and  S_17
REMARK    9  A    between atoms: S_17  and  C_20
REMARK                            x       y       z     vdW  Elec       q    Type
REMARK                         _______ _______ _______ _____ _____    ______ ____
ROOT
ATOM      1  O   UNL     1      -0.236   8.755  21.848  0.00  0.00    +0.000 OA
ATOM      2  S   UNL     1       0.067   9.647  20.750  0.00  0.00    +0.000 S 
ATOM      3  O   UNL     1      -0.930  10.084  19.803  0.00  0.00    +0.000 OA
ENDROOT
BRANCH   2   4
ATOM      4  C   UNL     1       1.295   8.803  19.760  0.00  0.00    +0.000 A 
ATOM      5  C   UNL     1       1.974   7.611  19.939  0.00  0.00    +0.000 A 
ATOM      6  C   UNL     1       2.719   7.242  18.776  0.00  0.00    +0.000 A 
ATOM      7  C   UNL     1       2.620   8.184  17.775  0.00  0.00    +0.000 A 
ATOM      8  S   UNL     1       1.633   9.503  18.233  0.00  0.00    +0.000 S 
BRANCH   6   9
ATOM      9  S   UNL     1       3.609   5.756  18.619  0.00  0.00    +0.000 S 
ATOM     10  O   UNL     1       3.826   5.617  17.196  0.00  0.00    +0.000 OA
ATOM     11  O   UNL     1       4.701   5.881  19.564  0.00  0.00    +0.000 OA
BRANCH   9  12
ATOM     12  C   UNL     1       2.506   4.492  19.173  0.00  0.00    +0.000 A 
ATOM     13  C   UNL     1       1.710   3.815  18.244  0.00  0.00    +0.000 A 
ATOM     14  C   UNL     1       0.854   2.804  18.682  0.00  0.00    +0.000 A 
ATOM     15  C   UNL     1       0.810   2.464  20.035  0.00  0.00    +0.000 A 
ATOM     16  C   UNL     1       1.626   3.124  20.954  0.00  0.00    +0.000 A 
ATOM     17  C   UNL     1       2.482   4.139  20.526  0.00  0.00    +0.000 A 
ENDBRANCH   9  12
ENDBRANCH   6   9
ENDBRANCH   2   4
BRANCH   2  18
ATOM     18  N   UNL     1       0.836  11.021  21.405  0.00  0.00    +0.000 NA
ATOM     19  H   UNL     1       1.714  11.184  20.908  0.00  0.00    +0.000 HD
BRANCH  18  20
ATOM     20  C   UNL     1      -0.058  12.195  21.526  0.00  0.00    +0.000 C 
BRANCH  20  21
ATOM     21  C   UNL     1      -0.968  12.135  22.753  0.00  0.00    +0.000 C 
BRANCH  21  22
ATOM     22  S   UNL     1      -2.622  12.607  22.143  0.00  0.00    +0.000 S 
BRANCH  22  23
ATOM     23  C   UNL     1      -3.590  12.588  23.682  0.00  0.00    +0.000 C 
BRANCH  23  24
ATOM     24  C   UNL     1      -3.947  13.989  24.042  0.00  0.00    +0.000 A 
ATOM     25  C   UNL     1      -5.019  14.805  23.734  0.00  0.00    +0.000 A 
ATOM     26  C   UNL     1      -4.759  16.058  24.337  0.00  0.00    +0.000 A 
ATOM     27  C   UNL     1      -3.553  15.926  24.986  0.00  0.00    +0.000 A 
ATOM     28  O   UNL     1      -3.055  14.673  24.818  0.00  0.00    +0.000 OA
ENDBRANCH  23  24
ENDBRANCH  22  23
ENDBRANCH  21  22
ENDBRANCH  20  21
ENDBRANCH  18  20
ENDBRANCH   2  18
TORSDOF 9
ENDMDL
MODEL 8
REMARK VINA RESULT:      -6.1      2.093      2.725
REMARK  Name = 
REMARK  9 active torsions:
REMARK  status: ('A' for Active; 'I' for Inactive)
REMARK    1  A    between atoms: S_2  and  N_4
REMARK    2  A    between atoms: S_2  and  C_14
REMARK    3  A    between atoms: N_4  and  C_5
REMARK    4  A    between atoms: C_5  and  C_6
REMARK    5  A    between atoms: C_6  and  S_7
REMARK    6  A    between atoms: S_7  and  C_8
REMARK    7  A    between atoms: C_8  and  C_9
REMARK    8  A    between atoms: C_16  and  S_17
REMARK    9  A    between atoms: S_17  and  C_20
REMARK                            x       y       z     vdW  Elec       q    Type
REMARK                         _______ _______ _______ _____ _____    ______ ____
ROOT
ATOM      1  O   UNL     1       0.460   8.825  22.153  0.00  0.00    +0.000 OA
ATOM      2  S   UNL     1       0.436   9.535  20.894  0.00  0.00    +0.000 S 
ATOM      3  O   UNL     1      -0.767   9.695  20.112  0.00  0.00    +0.000 OA
ENDROOT
BRANCH   2   4
ATOM      4  C   UNL     1       1.564   8.657  19.817  0.00  0.00    +0.000 A 
ATOM      5  C   UNL     1       2.232   7.454  19.954  0.00  0.00    +0.000 A 
ATOM      6  C   UNL     1       2.873   7.059  18.739  0.00  0.00    +0.000 A 
ATOM      7  C   UNL     1       2.712   7.994  17.738  0.00  0.00    +0.000 A 
ATOM      8  S   UNL     1       1.790   9.336  18.260  0.00  0.00    +0.000 S 
BRANCH   6   9
ATOM      9  S   UNL     1       3.719   5.554  18.527  0.00  0.00    +0.000 S 
ATOM     10  O   UNL     1       3.888   5.437  17.095  0.00  0.00    +0.000 OA
ATOM     11  O   UNL     1       4.842   5.633  19.439  0.00  0.00    +0.000 OA
BRANCH   9  12
ATOM     12  C   UNL     1       2.601   4.308  19.091  0.00  0.00    +0.000 A 
ATOM     13  C   UNL     1       1.716   3.714  18.186  0.00  0.00    +0.000 A 
ATOM     14  C   UNL     1       0.847   2.717  18.630  0.00  0.00    +0.000 A 
ATOM     15  C   UNL     1       0.878   2.307  19.964  0.00  0.00    +0.000 A 
ATOM     16  C   UNL     1       1.781   2.884  20.857  0.00  0.00    +0.000 A 
ATOM     17  C   UNL     1       2.651   3.885  20.423  0.00  0.00    +0.000 A 
ENDBRANCH   9  12
ENDBRANCH   6   9
ENDBRANCH   2   4
BRANCH   2  18
ATOM     18  N   UNL     1       1.122  11.073  21.160  0.00  0.00    +0.000 NA
ATOM     19  H   UNL     1       2.138  11.009  21.070  0.00  0.00    +0.000 HD
BRANCH  18  20
ATOM     20  C   UNL     1       0.478  12.150  20.373  0.00  0.00    +0.000 C 
BRANCH  20  21
ATOM     21  C   UNL     1      -0.265  13.167  21.239  0.00  0.00    +0.000 C 
BRANCH  21  22
ATOM     22  S   UNL     1      -1.602  13.811  20.177  0.00  0.00    +0.000 S 
BRANCH  22  23
ATOM     23  C   UNL     1      -2.838  12.484  20.314  0.00  0.00    +0.000 C 
BRANCH  23  24
ATOM     24  C   UNL     1      -3.181  12.005  18.946  0.00  0.00    +0.000 A 
ATOM     25  C   UNL     1      -4.370  11.655  18.333  0.00  0.00    +0.000 A 
ATOM     26  C   UNL     1      -4.038  11.226  17.026  0.00  0.00    +0.000 A 
ATOM     27  C   UNL     1      -2.674  11.353  16.917  0.00  0.00    +0.000 A 
ATOM     28  O   UNL     1      -2.144  11.830  18.075  0.00  0.00    +0.000 OA
ENDBRANCH  23  24
ENDBRANCH  22  23
ENDBRANCH  21  22
ENDBRANCH  20  21
ENDBRANCH  18  20
ENDBRANCH   2  18
TORSDOF 9
ENDMDL
MODEL 9
REMARK VINA RESULT:      -6.1      2.282      8.609
REMARK  Name = 
REMARK  9 active torsions:
REMARK  status: ('A' for Active; 'I' for Inactive)
REMARK    1  A    between atoms: S_2  and  N_4
REMARK    2  A    between atoms: S_2  and  C_14
REMARK    3  A    between atoms: N_4  and  C_5
REMARK    4  A    between atoms: C_5  and  C_6
REMARK    5  A    between atoms: C_6  and  S_7
REMARK    6  A    between atoms: S_7  and  C_8
REMARK    7  A    between atoms: C_8  and  C_9
REMARK    8  A    between atoms: C_16  and  S_17
REMARK    9  A    between atoms: S_17  and  C_20
REMARK                            x       y       z     vdW  Elec       q    Type
REMARK                         _______ _______ _______ _____ _____    ______ ____
ROOT
ATOM      1  O   UNL     1       1.774   6.154  17.717  0.00  0.00    +0.000 OA
ATOM      2  S   UNL     1       2.752   6.816  18.552  0.00  0.00    +0.000 S 
ATOM      3  O   UNL     1       3.423   6.152  19.644  0.00  0.00    +0.000 OA
ENDROOT
BRANCH   2   4
ATOM      4  C   UNL     1       1.895   8.190  19.313  0.00  0.00    +0.000 A 
ATOM      5  C   UNL     1       1.491   9.419  18.823  0.00  0.00    +0.000 A 
ATOM      6  C   UNL     1       0.656  10.114  19.752  0.00  0.00    +0.000 A 
ATOM      7  C   UNL     1       0.493   9.415  20.929  0.00  0.00    +0.000 A 
ATOM      8  S   UNL     1       1.338   7.929  20.912  0.00  0.00    +0.000 S 
BRANCH   6   9
ATOM      9  S   UNL     1      -0.107  11.643  19.423  0.00  0.00    +0.000 S 
ATOM     10  O   UNL     1      -0.359  12.206  20.731  0.00  0.00    +0.000 OA
ATOM     11  O   UNL     1       0.758  12.283  18.453  0.00  0.00    +0.000 OA
BRANCH   9  12
ATOM     12  C   UNL     1      -1.643  11.238  18.650  0.00  0.00    +0.000 A 
ATOM     13  C   UNL     1      -1.701  10.175  17.744  0.00  0.00    +0.000 A 
ATOM     14  C   UNL     1      -2.919   9.845  17.149  0.00  0.00    +0.000 A 
ATOM     15  C   UNL     1      -4.071  10.563  17.474  0.00  0.00    +0.000 A 
ATOM     16  C   UNL     1      -4.014  11.606  18.399  0.00  0.00    +0.000 A 
ATOM     17  C   UNL     1      -2.799  11.946  18.995  0.00  0.00    +0.000 A 
ENDBRANCH   9  12
ENDBRANCH   6   9
ENDBRANCH   2   4
BRANCH   2  18
ATOM     18  N   UNL     1       3.930   7.494  17.521  0.00  0.00    +0.000 NA
ATOM     19  H   UNL     1       4.169   8.430  17.853  0.00  0.00    +0.000 HD
BRANCH  18  20
ATOM     20  C   UNL     1       5.078   6.594  17.267  0.00  0.00    +0.000 C 
BRANCH  20  21
ATOM     21  C   UNL     1       5.182   6.148  15.808  0.00  0.00    +0.000 C 
BRANCH  21  22
ATOM     22  S   UNL     1       5.360   4.333  15.876  0.00  0.00    +0.000 S 
BRANCH  22  23
ATOM     23  C   UNL     1       5.298   4.035  17.669  0.00  0.00    +0.000 C 
BRANCH  23  24
ATOM     24  C   UNL     1       4.052   3.282  17.988  0.00  0.00    +0.000 A 
ATOM     25  C   UNL     1       2.916   2.976  17.264  0.00  0.00    +0.000 A 
ATOM     26  C   UNL     1       2.056   2.274  18.140  0.00  0.00    +0.000 A 
ATOM     27  C   UNL     1       2.724   2.183  19.338  0.00  0.00    +0.000 A 
ATOM     28  O   UNL     1       3.939   2.786  19.255  0.00  0.00    +0.000 OA
ENDBRANCH  23  24
ENDBRANCH  22  23
ENDBRANCH  21  22
ENDBRANCH  20  21
ENDBRANCH  18  20
ENDBRANCH   2  18
TORSDOF 9
ENDMDL
