MODEL 1
REMARK VINA RESULT:      -6.5      0.000      0.000
REMARK  Name = 
REMARK  9 active torsions:
REMARK  status: ('A' for Active; 'I' for Inactive)
REMARK    1  A    between atoms: C_1  and  C_2
REMARK    2  A    between atoms: C_2  and  C_3
REMARK    3  A    between atoms: C_3  and  C_4
REMARK    4  A    between atoms: C_4  and  C_5
REMARK    5  A    between atoms: C_5  and  N_6
REMARK    6  A    between atoms: C_11  and  O_12
REMARK    7  A    between atoms: O_12  and  C_13
REMARK    8  A    between atoms: C_14  and  O_15
REMARK    9  A    between atoms: O_15  and  C_16
REMARK                            x       y       z     vdW  Elec       q    Type
REMARK                         _______ _______ _______ _____ _____    ______ ____
ROOT
ATOM      1  N   UNL     1      -4.129  11.177  18.060  0.00  0.00    +0.000 NA
ATOM      2  C   UNL     1      -3.388   9.962  17.621  0.00  0.00    +0.000 C 
ATOM      3  C   UNL     1      -1.959  10.279  17.242  0.00  0.00    +0.000 C 
ATOM      4  C   UNL     1      -1.272  10.559  18.543  0.00  0.00    +0.000 A 
ATOM      5  C   UNL     1      -0.039   9.961  18.799  0.00  0.00    +0.000 A 
ATOM      6  C   UNL     1       0.502  10.031  20.069  0.00  0.00    +0.000 A 
ATOM      7  C   UNL     1      -0.124  10.828  21.047  0.00  0.00    +0.000 A 
ATOM      8  C   UNL     1      -1.321  11.576  20.745  0.00  0.00    +0.000 A 
ATOM      9  C   UNL     1      -1.949  11.351  19.497  0.00  0.00    +0.000 A 
ATOM     10  C   UNL     1      -3.280  12.011  19.032  0.00  0.00    +0.000 C 
ATOM     11  C   UNL     1      -3.901  12.981  20.085  0.00  0.00    +0.000 C 
ATOM     12  C   UNL     1      -3.032  13.381  21.290  0.00  0.00    +0.000 A 
ATOM     13  C   UNL     1      -3.433  14.498  22.076  0.00  0.00    +0.000 A 
ATOM     14  C   UNL     1      -2.692  14.870  23.186  0.00  0.00    +0.000 A 
ATOM     15  C   UNL     1      -1.558  14.182  23.526  0.00  0.00    +0.000 A 
ATOM     16  C   UNL     1      -1.126  13.121  22.761  0.00  0.00    +0.000 A 
ATOM     17  C   UNL     1      -1.850  12.674  21.634  0.00  0.00    +0.000 A 
ATOM     18  O   UNL     1      -0.935  14.668  24.622  0.00  0.00    +0.000 OA
ATOM     19  C   UNL     1      -1.825  15.740  24.976  0.00  0.00    +0.000 C 
ATOM     20  O   UNL     1      -2.914  15.905  24.039  0.00  0.00    +0.000 OA
ENDROOT
BRANCH   6  21
ATOM     21  O   UNL     1       1.651   9.355  20.389  0.00  0.00    +0.000 OA
ATOM     22  C   UNL     1       1.505   7.954  20.588  0.00  0.00    +0.000 C 
ENDBRANCH   6  21
BRANCH   7  23
ATOM     23  O   UNL     1       0.285  10.768  22.365  0.00  0.00    +0.000 OA
ATOM     24  C   UNL     1      -0.275   9.743  23.189  0.00  0.00    +0.000 C 
ENDBRANCH   7  23
BRANCH   1  25
ATOM     25  C   UNL     1      -5.522  10.723  18.233  0.00  0.00    +0.000 C 
BRANCH  25  26
ATOM     26  C   UNL     1      -6.664  11.514  18.889  0.00  0.00    +0.000 C 
BRANCH  26  27
ATOM     27  C   UNL     1      -7.114  11.149  20.310  0.00  0.00    +0.000 C 
BRANCH  27  29
ATOM     28  C   UNL     1      -6.804  12.625  22.434  0.00  0.00    +0.000 C 
ATOM     29  C   UNL     1      -7.674  12.237  21.238  0.00  0.00    +0.000 C 
ENDBRANCH  27  29
ENDBRANCH  26  27
ENDBRANCH  25  26
ENDBRANCH   1  25
TORSDOF 6
ENDMDL
MODEL 2
REMARK VINA RESULT:      -6.4      3.065      5.435
REMARK  Name = 
REMARK  9 active torsions:
REMARK  status: ('A' for Active; 'I' for Inactive)
REMARK    1  A    between atoms: C_1  and  C_2
REMARK    2  A    between atoms: C_2  and  C_3
REMARK    3  A    between atoms: C_3  and  C_4
REMARK    4  A    between atoms: C_4  and  C_5
REMARK    5  A    between atoms: C_5  and  N_6
REMARK    6  A    between atoms: C_11  and  O_12
REMARK    7  A    between atoms: O_12  and  C_13
REMARK    8  A    between atoms: C_14  and  O_15
REMARK    9  A    between atoms: O_15  and  C_16
REMARK                            x       y       z     vdW  Elec       q    Type
REMARK                         _______ _______ _______ _____ _____    ______ ____
ROOT
ATOM      1  N   UNL     1       0.855  11.865  20.307  0.00  0.00    +0.000 NA
ATOM      2  C   UNL     1       1.104  11.467  18.893  0.00  0.00    +0.000 C 
ATOM      3  C   UNL     1       0.384  10.189  18.531  0.00  0.00    +0.000 C 
ATOM      4  C   UNL     1      -1.062  10.575  18.451  0.00  0.00    +0.000 A 
ATOM      5  C   UNL     1      -1.813  10.156  17.355  0.00  0.00    +0.000 A 
ATOM      6  C   UNL     1      -3.077  10.680  17.155  0.00  0.00    +0.000 A 
ATOM      7  C   UNL     1      -3.645  11.514  18.137  0.00  0.00    +0.000 A 
ATOM      8  C   UNL     1      -2.932  11.829  19.351  0.00  0.00    +0.000 A 
ATOM      9  C   UNL     1      -1.580  11.426  19.452  0.00  0.00    +0.000 A 
ATOM     10  C   UNL     1      -0.638  11.741  20.651  0.00  0.00    +0.000 C 
ATOM     11  C   UNL     1      -1.320  12.570  21.784  0.00  0.00    +0.000 C 
ATOM     12  C   UNL     1      -2.849  12.734  21.729  0.00  0.00    +0.000 A 
ATOM     13  C   UNL     1      -3.526  13.189  22.896  0.00  0.00    +0.000 A 
ATOM     14  C   UNL     1      -4.898  13.377  22.876  0.00  0.00    +0.000 A 
ATOM     15  C   UNL     1      -5.619  13.109  21.743  0.00  0.00    +0.000 A 
ATOM     16  C   UNL     1      -4.995  12.632  20.612  0.00  0.00    +0.000 A 
ATOM     17  C   UNL     1      -3.597  12.445  20.558  0.00  0.00    +0.000 A 
ATOM     18  O   UNL     1      -6.946  13.327  21.879  0.00  0.00    +0.000 OA
ATOM     19  C   UNL     1      -6.997  13.804  23.234  0.00  0.00    +0.000 C 
ATOM     20  O   UNL     1      -5.707  13.790  23.888  0.00  0.00    +0.000 OA
ENDROOT
BRANCH   6  21
ATOM     21  O   UNL     1      -3.797  10.384  16.026  0.00  0.00    +0.000 OA
ATOM     22  C   UNL     1      -3.041  10.280  14.825  0.00  0.00    +0.000 C 
ENDBRANCH   6  21
BRANCH   7  23
ATOM     23  O   UNL     1      -4.819  12.197  17.880  0.00  0.00    +0.000 OA
ATOM     24  C   UNL     1      -6.030  11.441  17.827  0.00  0.00    +0.000 C 
ENDBRANCH   7  23
BRANCH   1  25
ATOM     25  C   UNL     1       1.744  13.019  20.533  0.00  0.00    +0.000 C 
BRANCH  25  26
ATOM     26  C   UNL     1       2.213  14.031  19.477  0.00  0.00    +0.000 C 
BRANCH  26  27
ATOM     27  C   UNL     1       1.311  15.221  19.123  0.00  0.00    +0.000 C 
BRANCH  27  29
ATOM     28  C   UNL     1      -1.104  15.664  19.994  0.00  0.00    +0.000 C 
ATOM     29  C   UNL     1      -0.201  15.010  18.949  0.00  0.00    +0.000 C 
ENDBRANCH  27  29
ENDBRANCH  26  27
ENDBRANCH  25  26
ENDBRANCH   1  25
TORSDOF 6
ENDMDL
MODEL 3
REMARK VINA RESULT:      -6.3      0.972      1.139
REMARK  Name = 
REMARK  9 active torsions:
REMARK  status: ('A' for Active; 'I' for Inactive)
REMARK    1  A    between atoms: C_1  and  C_2
REMARK    2  A    between atoms: C_2  and  C_3
REMARK    3  A    between atoms: C_3  and  C_4
REMARK    4  A    between atoms: C_4  and  C_5
REMARK    5  A    between atoms: C_5  and  N_6
REMARK    6  A    between atoms: C_11  and  O_12
REMARK    7  A    between atoms: O_12  and  C_13
REMARK    8  A    between atoms: C_14  and  O_15
REMARK    9  A    between atoms: O_15  and  C_16
REMARK                            x       y       z     vdW  Elec       q    Type
REMARK                         _______ _______ _______ _____ _____    ______ ____
ROOT
ATOM      1  N   UNL     1      -3.493  11.236  17.842  0.00  0.00    +0.000 NA
ATOM      2  C   UNL     1      -2.839   9.927  17.560  0.00  0.00    +0.000 C 
ATOM      3  C   UNL     1      -1.345  10.072  17.375  0.00  0.00    +0.000 C 
ATOM      4  C   UNL     1      -0.814  10.348  18.748  0.00  0.00    +0.000 A 
ATOM      5  C   UNL     1       0.297   9.639  19.198  0.00  0.00    +0.000 A 
ATOM      6  C   UNL     1       0.665   9.721  20.528  0.00  0.00    +0.000 A 
ATOM      7  C   UNL     1       0.005  10.631  21.376  0.00  0.00    +0.000 A 
ATOM      8  C   UNL     1      -1.049  11.483  20.878  0.00  0.00    +0.000 A 
ATOM      9  C   UNL     1      -1.522  11.258  19.564  0.00  0.00    +0.000 A 
ATOM     10  C   UNL     1      -2.696  12.027  18.890  0.00  0.00    +0.000 C 
ATOM     11  C   UNL     1      -3.342  13.113  19.806  0.00  0.00    +0.000 C 
ATOM     12  C   UNL     1      -2.605  13.485  21.106  0.00  0.00    +0.000 A 
ATOM     13  C   UNL     1      -2.982  14.679  21.783  0.00  0.00    +0.000 A 
ATOM     14  C   UNL     1      -2.362  15.031  22.971  0.00  0.00    +0.000 A 
ATOM     15  C   UNL     1      -1.369  14.247  23.494  0.00  0.00    +0.000 A 
ATOM     16  C   UNL     1      -0.959  13.106  22.840  0.00  0.00    +0.000 A 
ATOM     17  C   UNL     1      -1.568  12.677  21.641  0.00  0.00    +0.000 A 
ATOM     18  O   UNL     1      -0.851  14.724  24.647  0.00  0.00    +0.000 OA
ATOM     19  C   UNL     1      -1.655  15.901  24.830  0.00  0.00    +0.000 C 
ATOM     20  O   UNL     1      -2.582  16.129  23.742  0.00  0.00    +0.000 OA
ENDROOT
BRANCH   6  21
ATOM     21  O   UNL     1       1.678   8.946  21.033  0.00  0.00    +0.000 OA
ATOM     22  C   UNL     1       1.835   7.669  20.427  0.00  0.00    +0.000 C 
ENDBRANCH   6  21
BRANCH   7  23
ATOM     23  O   UNL     1       0.221  10.600  22.740  0.00  0.00    +0.000 OA
ATOM     24  C   UNL     1      -0.348   9.518  23.479  0.00  0.00    +0.000 C 
ENDBRANCH   7  23
BRANCH   1  25
ATOM     25  C   UNL     1      -4.938  10.941  17.835  0.00  0.00    +0.000 C 
BRANCH  25  26
ATOM     26  C   UNL     1      -5.915  11.137  19.005  0.00  0.00    +0.000 C 
BRANCH  26  27
ATOM     27  C   UNL     1      -7.086  10.160  19.179  0.00  0.00    +0.000 C 
BRANCH  27  29
ATOM     28  C   UNL     1      -7.866   8.333  20.863  0.00  0.00    +0.000 C 
ATOM     29  C   UNL     1      -7.586   9.810  20.588  0.00  0.00    +0.000 C 
ENDBRANCH  27  29
ENDBRANCH  26  27
ENDBRANCH  25  26
ENDBRANCH   1  25
TORSDOF 6
ENDMDL
MODEL 4
REMARK VINA RESULT:      -6.2      1.075      1.583
REMARK  Name = 
REMARK  9 active torsions:
REMARK  status: ('A' for Active; 'I' for Inactive)
REMARK    1  A    between atoms: C_1  and  C_2
REMARK    2  A    between atoms: C_2  and  C_3
REMARK    3  A    between atoms: C_3  and  C_4
REMARK    4  A    between atoms: C_4  and  C_5
REMARK    5  A    between atoms: C_5  and  N_6
REMARK    6  A    between atoms: C_11  and  O_12
REMARK    7  A    between atoms: O_12  and  C_13
REMARK    8  A    between atoms: C_14  and  O_15
REMARK    9  A    between atoms: O_15  and  C_16
REMARK                            x       y       z     vdW  Elec       q    Type
REMARK                         _______ _______ _______ _____ _____    ______ ____
ROOT
ATOM      1  N   UNL     1      -4.097  11.221  18.084  0.00  0.00    +0.000 NA
ATOM      2  C   UNL     1      -3.370   9.996  17.647  0.00  0.00    +0.000 C 
ATOM      3  C   UNL     1      -1.938  10.295  17.268  0.00  0.00    +0.000 C 
ATOM      4  C   UNL     1      -1.247  10.568  18.569  0.00  0.00    +0.000 A 
ATOM      5  C   UNL     1      -0.022   9.956  18.825  0.00  0.00    +0.000 A 
ATOM      6  C   UNL     1       0.520  10.021  20.096  0.00  0.00    +0.000 A 
ATOM      7  C   UNL     1      -0.097  10.826  21.072  0.00  0.00    +0.000 A 
ATOM      8  C   UNL     1      -1.285  11.589  20.769  0.00  0.00    +0.000 A 
ATOM      9  C   UNL     1      -1.915  11.370  19.521  0.00  0.00    +0.000 A 
ATOM     10  C   UNL     1      -3.238  12.045  19.055  0.00  0.00    +0.000 C 
ATOM     11  C   UNL     1      -3.847  13.024  20.107  0.00  0.00    +0.000 C 
ATOM     12  C   UNL     1      -2.973  13.415  21.312  0.00  0.00    +0.000 A 
ATOM     13  C   UNL     1      -3.360  14.538  22.097  0.00  0.00    +0.000 A 
ATOM     14  C   UNL     1      -2.615  14.902  23.206  0.00  0.00    +0.000 A 
ATOM     15  C   UNL     1      -1.489  14.201  23.547  0.00  0.00    +0.000 A 
ATOM     16  C   UNL     1      -1.071  13.133  22.784  0.00  0.00    +0.000 A 
ATOM     17  C   UNL     1      -1.800  12.694  21.657  0.00  0.00    +0.000 A 
ATOM     18  O   UNL     1      -0.861  14.681  24.642  0.00  0.00    +0.000 OA
ATOM     19  C   UNL     1      -1.737  15.764  24.995  0.00  0.00    +0.000 C 
ATOM     20  O   UNL     1      -2.825  15.941  24.058  0.00  0.00    +0.000 OA
ENDROOT
BRANCH   6  21
ATOM     21  O   UNL     1       1.661   9.331  20.416  0.00  0.00    +0.000 OA
ATOM     22  C   UNL     1       1.494   7.935  20.635  0.00  0.00    +0.000 C 
ENDBRANCH   6  21
BRANCH   7  23
ATOM     23  O   UNL     1       0.311  10.763  22.390  0.00  0.00    +0.000 OA
ATOM     24  C   UNL     1      -0.271   9.755  23.219  0.00  0.00    +0.000 C 
ENDBRANCH   7  23
BRANCH   1  25
ATOM     25  C   UNL     1      -5.495  10.784  18.258  0.00  0.00    +0.000 C 
BRANCH  25  26
ATOM     26  C   UNL     1      -6.753  11.629  18.005  0.00  0.00    +0.000 C 
BRANCH  26  27
ATOM     27  C   UNL     1      -6.645  13.160  18.016  0.00  0.00    +0.000 C 
BRANCH  27  29
ATOM     28  C   UNL     1      -7.235  15.006  16.275  0.00  0.00    +0.000 C 
ATOM     29  C   UNL     1      -7.724  14.007  17.323  0.00  0.00    +0.000 C 
ENDBRANCH  27  29
ENDBRANCH  26  27
ENDBRANCH  25  26
ENDBRANCH   1  25
TORSDOF 6
ENDMDL
MODEL 5
REMARK VINA RESULT:      -6.1      2.948      7.556
REMARK  Name = 
REMARK  9 active torsions:
REMARK  status: ('A' for Active; 'I' for Inactive)
REMARK    1  A    between atoms: C_1  and  C_2
REMARK    2  A    between atoms: C_2  and  C_3
REMARK    3  A    between atoms: C_3  and  C_4
REMARK    4  A    between atoms: C_4  and  C_5
REMARK    5  A    between atoms: C_5  and  N_6
REMARK    6  A    between atoms: C_11  and  O_12
REMARK    7  A    between atoms: O_12  and  C_13
REMARK    8  A    between atoms: C_14  and  O_15
REMARK    9  A    between atoms: O_15  and  C_16
REMARK                            x       y       z     vdW  Elec       q    Type
REMARK                         _______ _______ _______ _____ _____    ______ ____
ROOT
ATOM      1  N   UNL     1      -0.490  11.171  22.015  0.00  0.00    +0.000 NA
ATOM      2  C   UNL     1      -1.225  11.903  23.083  0.00  0.00    +0.000 C 
ATOM      3  C   UNL     1      -1.467  13.349  22.713  0.00  0.00    +0.000 C 
ATOM      4  C   UNL     1      -2.518  13.300  21.647  0.00  0.00    +0.000 A 
ATOM      5  C   UNL     1      -3.611  14.159  21.735  0.00  0.00    +0.000 A 
ATOM      6  C   UNL     1      -4.690  13.980  20.890  0.00  0.00    +0.000 A 
ATOM      7  C   UNL     1      -4.610  13.028  19.856  0.00  0.00    +0.000 A 
ATOM      8  C   UNL     1      -3.418  12.237  19.661  0.00  0.00    +0.000 A 
ATOM      9  C   UNL     1      -2.400  12.316  20.640  0.00  0.00    +0.000 A 
ATOM     10  C   UNL     1      -1.084  11.485  20.633  0.00  0.00    +0.000 C 
ATOM     11  C   UNL     1      -0.959  10.516  19.415  0.00  0.00    +0.000 C 
ATOM     12  C   UNL     1      -1.965  10.684  18.262  0.00  0.00    +0.000 A 
ATOM     13  C   UNL     1      -1.682  10.054  17.017  0.00  0.00    +0.000 A 
ATOM     14  C   UNL     1      -2.577  10.158  15.965  0.00  0.00    +0.000 A 
ATOM     15  C   UNL     1      -3.731  10.882  16.105  0.00  0.00    +0.000 A 
ATOM     16  C   UNL     1      -4.012  11.532  17.286  0.00  0.00    +0.000 A 
ATOM     17  C   UNL     1      -3.155  11.444  18.404  0.00  0.00    +0.000 A 
ATOM     18  O   UNL     1      -4.497  10.903  14.992  0.00  0.00    +0.000 OA
ATOM     19  C   UNL     1      -3.714  10.073  14.118  0.00  0.00    +0.000 C 
ATOM     20  O   UNL     1      -2.470   9.639  14.713  0.00  0.00    +0.000 OA
ENDROOT
BRANCH   6  21
ATOM     21  O   UNL     1      -5.831  14.728  21.028  0.00  0.00    +0.000 OA
ATOM     22  C   UNL     1      -6.555  14.530  22.236  0.00  0.00    +0.000 C 
ENDBRANCH   6  21
BRANCH   7  23
ATOM     23  O   UNL     1      -5.732  12.697  19.121  0.00  0.00    +0.000 OA
ATOM     24  C   UNL     1      -6.642  11.752  19.685  0.00  0.00    +0.000 C 
ENDBRANCH   7  23
BRANCH   1  25
ATOM     25  C   UNL     1      -0.203   9.847  22.598  0.00  0.00    +0.000 C 
BRANCH  25  26
ATOM     26  C   UNL     1      -0.068   8.522  21.832  0.00  0.00    +0.000 C 
BRANCH  26  27
ATOM     27  C   UNL     1       1.315   8.077  21.337  0.00  0.00    +0.000 C 
BRANCH  27  29
ATOM     28  C   UNL     1       2.406   7.158  19.157  0.00  0.00    +0.000 C 
ATOM     29  C   UNL     1       1.717   8.319  19.874  0.00  0.00    +0.000 C 
ENDBRANCH  27  29
ENDBRANCH  26  27
ENDBRANCH  25  26
ENDBRANCH   1  25
TORSDOF 6
ENDMDL
MODEL 6
REMARK VINA RESULT:      -6.0      2.775      6.020
REMARK  Name = 
REMARK  9 active torsions:
REMARK  status: ('A' for Active; 'I' for Inactive)
REMARK    1  A    between atoms: C_1  and  C_2
REMARK    2  A    between atoms: C_2  and  C_3
REMARK    3  A    between atoms: C_3  and  C_4
REMARK    4  A    between atoms: C_4  and  C_5
REMARK    5  A    between atoms: C_5  and  N_6
REMARK    6  A    between atoms: C_11  and  O_12
REMARK    7  A    between atoms: O_12  and  C_13
REMARK    8  A    between atoms: C_14  and  O_15
REMARK    9  A    between atoms: O_15  and  C_16
REMARK                            x       y       z     vdW  Elec       q    Type
REMARK                         _______ _______ _______ _____ _____    ______ ____
ROOT
ATOM      1  N   UNL     1       1.190  12.284  18.650  0.00  0.00    +0.000 NA
ATOM      2  C   UNL     1       1.993  12.770  19.806  0.00  0.00    +0.000 C 
ATOM      3  C   UNL     1       1.644  14.194  20.177  0.00  0.00    +0.000 C 
ATOM      4  C   UNL     1       0.289  14.102  20.809  0.00  0.00    +0.000 A 
ATOM      5  C   UNL     1       0.058  14.768  22.011  0.00  0.00    +0.000 A 
ATOM      6  C   UNL     1      -1.106  14.520  22.715  0.00  0.00    +0.000 A 
ATOM      7  C   UNL     1      -2.106  13.713  22.140  0.00  0.00    +0.000 A 
ATOM      8  C   UNL     1      -1.939  13.143  20.824  0.00  0.00    +0.000 A 
ATOM      9  C   UNL     1      -0.674  13.267  20.201  0.00  0.00    +0.000 A 
ATOM     10  C   UNL     1      -0.291  12.655  18.822  0.00  0.00    +0.000 C 
ATOM     11  C   UNL     1      -1.450  11.859  18.145  0.00  0.00    +0.000 C 
ATOM     12  C   UNL     1      -2.860  11.997  18.746  0.00  0.00    +0.000 A 
ATOM     13  C   UNL     1      -3.974  11.562  17.974  0.00  0.00    +0.000 A 
ATOM     14  C   UNL     1      -5.256  11.643  18.493  0.00  0.00    +0.000 A 
ATOM     15  C   UNL     1      -5.467  12.161  19.743  0.00  0.00    +0.000 A 
ATOM     16  C   UNL     1      -4.411  12.624  20.497  0.00  0.00    +0.000 A 
ATOM     17  C   UNL     1      -3.078  12.544  20.038  0.00  0.00    +0.000 A 
ATOM     18  O   UNL     1      -6.767  12.188  20.108  0.00  0.00    +0.000 OA
ATOM     19  C   UNL     1      -7.377  11.591  18.951  0.00  0.00    +0.000 C 
ATOM     20  O   UNL     1      -6.428  11.290  17.902  0.00  0.00    +0.000 OA
ENDROOT
BRANCH   6  21
ATOM     21  O   UNL     1      -1.313  15.064  23.957  0.00  0.00    +0.000 OA
ATOM     22  C   UNL     1      -0.601  16.265  24.229  0.00  0.00    +0.000 C 
ENDBRANCH   6  21
BRANCH   7  23
ATOM     23  O   UNL     1      -3.188  13.298  22.892  0.00  0.00    +0.000 OA
ATOM     24  C   UNL     1      -3.028  12.130  23.698  0.00  0.00    +0.000 C 
ENDBRANCH   7  23
BRANCH   1  25
ATOM     25  C   UNL     1       1.762  10.963  18.327  0.00  0.00    +0.000 C 
BRANCH  25  26
ATOM     26  C   UNL     1       1.139   9.596  18.649  0.00  0.00    +0.000 C 
BRANCH  26  27
ATOM     27  C   UNL     1       0.973   9.171  20.114  0.00  0.00    +0.000 C 
BRANCH  27  29
ATOM     28  C   UNL     1      -0.003  10.329  22.235  0.00  0.00    +0.000 C 
ATOM     29  C   UNL     1      -0.265   9.623  20.905  0.00  0.00    +0.000 C 
ENDBRANCH  27  29
ENDBRANCH  26  27
ENDBRANCH  25  26
ENDBRANCH   1  25
TORSDOF 6
ENDMDL
MODEL 7
REMARK VINA RESULT:      -6.0      3.419      6.648
REMARK  Name = 
REMARK  9 active torsions:
REMARK  status: ('A' for Active; 'I' for Inactive)
REMARK    1  A    between atoms: C_1  and  C_2
REMARK    2  A    between atoms: C_2  and  C_3
REMARK    3  A    between atoms: C_3  and  C_4
REMARK    4  A    between atoms: C_4  and  C_5
REMARK    5  A    between atoms: C_5  and  N_6
REMARK    6  A    between atoms: C_11  and  O_12
REMARK    7  A    between atoms: O_12  and  C_13
REMARK    8  A    between atoms: C_14  and  O_15
REMARK    9  A    between atoms: O_15  and  C_16
REMARK                            x       y       z     vdW  Elec       q    Type
REMARK                         _______ _______ _______ _____ _____    ______ ____
ROOT
ATOM      1  N   UNL     1       1.201   9.734  20.721  0.00  0.00    +0.000 NA
ATOM      2  C   UNL     1       0.198   8.970  21.516  0.00  0.00    +0.000 C 
ATOM      3  C   UNL     1      -0.045   9.598  22.869  0.00  0.00    +0.000 C 
ATOM      4  C   UNL     1      -0.824  10.844  22.579  0.00  0.00    +0.000 A 
ATOM      5  C   UNL     1      -1.961  11.122  23.334  0.00  0.00    +0.000 A 
ATOM      6  C   UNL     1      -2.808  12.142  22.942  0.00  0.00    +0.000 A 
ATOM      7  C   UNL     1      -2.436  12.979  21.873  0.00  0.00    +0.000 A 
ATOM      8  C   UNL     1      -1.183  12.793  21.181  0.00  0.00    +0.000 A 
ATOM      9  C   UNL     1      -0.419  11.642  21.486  0.00  0.00    +0.000 A 
ATOM     10  C   UNL     1       0.915  11.242  20.791  0.00  0.00    +0.000 C 
ATOM     11  C   UNL     1       1.372  12.245  19.685  0.00  0.00    +0.000 C 
ATOM     12  C   UNL     1       0.644  13.598  19.602  0.00  0.00    +0.000 A 
ATOM     13  C   UNL     1       1.240  14.644  18.842  0.00  0.00    +0.000 A 
ATOM     14  C   UNL     1       0.601  15.867  18.719  0.00  0.00    +0.000 A 
ATOM     15  C   UNL     1      -0.599  16.088  19.342  0.00  0.00    +0.000 A 
ATOM     16  C   UNL     1      -1.180  15.106  20.113  0.00  0.00    +0.000 A 
ATOM     17  C   UNL     1      -0.593  13.830  20.257  0.00  0.00    +0.000 A 
ATOM     18  O   UNL     1      -1.094  17.329  19.142  0.00  0.00    +0.000 OA
ATOM     19  C   UNL     1      -0.083  17.880  18.282  0.00  0.00    +0.000 C 
ATOM     20  O   UNL     1       1.020  16.974  18.051  0.00  0.00    +0.000 OA
ENDROOT
BRANCH   6  21
ATOM     21  O   UNL     1      -3.996  12.365  23.590  0.00  0.00    +0.000 OA
ATOM     22  C   UNL     1      -3.936  13.263  24.691  0.00  0.00    +0.000 C 
ENDBRANCH   6  21
BRANCH   7  23
ATOM     23  O   UNL     1      -3.340  13.878  21.342  0.00  0.00    +0.000 OA
ATOM     24  C   UNL     1      -4.346  13.371  20.464  0.00  0.00    +0.000 C 
ENDBRANCH   7  23
BRANCH   1  25
ATOM     25  C   UNL     1       1.433   8.910  19.520  0.00  0.00    +0.000 C 
BRANCH  25  26
ATOM     26  C   UNL     1       2.157   7.555  19.469  0.00  0.00    +0.000 C 
BRANCH  26  27
ATOM     27  C   UNL     1       2.910   7.153  18.194  0.00  0.00    +0.000 C 
BRANCH  27  29
ATOM     28  C   UNL     1       1.914   4.762  17.914  0.00  0.00    +0.000 C 
ATOM     29  C   UNL     1       3.145   5.667  17.882  0.00  0.00    +0.000 C 
ENDBRANCH  27  29
ENDBRANCH  26  27
ENDBRANCH  25  26
ENDBRANCH   1  25
TORSDOF 6
ENDMDL
MODEL 8
REMARK VINA RESULT:      -6.0      3.323      5.925
REMARK  Name = 
REMARK  9 active torsions:
REMARK  status: ('A' for Active; 'I' for Inactive)
REMARK    1  A    between atoms: C_1  and  C_2
REMARK    2  A    between atoms: C_2  and  C_3
REMARK    3  A    between atoms: C_3  and  C_4
REMARK    4  A    between atoms: C_4  and  C_5
REMARK    5  A    between atoms: C_5  and  N_6
REMARK    6  A    between atoms: C_11  and  O_12
REMARK    7  A    between atoms: O_12  and  C_13
REMARK    8  A    between atoms: C_14  and  O_15
REMARK    9  A    between atoms: O_15  and  C_16
REMARK                            x       y       z     vdW  Elec       q    Type
REMARK                         _______ _______ _______ _____ _____    ______ ____
ROOT
ATOM      1  N   UNL     1       0.916  11.779  20.201  0.00  0.00    +0.000 NA
ATOM      2  C   UNL     1       1.155  11.359  18.792  0.00  0.00    +0.000 C 
ATOM      3  C   UNL     1       0.408  10.091  18.447  0.00  0.00    +0.000 C 
ATOM      4  C   UNL     1      -1.029  10.504  18.364  0.00  0.00    +0.000 A 
ATOM      5  C   UNL     1      -1.791  10.088  17.275  0.00  0.00    +0.000 A 
ATOM      6  C   UNL     1      -3.044  10.634  17.070  0.00  0.00    +0.000 A 
ATOM      7  C   UNL     1      -3.594  11.491  18.042  0.00  0.00    +0.000 A 
ATOM      8  C   UNL     1      -2.872  11.808  19.252  0.00  0.00    +0.000 A 
ATOM      9  C   UNL     1      -1.528  11.378  19.356  0.00  0.00    +0.000 A 
ATOM     10  C   UNL     1      -0.578  11.689  20.549  0.00  0.00    +0.000 C 
ATOM     11  C   UNL     1      -1.242  12.546  21.673  0.00  0.00    +0.000 C 
ATOM     12  C   UNL     1      -2.768  12.740  21.618  0.00  0.00    +0.000 A 
ATOM     13  C   UNL     1      -3.433  13.222  22.780  0.00  0.00    +0.000 A 
ATOM     14  C   UNL     1      -4.802  13.438  22.760  0.00  0.00    +0.000 A 
ATOM     15  C   UNL     1      -5.529  13.170  21.632  0.00  0.00    +0.000 A 
ATOM     16  C   UNL     1      -4.917  12.667  20.505  0.00  0.00    +0.000 A 
ATOM     17  C   UNL     1      -3.523  12.451  20.452  0.00  0.00    +0.000 A 
ATOM     18  O   UNL     1      -6.851  13.416  21.767  0.00  0.00    +0.000 OA
ATOM     19  C   UNL     1      -6.890  13.911  23.115  0.00  0.00    +0.000 C 
ATOM     20  O   UNL     1      -5.600  13.879  23.768  0.00  0.00    +0.000 OA
ENDROOT
BRANCH   6  21
ATOM     21  O   UNL     1      -3.771  10.338  15.945  0.00  0.00    +0.000 OA
ATOM     22  C   UNL     1      -3.019  10.189  14.748  0.00  0.00    +0.000 C 
ENDBRANCH   6  21
BRANCH   7  23
ATOM     23  O   UNL     1      -4.754  12.194  17.779  0.00  0.00    +0.000 OA
ATOM     24  C   UNL     1      -5.979  11.461  17.725  0.00  0.00    +0.000 C 
ENDBRANCH   7  23
BRANCH   1  25
ATOM     25  C   UNL     1       1.828  12.918  20.412  0.00  0.00    +0.000 C 
BRANCH  25  26
ATOM     26  C   UNL     1       1.518  14.398  20.143  0.00  0.00    +0.000 C 
BRANCH  26  27
ATOM     27  C   UNL     1       1.847  14.998  18.769  0.00  0.00    +0.000 C 
BRANCH  27  29
ATOM     28  C   UNL     1       4.357  15.127  18.081  0.00  0.00    +0.000 C 
ATOM     29  C   UNL     1       3.007  14.423  17.942  0.00  0.00    +0.000 C 
ENDBRANCH  27  29
ENDBRANCH  26  27
ENDBRANCH  25  26
ENDBRANCH   1  25
TORSDOF 6
ENDMDL
MODEL 9
REMARK VINA RESULT:      -5.9      3.062      5.378
REMARK  Name = 
REMARK  9 active torsions:
REMARK  status: ('A' for Active; 'I' for Inactive)
REMARK    1  A    between atoms: C_1  and  C_2
REMARK    2  A    between atoms: C_2  and  C_3
REMARK    3  A    between atoms: C_3  and  C_4
REMARK    4  A    between atoms: C_4  and  C_5
REMARK    5  A    between atoms: C_5  and  N_6
REMARK    6  A    between atoms: C_11  and  O_12
REMARK    7  A    between atoms: O_12  and  C_13
REMARK    8  A    between atoms: C_14  and  O_15
REMARK    9  A    between atoms: O_15  and  C_16
REMARK                            x       y       z     vdW  Elec       q    Type
REMARK                         _______ _______ _______ _____ _____    ______ ____
ROOT
ATOM      1  N   UNL     1       1.119  10.462  20.026  0.00  0.00    +0.000 NA
ATOM      2  C   UNL     1       0.340   9.494  20.847  0.00  0.00    +0.000 C 
ATOM      3  C   UNL     1       0.246   9.926  22.292  0.00  0.00    +0.000 C 
ATOM      4  C   UNL     1      -0.697  11.091  22.282  0.00  0.00    +0.000 A 
ATOM      5  C   UNL     1      -1.725  11.137  23.221  0.00  0.00    +0.000 A 
ATOM      6  C   UNL     1      -2.726  12.081  23.090  0.00  0.00    +0.000 A 
ATOM      7  C   UNL     1      -2.616  13.075  22.099  0.00  0.00    +0.000 A 
ATOM      8  C   UNL     1      -1.474  13.128  21.219  0.00  0.00    +0.000 A 
ATOM      9  C   UNL     1      -0.554  12.053  21.258  0.00  0.00    +0.000 A 
ATOM     10  C   UNL     1       0.690  11.905  20.334  0.00  0.00    +0.000 C 
ATOM     11  C   UNL     1       0.860  13.077  19.317  0.00  0.00    +0.000 C 
ATOM     12  C   UNL     1      -0.012  14.330  19.517  0.00  0.00    +0.000 A 
ATOM     13  C   UNL     1       0.344  15.522  18.825  0.00  0.00    +0.000 A 
ATOM     14  C   UNL     1      -0.433  16.661  18.956  0.00  0.00    +0.000 A 
ATOM     15  C   UNL     1      -1.537  16.658  19.766  0.00  0.00    +0.000 A 
ATOM     16  C   UNL     1      -1.883  15.530  20.476  0.00  0.00    +0.000 A 
ATOM     17  C   UNL     1      -1.149  14.328  20.365  0.00  0.00    +0.000 A 
ATOM     18  O   UNL     1      -2.186  17.843  19.804  0.00  0.00    +0.000 OA
ATOM     19  C   UNL     1      -1.386  18.611  18.890  0.00  0.00    +0.000 C 
ATOM     20  O   UNL     1      -0.242  17.881  18.388  0.00  0.00    +0.000 OA
ENDROOT
BRANCH   6  21
ATOM     21  O   UNL     1      -3.815  12.079  23.924  0.00  0.00    +0.000 OA
ATOM     22  C   UNL     1      -3.918  13.191  24.804  0.00  0.00    +0.000 C 
ENDBRANCH   6  21
BRANCH   7  23
ATOM     23  O   UNL     1      -3.683  13.910  21.826  0.00  0.00    +0.000 OA
ATOM     24  C   UNL     1      -4.739  13.395  21.013  0.00  0.00    +0.000 C 
ENDBRANCH   7  23
BRANCH   1  25
ATOM     25  C   UNL     1       1.247   9.816  18.707  0.00  0.00    +0.000 C 
BRANCH  25  26
ATOM     26  C   UNL     1       0.095   9.417  17.771  0.00  0.00    +0.000 C 
BRANCH  26  27
ATOM     27  C   UNL     1      -1.051  10.407  17.525  0.00  0.00    +0.000 C 
BRANCH  27  29
ATOM     28  C   UNL     1      -3.324  11.489  18.196  0.00  0.00    +0.000 C 
ATOM     29  C   UNL     1      -2.262  10.424  18.469  0.00  0.00    +0.000 C 
ENDBRANCH  27  29
ENDBRANCH  26  27
ENDBRANCH  25  26
ENDBRANCH   1  25
TORSDOF 6
ENDMDL
