MODEL 1
REMARK VINA RESULT:      -7.6      0.000      0.000
REMARK  Name = 
REMARK  8 active torsions:
REMARK  status: ('A' for Active; 'I' for Inactive)
REMARK    1  A    between atoms: C_8  and  O_9
REMARK    2  A    between atoms: O_9  and  C_10
REMARK    3  A    between atoms: C_12  and  O_13
REMARK    4  A    between atoms: O_13  and  C_14
REMARK    5  A    between atoms: C_16  and  C_17
REMARK    6  A    between atoms: C_17  and  C_18
REMARK    7  A    between atoms: C_18  and  C_19
REMARK    8  A    between atoms: C_19  and  C_20
REMARK                            x       y       z     vdW  Elec       q    Type
REMARK                         _______ _______ _______ _____ _____    ______ ____
ROOT
ATOM      1  C   UNL     1       7.835   7.276  17.833  0.00  0.00    +0.000 C 
ATOM      2  C   UNL     1       6.835   6.379  17.723  0.00  0.00    +0.000 C 
ATOM      3  C   UNL     1       7.109   4.986  18.145  0.00  0.00    +0.000 C 
ATOM      4  O   UNL     1       8.185   4.429  17.964  0.00  0.00    +0.000 OA
ATOM      5  O   UNL     1       6.053   4.365  18.800  0.00  0.00    +0.000 OA
ATOM      6  C   UNL     1       4.787   4.973  18.951  0.00  0.00    +0.000 A 
ATOM      7  C   UNL     1       3.904   4.349  19.832  0.00  0.00    +0.000 A 
ATOM      8  C   UNL     1       2.613   4.849  19.960  0.00  0.00    +0.000 A 
ATOM      9  C   UNL     1       2.235   5.981  19.229  0.00  0.00    +0.000 A 
ATOM     10  C   UNL     1       3.139   6.624  18.375  0.00  0.00    +0.000 A 
ATOM     11  C   UNL     1       4.436   6.104  18.216  0.00  0.00    +0.000 A 
ATOM     12  C   UNL     1       5.440   6.676  17.239  0.00  0.00    +0.000 C 
ENDROOT
BRANCH   8  13
ATOM     13  O   UNL     1       1.624   4.327  20.749  0.00  0.00    +0.000 OA
ATOM     14  C   UNL     1       1.967   3.195  21.539  0.00  0.00    +0.000 C 
ENDBRANCH   8  13
BRANCH  10  15
ATOM     15  O   UNL     1       2.845   7.760  17.667  0.00  0.00    +0.000 OA
ATOM     16  C   UNL     1       1.937   8.680  18.267  0.00  0.00    +0.000 C 
ENDBRANCH  10  15
BRANCH  12  17
ATOM     17  C   UNL     1       5.256   6.122  15.797  0.00  0.00    +0.000 C 
BRANCH  17  18
ATOM     18  C   UNL     1       4.971   4.617  15.755  0.00  0.00    +0.000 C 
BRANCH  18  19
ATOM     19  C   UNL     1       5.960   3.826  14.907  0.00  0.00    +0.000 C 
ATOM     20  C   UNL     1       7.000   4.769  14.312  0.00  0.00    +0.000 C 
ENDBRANCH  18  19
ENDBRANCH  17  18
ENDBRANCH  12  17
TORSDOF 5
ENDMDL
MODEL 2
REMARK VINA RESULT:      -7.2      1.712      5.770
REMARK  Name = 
REMARK  8 active torsions:
REMARK  status: ('A' for Active; 'I' for Inactive)
REMARK    1  A    between atoms: C_8  and  O_9
REMARK    2  A    between atoms: O_9  and  C_10
REMARK    3  A    between atoms: C_12  and  O_13
REMARK    4  A    between atoms: O_13  and  C_14
REMARK    5  A    between atoms: C_16  and  C_17
REMARK    6  A    between atoms: C_17  and  C_18
REMARK    7  A    between atoms: C_18  and  C_19
REMARK    8  A    between atoms: C_19  and  C_20
REMARK                            x       y       z     vdW  Elec       q    Type
REMARK                         _______ _______ _______ _____ _____    ______ ____
ROOT
ATOM      1  C   UNL     1       2.066   7.196  20.452  0.00  0.00    +0.000 C 
ATOM      2  C   UNL     1       2.370   6.800  19.200  0.00  0.00    +0.000 C 
ATOM      3  C   UNL     1       2.389   7.831  18.137  0.00  0.00    +0.000 C 
ATOM      4  O   UNL     1       1.598   8.765  18.094  0.00  0.00    +0.000 OA
ATOM      5  O   UNL     1       3.404   7.675  17.203  0.00  0.00    +0.000 OA
ATOM      6  C   UNL     1       4.276   6.564  17.203  0.00  0.00    +0.000 A 
ATOM      7  C   UNL     1       5.391   6.653  16.371  0.00  0.00    +0.000 A 
ATOM      8  C   UNL     1       6.242   5.559  16.261  0.00  0.00    +0.000 A 
ATOM      9  C   UNL     1       5.981   4.404  17.008  0.00  0.00    +0.000 A 
ATOM     10  C   UNL     1       4.881   4.335  17.870  0.00  0.00    +0.000 A 
ATOM     11  C   UNL     1       3.998   5.426  17.960  0.00  0.00    +0.000 A 
ATOM     12  C   UNL     1       2.731   5.397  18.788  0.00  0.00    +0.000 C 
ENDROOT
BRANCH   8  13
ATOM     13  O   UNL     1       7.349   5.479  15.461  0.00  0.00    +0.000 OA
ATOM     14  C   UNL     1       7.200   4.782  14.230  0.00  0.00    +0.000 C 
ENDBRANCH   8  13
BRANCH  10  15
ATOM     15  O   UNL     1       4.596   3.252  18.661  0.00  0.00    +0.000 OA
ATOM     16  C   UNL     1       4.081   2.094  18.010  0.00  0.00    +0.000 C 
ENDBRANCH  10  15
BRANCH  12  17
ATOM     17  C   UNL     1       1.536   4.748  18.031  0.00  0.00    +0.000 C 
BRANCH  17  18
ATOM     18  C   UNL     1       1.004   3.480  18.707  0.00  0.00    +0.000 C 
BRANCH  18  19
ATOM     19  C   UNL     1       0.822   3.615  20.214  0.00  0.00    +0.000 C 
ATOM     20  C   UNL     1       1.698   2.595  20.934  0.00  0.00    +0.000 C 
ENDBRANCH  18  19
ENDBRANCH  17  18
ENDBRANCH  12  17
TORSDOF 5
ENDMDL
MODEL 3
REMARK VINA RESULT:      -7.1      1.948      5.165
REMARK  Name = 
REMARK  8 active torsions:
REMARK  status: ('A' for Active; 'I' for Inactive)
REMARK    1  A    between atoms: C_8  and  O_9
REMARK    2  A    between atoms: O_9  and  C_10
REMARK    3  A    between atoms: C_12  and  O_13
REMARK    4  A    between atoms: O_13  and  C_14
REMARK    5  A    between atoms: C_16  and  C_17
REMARK    6  A    between atoms: C_17  and  C_18
REMARK    7  A    between atoms: C_18  and  C_19
REMARK    8  A    between atoms: C_19  and  C_20
REMARK                            x       y       z     vdW  Elec       q    Type
REMARK                         _______ _______ _______ _____ _____    ______ ____
ROOT
ATOM      1  C   UNL     1       2.728   2.121  18.239  0.00  0.00    +0.000 C 
ATOM      2  C   UNL     1       3.477   3.113  18.758  0.00  0.00    +0.000 C 
ATOM      3  C   UNL     1       4.751   2.742  19.417  0.00  0.00    +0.000 C 
ATOM      4  O   UNL     1       4.889   1.726  20.087  0.00  0.00    +0.000 OA
ATOM      5  O   UNL     1       5.797   3.626  19.184  0.00  0.00    +0.000 OA
ATOM      6  C   UNL     1       5.630   4.834  18.473  0.00  0.00    +0.000 A 
ATOM      7  C   UNL     1       6.798   5.501  18.104  0.00  0.00    +0.000 A 
ATOM      8  C   UNL     1       6.701   6.738  17.476  0.00  0.00    +0.000 A 
ATOM      9  C   UNL     1       5.438   7.274  17.200  0.00  0.00    +0.000 A 
ATOM     10  C   UNL     1       4.270   6.582  17.539  0.00  0.00    +0.000 A 
ATOM     11  C   UNL     1       4.361   5.346  18.204  0.00  0.00    +0.000 A 
ATOM     12  C   UNL     1       3.151   4.582  18.696  0.00  0.00    +0.000 C 
ENDROOT
BRANCH   8  13
ATOM     13  O   UNL     1       7.749   7.528  17.091  0.00  0.00    +0.000 OA
ATOM     14  C   UNL     1       7.947   8.731  17.824  0.00  0.00    +0.000 C 
ENDBRANCH   8  13
BRANCH  10  15
ATOM     15  O   UNL     1       3.005   7.032  17.257  0.00  0.00    +0.000 OA
ATOM     16  C   UNL     1       2.578   8.218  17.920  0.00  0.00    +0.000 C 
ENDBRANCH  10  15
BRANCH  12  17
ATOM     17  C   UNL     1       2.661   5.070  20.090  0.00  0.00    +0.000 C 
BRANCH  17  18
ATOM     18  C   UNL     1       1.179   4.779  20.351  0.00  0.00    +0.000 C 
BRANCH  18  19
ATOM     19  C   UNL     1       0.896   3.338  20.757  0.00  0.00    +0.000 C 
ATOM     20  C   UNL     1       1.856   2.915  21.863  0.00  0.00    +0.000 C 
ENDBRANCH  18  19
ENDBRANCH  17  18
ENDBRANCH  12  17
TORSDOF 5
ENDMDL
MODEL 4
REMARK VINA RESULT:      -6.8      1.652      3.871
REMARK  Name = 
REMARK  8 active torsions:
REMARK  status: ('A' for Active; 'I' for Inactive)
REMARK    1  A    between atoms: C_8  and  O_9
REMARK    2  A    between atoms: O_9  and  C_10
REMARK    3  A    between atoms: C_12  and  O_13
REMARK    4  A    between atoms: O_13  and  C_14
REMARK    5  A    between atoms: C_16  and  C_17
REMARK    6  A    between atoms: C_17  and  C_18
REMARK    7  A    between atoms: C_18  and  C_19
REMARK    8  A    between atoms: C_19  and  C_20
REMARK                            x       y       z     vdW  Elec       q    Type
REMARK                         _______ _______ _______ _____ _____    ______ ____
ROOT
ATOM      1  C   UNL     1       5.898   3.671  14.813  0.00  0.00    +0.000 C 
ATOM      2  C   UNL     1       5.799   4.544  15.835  0.00  0.00    +0.000 C 
ATOM      3  C   UNL     1       5.425   5.941  15.515  0.00  0.00    +0.000 C 
ATOM      4  O   UNL     1       5.810   6.525  14.509  0.00  0.00    +0.000 OA
ATOM      5  O   UNL     1       4.569   6.532  16.435  0.00  0.00    +0.000 OA
ATOM      6  C   UNL     1       4.177   5.893  17.632  0.00  0.00    +0.000 A 
ATOM      7  C   UNL     1       3.133   6.490  18.338  0.00  0.00    +0.000 A 
ATOM      8  C   UNL     1       2.758   5.958  19.566  0.00  0.00    +0.000 A 
ATOM      9  C   UNL     1       3.411   4.820  20.055  0.00  0.00    +0.000 A 
ATOM     10  C   UNL     1       4.432   4.204  19.323  0.00  0.00    +0.000 A 
ATOM     11  C   UNL     1       4.840   4.756  18.095  0.00  0.00    +0.000 A 
ATOM     12  C   UNL     1       6.001   4.215  17.290  0.00  0.00    +0.000 C 
ENDROOT
BRANCH   8  13
ATOM     13  O   UNL     1       1.784   6.451  20.391  0.00  0.00    +0.000 OA
ATOM     14  C   UNL     1       1.699   7.867  20.506  0.00  0.00    +0.000 C 
ENDBRANCH   8  13
BRANCH  10  15
ATOM     15  O   UNL     1       5.080   3.064  19.725  0.00  0.00    +0.000 OA
ATOM     16  C   UNL     1       4.303   2.087  20.411  0.00  0.00    +0.000 C 
ENDBRANCH  10  15
BRANCH  12  17
ATOM     17  C   UNL     1       7.373   4.772  17.770  0.00  0.00    +0.000 C 
BRANCH  17  18
ATOM     18  C   UNL     1       7.250   5.823  18.877  0.00  0.00    +0.000 C 
BRANCH  18  19
ATOM     19  C   UNL     1       8.156   7.033  18.682  0.00  0.00    +0.000 C 
ATOM     20  C   UNL     1       7.664   7.861  17.500  0.00  0.00    +0.000 C 
ENDBRANCH  18  19
ENDBRANCH  17  18
ENDBRANCH  12  17
TORSDOF 5
ENDMDL
MODEL 5
REMARK VINA RESULT:      -6.8      1.830      5.937
REMARK  Name = 
REMARK  8 active torsions:
REMARK  status: ('A' for Active; 'I' for Inactive)
REMARK    1  A    between atoms: C_8  and  O_9
REMARK    2  A    between atoms: O_9  and  C_10
REMARK    3  A    between atoms: C_12  and  O_13
REMARK    4  A    between atoms: O_13  and  C_14
REMARK    5  A    between atoms: C_16  and  C_17
REMARK    6  A    between atoms: C_17  and  C_18
REMARK    7  A    between atoms: C_18  and  C_19
REMARK    8  A    between atoms: C_19  and  C_20
REMARK                            x       y       z     vdW  Elec       q    Type
REMARK                         _______ _______ _______ _____ _____    ______ ____
ROOT
ATOM      1  C   UNL     1       2.593   5.845  19.793  0.00  0.00    +0.000 C 
ATOM      2  C   UNL     1       3.182   4.914  19.018  0.00  0.00    +0.000 C 
ATOM      3  C   UNL     1       2.388   4.339  17.907  0.00  0.00    +0.000 C 
ATOM      4  O   UNL     1       1.188   4.110  17.989  0.00  0.00    +0.000 OA
ATOM      5  O   UNL     1       3.110   4.112  16.743  0.00  0.00    +0.000 OA
ATOM      6  C   UNL     1       4.506   4.306  16.661  0.00  0.00    +0.000 A 
ATOM      7  C   UNL     1       5.060   4.278  15.382  0.00  0.00    +0.000 A 
ATOM      8  C   UNL     1       6.440   4.378  15.241  0.00  0.00    +0.000 A 
ATOM      9  C   UNL     1       7.241   4.536  16.378  0.00  0.00    +0.000 A 
ATOM     10  C   UNL     1       6.674   4.603  17.656  0.00  0.00    +0.000 A 
ATOM     11  C   UNL     1       5.283   4.468  17.809  0.00  0.00    +0.000 A 
ATOM     12  C   UNL     1       4.600   4.426  19.158  0.00  0.00    +0.000 C 
ENDROOT
BRANCH   8  13
ATOM     13  O   UNL     1       7.133   4.327  14.062  0.00  0.00    +0.000 OA
ATOM     14  C   UNL     1       6.454   3.768  12.944  0.00  0.00    +0.000 C 
ENDBRANCH   8  13
BRANCH  10  15
ATOM     15  O   UNL     1       7.398   4.801  18.804  0.00  0.00    +0.000 OA
ATOM     16  C   UNL     1       7.917   6.109  19.023  0.00  0.00    +0.000 C 
ENDBRANCH  10  15
BRANCH  12  17
ATOM     17  C   UNL     1       4.606   3.003  19.789  0.00  0.00    +0.000 C 
BRANCH  17  18
ATOM     18  C   UNL     1       3.203   2.444  20.043  0.00  0.00    +0.000 C 
BRANCH  18  19
ATOM     19  C   UNL     1       2.762   2.524  21.500  0.00  0.00    +0.000 C 
ATOM     20  C   UNL     1       1.265   2.806  21.572  0.00  0.00    +0.000 C 
ENDBRANCH  18  19
ENDBRANCH  17  18
ENDBRANCH  12  17
TORSDOF 5
ENDMDL
MODEL 6
REMARK VINA RESULT:      -6.7      1.648      5.518
REMARK  Name = 
REMARK  8 active torsions:
REMARK  status: ('A' for Active; 'I' for Inactive)
REMARK    1  A    between atoms: C_8  and  O_9
REMARK    2  A    between atoms: O_9  and  C_10
REMARK    3  A    between atoms: C_12  and  O_13
REMARK    4  A    between atoms: O_13  and  C_14
REMARK    5  A    between atoms: C_16  and  C_17
REMARK    6  A    between atoms: C_17  and  C_18
REMARK    7  A    between atoms: C_18  and  C_19
REMARK    8  A    between atoms: C_19  and  C_20
REMARK                            x       y       z     vdW  Elec       q    Type
REMARK                         _______ _______ _______ _____ _____    ______ ____
ROOT
ATOM      1  C   UNL     1       1.822   7.981  20.556  0.00  0.00    +0.000 C 
ATOM      2  C   UNL     1       2.194   7.258  19.483  0.00  0.00    +0.000 C 
ATOM      3  C   UNL     1       2.266   7.951  18.175  0.00  0.00    +0.000 C 
ATOM      4  O   UNL     1       1.475   8.821  17.833  0.00  0.00    +0.000 OA
ATOM      5  O   UNL     1       3.331   7.559  17.375  0.00  0.00    +0.000 OA
ATOM      6  C   UNL     1       4.206   6.508  17.730  0.00  0.00    +0.000 A 
ATOM      7  C   UNL     1       5.364   6.383  16.963  0.00  0.00    +0.000 A 
ATOM      8  C   UNL     1       6.223   5.317  17.207  0.00  0.00    +0.000 A 
ATOM      9  C   UNL     1       5.927   4.412  18.233  0.00  0.00    +0.000 A 
ATOM     10  C   UNL     1       4.782   4.566  19.024  0.00  0.00    +0.000 A 
ATOM     11  C   UNL     1       3.891   5.622  18.760  0.00  0.00    +0.000 A 
ATOM     12  C   UNL     1       2.582   5.803  19.498  0.00  0.00    +0.000 C 
ENDROOT
BRANCH   8  13
ATOM     13  O   UNL     1       7.372   5.038  16.519  0.00  0.00    +0.000 OA
ATOM     14  C   UNL     1       7.248   4.862  15.112  0.00  0.00    +0.000 C 
ENDBRANCH   8  13
BRANCH  10  15
ATOM     15  O   UNL     1       4.459   3.742  20.070  0.00  0.00    +0.000 OA
ATOM     16  C   UNL     1       4.659   2.344  19.878  0.00  0.00    +0.000 C 
ENDBRANCH  10  15
BRANCH  12  17
ATOM     17  C   UNL     1       1.432   4.946  18.894  0.00  0.00    +0.000 C 
BRANCH  17  18
ATOM     18  C   UNL     1       1.040   3.750  19.768  0.00  0.00    +0.000 C 
BRANCH  18  19
ATOM     19  C   UNL     1       0.897   2.443  18.997  0.00  0.00    +0.000 C 
ATOM     20  C   UNL     1       1.958   2.370  17.905  0.00  0.00    +0.000 C 
ENDBRANCH  18  19
ENDBRANCH  17  18
ENDBRANCH  12  17
TORSDOF 5
ENDMDL
MODEL 7
REMARK VINA RESULT:      -6.7      1.954      5.408
REMARK  Name = 
REMARK  8 active torsions:
REMARK  status: ('A' for Active; 'I' for Inactive)
REMARK    1  A    between atoms: C_8  and  O_9
REMARK    2  A    between atoms: O_9  and  C_10
REMARK    3  A    between atoms: C_12  and  O_13
REMARK    4  A    between atoms: O_13  and  C_14
REMARK    5  A    between atoms: C_16  and  C_17
REMARK    6  A    between atoms: C_17  and  C_18
REMARK    7  A    between atoms: C_18  and  C_19
REMARK    8  A    between atoms: C_19  and  C_20
REMARK                            x       y       z     vdW  Elec       q    Type
REMARK                         _______ _______ _______ _____ _____    ______ ____
ROOT
ATOM      1  C   UNL     1       1.899   2.318  19.061  0.00  0.00    +0.000 C 
ATOM      2  C   UNL     1       2.797   3.268  19.390  0.00  0.00    +0.000 C 
ATOM      3  C   UNL     1       4.120   2.824  19.886  0.00  0.00    +0.000 C 
ATOM      4  O   UNL     1       4.272   1.844  20.606  0.00  0.00    +0.000 OA
ATOM      5  O   UNL     1       5.188   3.590  19.440  0.00  0.00    +0.000 OA
ATOM      6  C   UNL     1       5.017   4.761  18.668  0.00  0.00    +0.000 A 
ATOM      7  C   UNL     1       6.168   5.291  18.086  0.00  0.00    +0.000 A 
ATOM      8  C   UNL     1       6.080   6.489  17.386  0.00  0.00    +0.000 A 
ATOM      9  C   UNL     1       4.839   7.122  17.253  0.00  0.00    +0.000 A 
ATOM     10  C   UNL     1       3.681   6.564  17.807  0.00  0.00    +0.000 A 
ATOM     11  C   UNL     1       3.768   5.370  18.546  0.00  0.00    +0.000 A 
ATOM     12  C   UNL     1       2.587   4.754  19.263  0.00  0.00    +0.000 C 
ENDROOT
BRANCH   8  13
ATOM     13  O   UNL     1       7.121   7.152  16.795  0.00  0.00    +0.000 OA
ATOM     14  C   UNL     1       7.787   8.131  17.584  0.00  0.00    +0.000 C 
ENDBRANCH   8  13
BRANCH  10  15
ATOM     15  O   UNL     1       2.430   7.110  17.675  0.00  0.00    +0.000 OA
ATOM     16  C   UNL     1       2.328   8.526  17.789  0.00  0.00    +0.000 C 
ENDBRANCH  10  15
BRANCH  12  17
ATOM     17  C   UNL     1       2.352   5.373  20.671  0.00  0.00    +0.000 C 
BRANCH  17  18
ATOM     18  C   UNL     1       1.150   6.322  20.726  0.00  0.00    +0.000 C 
BRANCH  18  19
ATOM     19  C   UNL     1       1.515   7.762  21.065  0.00  0.00    +0.000 C 
ATOM     20  C   UNL     1       0.258   8.541  21.433  0.00  0.00    +0.000 C 
ENDBRANCH  18  19
ENDBRANCH  17  18
ENDBRANCH  12  17
TORSDOF 5
ENDMDL
MODEL 8
REMARK VINA RESULT:      -6.6      1.913      5.080
REMARK  Name = 
REMARK  8 active torsions:
REMARK  status: ('A' for Active; 'I' for Inactive)
REMARK    1  A    between atoms: C_8  and  O_9
REMARK    2  A    between atoms: O_9  and  C_10
REMARK    3  A    between atoms: C_12  and  O_13
REMARK    4  A    between atoms: O_13  and  C_14
REMARK    5  A    between atoms: C_16  and  C_17
REMARK    6  A    between atoms: C_17  and  C_18
REMARK    7  A    between atoms: C_18  and  C_19
REMARK    8  A    between atoms: C_19  and  C_20
REMARK                            x       y       z     vdW  Elec       q    Type
REMARK                         _______ _______ _______ _____ _____    ______ ____
ROOT
ATOM      1  C   UNL     1       3.642   1.311  18.116  0.00  0.00    +0.000 C 
ATOM      2  C   UNL     1       3.821   2.607  18.437  0.00  0.00    +0.000 C 
ATOM      3  C   UNL     1       4.116   2.933  19.851  0.00  0.00    +0.000 C 
ATOM      4  O   UNL     1       3.610   2.340  20.796  0.00  0.00    +0.000 OA
ATOM      5  O   UNL     1       5.045   3.949  20.025  0.00  0.00    +0.000 OA
ATOM      6  C   UNL     1       5.580   4.686  18.946  0.00  0.00    +0.000 A 
ATOM      7  C   UNL     1       6.674   5.501  19.236  0.00  0.00    +0.000 A 
ATOM      8  C   UNL     1       7.193   6.316  18.236  0.00  0.00    +0.000 A 
ATOM      9  C   UNL     1       6.630   6.281  16.955  0.00  0.00    +0.000 A 
ATOM     10  C   UNL     1       5.557   5.433  16.661  0.00  0.00    +0.000 A 
ATOM     11  C   UNL     1       5.006   4.630  17.676  0.00  0.00    +0.000 A 
ATOM     12  C   UNL     1       3.783   3.762  17.471  0.00  0.00    +0.000 C 
ENDROOT
BRANCH   8  13
ATOM     13  O   UNL     1       8.233   7.195  18.374  0.00  0.00    +0.000 OA
ATOM     14  C   UNL     1       8.041   8.502  17.845  0.00  0.00    +0.000 C 
ENDBRANCH   8  13
BRANCH  10  15
ATOM     15  O   UNL     1       4.990   5.319  15.418  0.00  0.00    +0.000 OA
ATOM     16  C   UNL     1       5.692   4.536  14.456  0.00  0.00    +0.000 C 
ENDBRANCH  10  15
BRANCH  12  17
ATOM     17  C   UNL     1       2.453   4.551  17.647  0.00  0.00    +0.000 C 
BRANCH  17  18
ATOM     18  C   UNL     1       2.617   5.855  18.433  0.00  0.00    +0.000 C 
BRANCH  18  19
ATOM     19  C   UNL     1       1.998   7.069  17.751  0.00  0.00    +0.000 C 
ATOM     20  C   UNL     1       2.919   8.274  17.906  0.00  0.00    +0.000 C 
ENDBRANCH  18  19
ENDBRANCH  17  18
ENDBRANCH  12  17
TORSDOF 5
ENDMDL
MODEL 9
REMARK VINA RESULT:      -6.5      2.164      5.320
REMARK  Name = 
REMARK  8 active torsions:
REMARK  status: ('A' for Active; 'I' for Inactive)
REMARK    1  A    between atoms: C_8  and  O_9
REMARK    2  A    between atoms: O_9  and  C_10
REMARK    3  A    between atoms: C_12  and  O_13
REMARK    4  A    between atoms: O_13  and  C_14
REMARK    5  A    between atoms: C_16  and  C_17
REMARK    6  A    between atoms: C_17  and  C_18
REMARK    7  A    between atoms: C_18  and  C_19
REMARK    8  A    between atoms: C_19  and  C_20
REMARK                            x       y       z     vdW  Elec       q    Type
REMARK                         _______ _______ _______ _____ _____    ______ ____
ROOT
ATOM      1  C   UNL     1       7.741   5.750  19.804  0.00  0.00    +0.000 C 
ATOM      2  C   UNL     1       7.063   5.981  18.663  0.00  0.00    +0.000 C 
ATOM      3  C   UNL     1       7.648   6.939  17.696  0.00  0.00    +0.000 C 
ATOM      4  O   UNL     1       8.246   7.953  18.034  0.00  0.00    +0.000 OA
ATOM      5  O   UNL     1       7.496   6.576  16.364  0.00  0.00    +0.000 OA
ATOM      6  C   UNL     1       6.749   5.448  15.962  0.00  0.00    +0.000 A 
ATOM      7  C   UNL     1       6.881   5.063  14.628  0.00  0.00    +0.000 A 
ATOM      8  C   UNL     1       6.107   4.012  14.148  0.00  0.00    +0.000 A 
ATOM      9  C   UNL     1       5.237   3.343  15.017  0.00  0.00    +0.000 A 
ATOM     10  C   UNL     1       5.138   3.710  16.364  0.00  0.00    +0.000 A 
ATOM     11  C   UNL     1       5.893   4.794  16.847  0.00  0.00    +0.000 A 
ATOM     12  C   UNL     1       5.771   5.320  18.261  0.00  0.00    +0.000 C 
ENDROOT
BRANCH   8  13
ATOM     13  O   UNL     1       6.094   3.546  12.862  0.00  0.00    +0.000 OA
ATOM     14  C   UNL     1       7.145   3.987  12.010  0.00  0.00    +0.000 C 
ENDBRANCH   8  13
BRANCH  10  15
ATOM     15  O   UNL     1       4.340   3.068  17.274  0.00  0.00    +0.000 OA
ATOM     16  C   UNL     1       2.931   3.203  17.109  0.00  0.00    +0.000 C 
ENDBRANCH  10  15
BRANCH  12  17
ATOM     17  C   UNL     1       4.594   6.324  18.426  0.00  0.00    +0.000 C 
BRANCH  17  18
ATOM     18  C   UNL     1       3.550   5.874  19.453  0.00  0.00    +0.000 C 
BRANCH  18  19
ATOM     19  C   UNL     1       2.372   6.831  19.595  0.00  0.00    +0.000 C 
ATOM     20  C   UNL     1       2.362   7.814  18.430  0.00  0.00    +0.000 C 
ENDBRANCH  18  19
ENDBRANCH  17  18
ENDBRANCH  12  17
TORSDOF 5
ENDMDL
