MODEL 1
REMARK VINA RESULT:      -6.4      0.000      0.000
REMARK  Name = 
REMARK  3 active torsions:
REMARK  status: ('A' for Active; 'I' for Inactive)
REMARK    1  A    between atoms: O_1  and  C_2
REMARK    2  A    between atoms: C_2  and  C_3
REMARK    3  A    between atoms: N_5  and  C_6
REMARK                            x       y       z     vdW  Elec       q    Type
REMARK                         _______ _______ _______ _____ _____    ______ ____
ROOT
ATOM      1  C   UNL     1       6.797   4.460  13.854  0.00  0.00    +0.000 A 
ATOM      2  C   UNL     1       5.735   4.124  14.665  0.00  0.00    +0.000 A 
ATOM      3  N   UNL     1       5.940   4.818  15.831  0.00  0.00    +0.000 N 
ATOM      4  N   UNL     1       7.079   5.546  15.724  0.00  0.00    +0.000 NA
ATOM      5  N   UNL     1       7.608   5.330  14.526  0.00  0.00    +0.000 NA
ENDROOT
BRANCH   3   6
ATOM      6  C   UNL     1       5.145   4.832  17.006  0.00  0.00    +0.000 A 
ATOM      7  C   UNL     1       5.687   5.236  18.234  0.00  0.00    +0.000 A 
ATOM      8  C   UNL     1       4.891   5.239  19.383  0.00  0.00    +0.000 A 
ATOM      9  C   UNL     1       3.553   4.836  19.317  0.00  0.00    +0.000 A 
ATOM     10 CL   UNL     1       2.637   4.862  20.782  0.00  0.00    +0.000 Cl
ATOM     11  C   UNL     1       3.008   4.432  18.094  0.00  0.00    +0.000 A 
ATOM     12 CL   UNL     1       1.365   3.917  17.943  0.00  0.00    +0.000 Cl
ATOM     13  C   UNL     1       3.801   4.432  16.940  0.00  0.00    +0.000 A 
ENDBRANCH   3   6
BRANCH   1  14
ATOM     14  C   UNL     1       7.116   4.023  12.474  0.00  0.00    +0.000 C 
BRANCH  14  15
ATOM     15  O   UNL     1       6.531   2.758  12.162  0.00  0.00    +0.000 OA
ATOM     16  H   UNL     1       5.940   2.908  11.405  0.00  0.00    +0.000 HD
ENDBRANCH  14  15
ENDBRANCH   1  14
TORSDOF 3
ENDMDL
MODEL 2
REMARK VINA RESULT:      -6.4      1.495      1.588
REMARK  Name = 
REMARK  3 active torsions:
REMARK  status: ('A' for Active; 'I' for Inactive)
REMARK    1  A    between atoms: O_1  and  C_2
REMARK    2  A    between atoms: C_2  and  C_3
REMARK    3  A    between atoms: N_5  and  C_6
REMARK                            x       y       z     vdW  Elec       q    Type
REMARK                         _______ _______ _______ _____ _____    ______ ____
ROOT
ATOM      1  C   UNL     1       6.859   4.772  14.908  0.00  0.00    +0.000 A 
ATOM      2  C   UNL     1       5.560   4.754  15.367  0.00  0.00    +0.000 A 
ATOM      3  N   UNL     1       5.662   4.635  16.730  0.00  0.00    +0.000 N 
ATOM      4  N   UNL     1       6.971   4.588  17.078  0.00  0.00    +0.000 NA
ATOM      5  N   UNL     1       7.706   4.666  15.976  0.00  0.00    +0.000 NA
ENDROOT
BRANCH   3   6
ATOM      6  C   UNL     1       4.623   4.566  17.694  0.00  0.00    +0.000 A 
ATOM      7  C   UNL     1       4.571   5.476  18.759  0.00  0.00    +0.000 A 
ATOM      8  C   UNL     1       3.544   5.391  19.702  0.00  0.00    +0.000 A 
ATOM      9  C   UNL     1       2.566   4.398  19.595  0.00  0.00    +0.000 A 
ATOM     10 CL   UNL     1       1.332   4.354  20.804  0.00  0.00    +0.000 Cl
ATOM     11  C   UNL     1       2.613   3.486  18.534  0.00  0.00    +0.000 A 
ATOM     12 CL   UNL     1       1.440   2.231  18.345  0.00  0.00    +0.000 Cl
ATOM     13  C   UNL     1       3.638   3.572  17.584  0.00  0.00    +0.000 A 
ENDBRANCH   3   6
BRANCH   1  14
ATOM     14  C   UNL     1       7.379   4.884  13.525  0.00  0.00    +0.000 C 
BRANCH  14  15
ATOM     15  O   UNL     1       8.481   5.787  13.436  0.00  0.00    +0.000 OA
ATOM     16  H   UNL     1       9.283   5.238  13.396  0.00  0.00    +0.000 HD
ENDBRANCH  14  15
ENDBRANCH   1  14
TORSDOF 3
ENDMDL
MODEL 3
REMARK VINA RESULT:      -6.4      1.887      2.420
REMARK  Name = 
REMARK  3 active torsions:
REMARK  status: ('A' for Active; 'I' for Inactive)
REMARK    1  A    between atoms: O_1  and  C_2
REMARK    2  A    between atoms: C_2  and  C_3
REMARK    3  A    between atoms: N_5  and  C_6
REMARK                            x       y       z     vdW  Elec       q    Type
REMARK                         _______ _______ _______ _____ _____    ______ ____
ROOT
ATOM      1  C   UNL     1       6.045   4.911  15.062  0.00  0.00    +0.000 A 
ATOM      2  C   UNL     1       5.443   3.993  15.895  0.00  0.00    +0.000 A 
ATOM      3  N   UNL     1       4.675   4.737  16.754  0.00  0.00    +0.000 N 
ATOM      4  N   UNL     1       4.805   6.051  16.447  0.00  0.00    +0.000 NA
ATOM      5  N   UNL     1       5.640   6.165  15.422  0.00  0.00    +0.000 NA
ENDROOT
BRANCH   3   6
ATOM      6  C   UNL     1       3.848   4.291  17.817  0.00  0.00    +0.000 A 
ATOM      7  C   UNL     1       3.632   2.923  18.033  0.00  0.00    +0.000 A 
ATOM      8  C   UNL     1       2.811   2.501  19.082  0.00  0.00    +0.000 A 
ATOM      9  C   UNL     1       2.195   3.436  19.918  0.00  0.00    +0.000 A 
ATOM     10 CL   UNL     1       1.189   2.835  21.189  0.00  0.00    +0.000 Cl
ATOM     11  C   UNL     1       2.406   4.803  19.707  0.00  0.00    +0.000 A 
ATOM     12 CL   UNL     1       1.671   6.013  20.699  0.00  0.00    +0.000 Cl
ATOM     13  C   UNL     1       3.232   5.230  18.660  0.00  0.00    +0.000 A 
ENDBRANCH   3   6
BRANCH   1  14
ATOM     14  C   UNL     1       6.984   4.701  13.935  0.00  0.00    +0.000 C 
BRANCH  14  15
ATOM     15  O   UNL     1       8.052   5.648  13.942  0.00  0.00    +0.000 OA
ATOM     16  H   UNL     1       7.705   6.456  13.528  0.00  0.00    +0.000 HD
ENDBRANCH  14  15
ENDBRANCH   1  14
TORSDOF 3
ENDMDL
MODEL 4
REMARK VINA RESULT:      -6.4      1.892      2.432
REMARK  Name = 
REMARK  3 active torsions:
REMARK  status: ('A' for Active; 'I' for Inactive)
REMARK    1  A    between atoms: O_1  and  C_2
REMARK    2  A    between atoms: C_2  and  C_3
REMARK    3  A    between atoms: N_5  and  C_6
REMARK                            x       y       z     vdW  Elec       q    Type
REMARK                         _______ _______ _______ _____ _____    ______ ____
ROOT
ATOM      1  C   UNL     1       6.519   4.623  15.601  0.00  0.00    +0.000 A 
ATOM      2  C   UNL     1       5.296   4.276  16.133  0.00  0.00    +0.000 A 
ATOM      3  N   UNL     1       5.481   4.280  17.493  0.00  0.00    +0.000 N 
ATOM      4  N   UNL     1       6.764   4.619  17.768  0.00  0.00    +0.000 NA
ATOM      5  N   UNL     1       7.403   4.825  16.624  0.00  0.00    +0.000 NA
ENDROOT
BRANCH   3   6
ATOM      6  C   UNL     1       4.542   3.990  18.516  0.00  0.00    +0.000 A 
ATOM      7  C   UNL     1       4.420   2.692  19.032  0.00  0.00    +0.000 A 
ATOM      8  C   UNL     1       3.487   2.423  20.036  0.00  0.00    +0.000 A 
ATOM      9  C   UNL     1       2.666   3.442  20.531  0.00  0.00    +0.000 A 
ATOM     10 CL   UNL     1       1.534   3.028  21.768  0.00  0.00    +0.000 Cl
ATOM     11  C   UNL     1       2.784   4.739  20.020  0.00  0.00    +0.000 A 
ATOM     12 CL   UNL     1       1.798   6.043  20.581  0.00  0.00    +0.000 Cl
ATOM     13  C   UNL     1       3.721   5.013  19.017  0.00  0.00    +0.000 A 
ENDBRANCH   3   6
BRANCH   1  14
ATOM     14  C   UNL     1       6.930   4.783  14.187  0.00  0.00    +0.000 C 
BRANCH  14  15
ATOM     15  O   UNL     1       8.064   5.640  14.051  0.00  0.00    +0.000 OA
ATOM     16  H   UNL     1       7.869   6.437  14.574  0.00  0.00    +0.000 HD
ENDBRANCH  14  15
ENDBRANCH   1  14
TORSDOF 3
ENDMDL
MODEL 5
REMARK VINA RESULT:      -6.3      1.717      2.100
REMARK  Name = 
REMARK  3 active torsions:
REMARK  status: ('A' for Active; 'I' for Inactive)
REMARK    1  A    between atoms: O_1  and  C_2
REMARK    2  A    between atoms: C_2  and  C_3
REMARK    3  A    between atoms: N_5  and  C_6
REMARK                            x       y       z     vdW  Elec       q    Type
REMARK                         _______ _______ _______ _____ _____    ______ ____
ROOT
ATOM      1  C   UNL     1       6.859   4.814  14.926  0.00  0.00    +0.000 A 
ATOM      2  C   UNL     1       5.546   4.835  15.345  0.00  0.00    +0.000 A 
ATOM      3  N   UNL     1       5.601   4.672  16.706  0.00  0.00    +0.000 N 
ATOM      4  N   UNL     1       6.896   4.562  17.092  0.00  0.00    +0.000 NA
ATOM      5  N   UNL     1       7.667   4.643  16.015  0.00  0.00    +0.000 NA
ENDROOT
BRANCH   3   6
ATOM      6  C   UNL     1       4.531   4.617  17.636  0.00  0.00    +0.000 A 
ATOM      7  C   UNL     1       3.467   5.527  17.562  0.00  0.00    +0.000 A 
ATOM      8  C   UNL     1       2.424   5.461  18.489  0.00  0.00    +0.000 A 
ATOM      9  C   UNL     1       2.435   4.494  19.499  0.00  0.00    +0.000 A 
ATOM     10 CL   UNL     1       1.112   4.482  20.611  0.00  0.00    +0.000 Cl
ATOM     11  C   UNL     1       3.495   3.584  19.579  0.00  0.00    +0.000 A 
ATOM     12 CL   UNL     1       3.574   2.367  20.804  0.00  0.00    +0.000 Cl
ATOM     13  C   UNL     1       4.539   3.643  18.648  0.00  0.00    +0.000 A 
ENDBRANCH   3   6
BRANCH   1  14
ATOM     14  C   UNL     1       7.424   4.946  13.563  0.00  0.00    +0.000 C 
BRANCH  14  15
ATOM     15  O   UNL     1       8.524   5.856  13.523  0.00  0.00    +0.000 OA
ATOM     16  H   UNL     1       9.330   5.314  13.563  0.00  0.00    +0.000 HD
ENDBRANCH  14  15
ENDBRANCH   1  14
TORSDOF 3
ENDMDL
MODEL 6
REMARK VINA RESULT:      -6.3      1.636      2.119
REMARK  Name = 
REMARK  3 active torsions:
REMARK  status: ('A' for Active; 'I' for Inactive)
REMARK    1  A    between atoms: O_1  and  C_2
REMARK    2  A    between atoms: C_2  and  C_3
REMARK    3  A    between atoms: N_5  and  C_6
REMARK                            x       y       z     vdW  Elec       q    Type
REMARK                         _______ _______ _______ _____ _____    ______ ____
ROOT
ATOM      1  C   UNL     1       6.741   5.045  14.717  0.00  0.00    +0.000 A 
ATOM      2  C   UNL     1       5.525   4.538  15.122  0.00  0.00    +0.000 A 
ATOM      3  N   UNL     1       5.358   4.986  16.408  0.00  0.00    +0.000 N 
ATOM      4  N   UNL     1       6.430   5.738  16.762  0.00  0.00    +0.000 NA
ATOM      5  N   UNL     1       7.277   5.775  15.741  0.00  0.00    +0.000 NA
ENDROOT
BRANCH   3   6
ATOM      6  C   UNL     1       4.276   4.752  17.295  0.00  0.00    +0.000 A 
ATOM      7  C   UNL     1       3.657   3.496  17.356  0.00  0.00    +0.000 A 
ATOM      8  C   UNL     1       2.589   3.284  18.233  0.00  0.00    +0.000 A 
ATOM      9  C   UNL     1       2.128   4.321  19.049  0.00  0.00    +0.000 A 
ATOM     10 CL   UNL     1       0.799   3.982  20.101  0.00  0.00    +0.000 Cl
ATOM     11  C   UNL     1       2.742   5.577  18.991  0.00  0.00    +0.000 A 
ATOM     12 CL   UNL     1       2.219   6.904  19.968  0.00  0.00    +0.000 Cl
ATOM     13  C   UNL     1       3.815   5.791  18.118  0.00  0.00    +0.000 A 
ENDBRANCH   3   6
BRANCH   1  14
ATOM     14  C   UNL     1       7.450   4.899  13.425  0.00  0.00    +0.000 C 
BRANCH  14  15
ATOM     15  O   UNL     1       8.520   5.835  13.290  0.00  0.00    +0.000 OA
ATOM     16  H   UNL     1       8.407   6.258  12.423  0.00  0.00    +0.000 HD
ENDBRANCH  14  15
ENDBRANCH   1  14
TORSDOF 3
ENDMDL
MODEL 7
REMARK VINA RESULT:      -6.3      1.017      1.054
REMARK  Name = 
REMARK  3 active torsions:
REMARK  status: ('A' for Active; 'I' for Inactive)
REMARK    1  A    between atoms: O_1  and  C_2
REMARK    2  A    between atoms: C_2  and  C_3
REMARK    3  A    between atoms: N_5  and  C_6
REMARK                            x       y       z     vdW  Elec       q    Type
REMARK                         _______ _______ _______ _____ _____    ______ ____
ROOT
ATOM      1  C   UNL     1       6.691   4.457  13.604  0.00  0.00    +0.000 A 
ATOM      2  C   UNL     1       5.543   4.253  14.339  0.00  0.00    +0.000 A 
ATOM      3  N   UNL     1       5.748   4.923  15.518  0.00  0.00    +0.000 N 
ATOM      4  N   UNL     1       6.969   5.511  15.493  0.00  0.00    +0.000 NA
ATOM      5  N   UNL     1       7.551   5.228  14.335  0.00  0.00    +0.000 NA
ENDROOT
BRANCH   3   6
ATOM      6  C   UNL     1       4.880   5.037  16.635  0.00  0.00    +0.000 A 
ATOM      7  C   UNL     1       4.541   6.294  17.156  0.00  0.00    +0.000 A 
ATOM      8  C   UNL     1       3.689   6.387  18.259  0.00  0.00    +0.000 A 
ATOM      9  C   UNL     1       3.173   5.232  18.854  0.00  0.00    +0.000 A 
ATOM     10 CL   UNL     1       2.131   5.431  20.219  0.00  0.00    +0.000 Cl
ATOM     11  C   UNL     1       3.508   3.975  18.339  0.00  0.00    +0.000 A 
ATOM     12 CL   UNL     1       2.910   2.508  19.029  0.00  0.00    +0.000 Cl
ATOM     13  C   UNL     1       4.357   3.878  17.230  0.00  0.00    +0.000 A 
ENDBRANCH   3   6
BRANCH   1  14
ATOM     14  C   UNL     1       7.052   3.978  12.249  0.00  0.00    +0.000 C 
BRANCH  14  15
ATOM     15  O   UNL     1       6.641   2.629  12.029  0.00  0.00    +0.000 OA
ATOM     16  H   UNL     1       5.695   2.663  11.807  0.00  0.00    +0.000 HD
ENDBRANCH  14  15
ENDBRANCH   1  14
TORSDOF 3
ENDMDL
MODEL 8
REMARK VINA RESULT:      -6.3      1.741      2.050
REMARK  Name = 
REMARK  3 active torsions:
REMARK  status: ('A' for Active; 'I' for Inactive)
REMARK    1  A    between atoms: O_1  and  C_2
REMARK    2  A    between atoms: C_2  and  C_3
REMARK    3  A    between atoms: N_5  and  C_6
REMARK                            x       y       z     vdW  Elec       q    Type
REMARK                         _______ _______ _______ _____ _____    ______ ____
ROOT
ATOM      1  C   UNL     1       5.979   5.035  15.104  0.00  0.00    +0.000 A 
ATOM      2  C   UNL     1       5.393   4.166  15.998  0.00  0.00    +0.000 A 
ATOM      3  N   UNL     1       4.641   4.957  16.829  0.00  0.00    +0.000 N 
ATOM      4  N   UNL     1       4.766   6.252  16.448  0.00  0.00    +0.000 NA
ATOM      5  N   UNL     1       5.582   6.308  15.402  0.00  0.00    +0.000 NA
ENDROOT
BRANCH   3   6
ATOM      6  C   UNL     1       3.834   4.572  17.930  0.00  0.00    +0.000 A 
ATOM      7  C   UNL     1       4.085   5.074  19.215  0.00  0.00    +0.000 A 
ATOM      8  C   UNL     1       3.283   4.680  20.289  0.00  0.00    +0.000 A 
ATOM      9  C   UNL     1       2.231   3.781  20.094  0.00  0.00    +0.000 A 
ATOM     10 CL   UNL     1       1.290   3.337  21.474  0.00  0.00    +0.000 Cl
ATOM     11  C   UNL     1       1.977   3.275  18.814  0.00  0.00    +0.000 A 
ATOM     12 CL   UNL     1       0.697   2.156  18.503  0.00  0.00    +0.000 Cl
ATOM     13  C   UNL     1       2.774   3.672  17.735  0.00  0.00    +0.000 A 
ENDBRANCH   3   6
BRANCH   1  14
ATOM     14  C   UNL     1       6.896   4.762  13.973  0.00  0.00    +0.000 C 
BRANCH  14  15
ATOM     15  O   UNL     1       8.020   5.643  13.967  0.00  0.00    +0.000 OA
ATOM     16  H   UNL     1       7.808   6.361  14.587  0.00  0.00    +0.000 HD
ENDBRANCH  14  15
ENDBRANCH   1  14
TORSDOF 3
ENDMDL
MODEL 9
REMARK VINA RESULT:      -6.2      1.323      1.461
REMARK  Name = 
REMARK  3 active torsions:
REMARK  status: ('A' for Active; 'I' for Inactive)
REMARK    1  A    between atoms: O_1  and  C_2
REMARK    2  A    between atoms: C_2  and  C_3
REMARK    3  A    between atoms: N_5  and  C_6
REMARK                            x       y       z     vdW  Elec       q    Type
REMARK                         _______ _______ _______ _____ _____    ______ ____
ROOT
ATOM      1  C   UNL     1       6.716   4.582  13.902  0.00  0.00    +0.000 A 
ATOM      2  C   UNL     1       5.568   4.407  14.644  0.00  0.00    +0.000 A 
ATOM      3  N   UNL     1       5.804   5.056  15.829  0.00  0.00    +0.000 N 
ATOM      4  N   UNL     1       7.043   5.605  15.800  0.00  0.00    +0.000 NA
ATOM      5  N   UNL     1       7.606   5.317  14.633  0.00  0.00    +0.000 NA
ENDROOT
BRANCH   3   6
ATOM      6  C   UNL     1       4.950   5.185  16.954  0.00  0.00    +0.000 A 
ATOM      7  C   UNL     1       4.825   4.143  17.883  0.00  0.00    +0.000 A 
ATOM      8  C   UNL     1       3.975   4.285  18.984  0.00  0.00    +0.000 A 
ATOM      9  C   UNL     1       3.242   5.462  19.164  0.00  0.00    +0.000 A 
ATOM     10 CL   UNL     1       2.209   5.558  20.546  0.00  0.00    +0.000 Cl
ATOM     11  C   UNL     1       3.362   6.505  18.240  0.00  0.00    +0.000 A 
ATOM     12 CL   UNL     1       2.481   7.983  18.398  0.00  0.00    +0.000 Cl
ATOM     13  C   UNL     1       4.217   6.368  17.139  0.00  0.00    +0.000 A 
ENDBRANCH   3   6
BRANCH   1  14
ATOM     14  C   UNL     1       7.049   4.108  12.538  0.00  0.00    +0.000 C 
BRANCH  14  15
ATOM     15  O   UNL     1       6.515   2.810  12.275  0.00  0.00    +0.000 OA
ATOM     16  H   UNL     1       6.701   2.622  11.339  0.00  0.00    +0.000 HD
ENDBRANCH  14  15
ENDBRANCH   1  14
TORSDOF 3
ENDMDL
