MODEL 1
REMARK VINA RESULT:      -8.9      0.000      0.000
REMARK  Name = 
REMARK  8 active torsions:
REMARK  status: ('A' for Active; 'I' for Inactive)
REMARK    1  A    between atoms: C_2  and  C_3
REMARK    2  A    between atoms: C_3  and  O_4
REMARK    3  A    between atoms: O_4  and  C_5
REMARK    4  A    between atoms: N_11  and  C_12
REMARK    5  A    between atoms: C_12  and  C_13
REMARK    6  A    between atoms: C_12  and  C_20
REMARK    7  A    between atoms: C_22  and  N_23
REMARK    8  A    between atoms: C_32  and  O_33
REMARK                            x       y       z     vdW  Elec       q    Type
REMARK                         _______ _______ _______ _____ _____    ______ ____
ROOT
ATOM      1  C   UNL     1       2.589   6.163  19.172  0.00  0.00    +0.000 C 
ENDROOT
BRANCH   1   2
ATOM      2  C   UNL     1       1.882   7.470  19.533  0.00  0.00    +0.000 A 
ATOM      3  C   UNL     1       1.269   7.639  20.785  0.00  0.00    +0.000 A 
ATOM      4  C   UNL     1       0.933   8.926  21.213  0.00  0.00    +0.000 A 
ATOM      5  C   UNL     1       1.179  10.076  20.434  0.00  0.00    +0.000 A 
ATOM      6  C   UNL     1       1.205  11.402  20.912  0.00  0.00    +0.000 A 
ATOM      7  C   UNL     1       1.365  12.453  20.026  0.00  0.00    +0.000 A 
ATOM      8  C   UNL     1       1.395  12.156  18.680  0.00  0.00    +0.000 A 
ATOM      9  N   UNL     1       1.511  10.897  18.200  0.00  0.00    +0.000 NA
ATOM     10  C   UNL     1       1.487   9.876  19.085  0.00  0.00    +0.000 A 
ATOM     11  C   UNL     1       1.876   8.588  18.682  0.00  0.00    +0.000 A 
BRANCH   4  12
ATOM     12  N   UNL     1       0.252   9.054  22.495  0.00  0.00    +0.000 N 
ATOM     13  O   UNL     1       0.903   9.557  23.427  0.00  0.00    +0.000 OA
ATOM     14  O   UNL     1      -0.893   8.614  22.567  0.00  0.00    +0.000 OA
ENDBRANCH   4  12
BRANCH  11  15
ATOM     15  O   UNL     1       2.338   8.448  17.389  0.00  0.00    +0.000 OA
ATOM     16  H   UNL     1       2.688   7.531  17.348  0.00  0.00    +0.000 HD
ENDBRANCH  11  15
ENDBRANCH   1   2
BRANCH   1  17
ATOM     17  C   UNL     1       2.045   4.912  19.862  0.00  0.00    +0.000 A 
ATOM     18  C   UNL     1       2.297   4.693  21.232  0.00  0.00    +0.000 A 
ATOM     19  C   UNL     1       2.067   3.448  21.820  0.00  0.00    +0.000 A 
ATOM     20  C   UNL     1       1.577   2.394  21.056  0.00  0.00    +0.000 A 
ATOM     21  C   UNL     1       1.247   2.607  19.720  0.00  0.00    +0.000 A 
ATOM     22  C   UNL     1       1.463   3.858  19.128  0.00  0.00    +0.000 A 
ATOM     23 CL   UNL     1       1.008   4.022  17.468  0.00  0.00    +0.000 Cl
ENDBRANCH   1  17
BRANCH   1  26
ATOM     24  O   UNL     1       4.564   4.151  18.629  0.00  0.00    +0.000 OA
ATOM     25  C   UNL     1       4.921   5.192  19.180  0.00  0.00    +0.000 C 
ATOM     26  N   UNL     1       4.040   6.216  19.469  0.00  0.00    +0.000 N 
ATOM     27  H   UNL     1       4.376   6.998  20.013  0.00  0.00    +0.000 HD
BRANCH  25  28
ATOM     28  C   UNL     1       6.403   5.473  19.514  0.00  0.00    +0.000 C 
BRANCH  28  29
ATOM     29  O   UNL     1       7.111   6.061  18.427  0.00  0.00    +0.000 OA
BRANCH  29  30
ATOM     30  C   UNL     1       6.758   5.663  17.161  0.00  0.00    +0.000 A 
ATOM     31  C   UNL     1       5.844   6.500  16.512  0.00  0.00    +0.000 A 
ATOM     32  C   UNL     1       5.394   6.214  15.221  0.00  0.00    +0.000 A 
ATOM     33  C   UNL     1       5.871   5.088  14.547  0.00  0.00    +0.000 A 
ATOM     34  C   UNL     1       6.808   4.264  15.172  0.00  0.00    +0.000 A 
ATOM     35  C   UNL     1       7.252   4.551  16.472  0.00  0.00    +0.000 A 
ENDBRANCH  29  30
ENDBRANCH  28  29
ENDBRANCH  25  28
ENDBRANCH   1  26
TORSDOF 8
ENDMDL
MODEL 2
REMARK VINA RESULT:      -8.9      4.418      9.477
REMARK  Name = 
REMARK  8 active torsions:
REMARK  status: ('A' for Active; 'I' for Inactive)
REMARK    1  A    between atoms: C_2  and  C_3
REMARK    2  A    between atoms: C_3  and  O_4
REMARK    3  A    between atoms: O_4  and  C_5
REMARK    4  A    between atoms: N_11  and  C_12
REMARK    5  A    between atoms: C_12  and  C_13
REMARK    6  A    between atoms: C_12  and  C_20
REMARK    7  A    between atoms: C_22  and  N_23
REMARK    8  A    between atoms: C_32  and  O_33
REMARK                            x       y       z     vdW  Elec       q    Type
REMARK                         _______ _______ _______ _____ _____    ______ ____
ROOT
ATOM      1  C   UNL     1      -0.295  12.004  18.573  0.00  0.00    +0.000 C 
ENDROOT
BRANCH   1   2
ATOM      2  C   UNL     1       0.420  10.896  19.349  0.00  0.00    +0.000 A 
ATOM      3  C   UNL     1       0.240  10.751  20.734  0.00  0.00    +0.000 A 
ATOM      4  C   UNL     1       0.624   9.559  21.352  0.00  0.00    +0.000 A 
ATOM      5  C   UNL     1       1.196   8.483  20.641  0.00  0.00    +0.000 A 
ATOM      6  C   UNL     1       1.282   7.151  21.094  0.00  0.00    +0.000 A 
ATOM      7  C   UNL     1       1.953   6.205  20.339  0.00  0.00    +0.000 A 
ATOM      8  C   UNL     1       2.602   6.637  19.202  0.00  0.00    +0.000 A 
ATOM      9  N   UNL     1       2.426   7.869  18.670  0.00  0.00    +0.000 NA
ATOM     10  C   UNL     1       1.659   8.750  19.349  0.00  0.00    +0.000 A 
ATOM     11  C   UNL     1       1.219   9.927  18.722  0.00  0.00    +0.000 A 
BRANCH   4  12
ATOM     12  N   UNL     1       0.468   9.467  22.798  0.00  0.00    +0.000 N 
ATOM     13  O   UNL     1      -0.695   9.401  23.233  0.00  0.00    +0.000 OA
ATOM     14  O   UNL     1       1.493   9.507  23.475  0.00  0.00    +0.000 OA
ENDBRANCH   4  12
BRANCH  11  15
ATOM     15  O   UNL     1       1.549  10.089  17.391  0.00  0.00    +0.000 OA
ATOM     16  H   UNL     1       0.750   9.796  16.900  0.00  0.00    +0.000 HD
ENDBRANCH  11  15
ENDBRANCH   1   2
BRANCH   1  17
ATOM     17  C   UNL     1      -0.130  13.413  19.141  0.00  0.00    +0.000 A 
ATOM     18  C   UNL     1      -1.185  14.017  19.856  0.00  0.00    +0.000 A 
ATOM     19  C   UNL     1      -1.180  15.385  20.137  0.00  0.00    +0.000 A 
ATOM     20  C   UNL     1      -0.119  16.180  19.716  0.00  0.00    +0.000 A 
ATOM     21  C   UNL     1       0.971  15.593  19.078  0.00  0.00    +0.000 A 
ATOM     22  C   UNL     1       0.977  14.220  18.805  0.00  0.00    +0.000 A 
ATOM     23 CL   UNL     1       2.382  13.588  18.022  0.00  0.00    +0.000 Cl
ENDBRANCH   1  17
BRANCH   1  26
ATOM     24  O   UNL     1      -1.631  10.101  16.890  0.00  0.00    +0.000 OA
ATOM     25  C   UNL     1      -2.312  10.820  17.620  0.00  0.00    +0.000 C 
ATOM     26  N   UNL     1      -1.752  11.755  18.469  0.00  0.00    +0.000 N 
ATOM     27  H   UNL     1      -2.369  12.383  18.964  0.00  0.00    +0.000 HD
BRANCH  25  28
ATOM     28  C   UNL     1      -3.848  10.673  17.709  0.00  0.00    +0.000 C 
BRANCH  28  29
ATOM     29  O   UNL     1      -4.506  11.907  17.979  0.00  0.00    +0.000 OA
BRANCH  29  30
ATOM     30  C   UNL     1      -5.317  11.956  19.086  0.00  0.00    +0.000 A 
ATOM     31  C   UNL     1      -6.478  11.180  19.003  0.00  0.00    +0.000 A 
ATOM     32  C   UNL     1      -7.396  11.140  20.055  0.00  0.00    +0.000 A 
ATOM     33  C   UNL     1      -7.153  11.865  21.223  0.00  0.00    +0.000 A 
ATOM     34  C   UNL     1      -5.981  12.617  21.330  0.00  0.00    +0.000 A 
ATOM     35  C   UNL     1      -5.066  12.660  20.267  0.00  0.00    +0.000 A 
ENDBRANCH  29  30
ENDBRANCH  28  29
ENDBRANCH  25  28
ENDBRANCH   1  26
TORSDOF 8
ENDMDL
MODEL 3
REMARK VINA RESULT:      -8.9      0.128      1.002
REMARK  Name = 
REMARK  8 active torsions:
REMARK  status: ('A' for Active; 'I' for Inactive)
REMARK    1  A    between atoms: C_2  and  C_3
REMARK    2  A    between atoms: C_3  and  O_4
REMARK    3  A    between atoms: O_4  and  C_5
REMARK    4  A    between atoms: N_11  and  C_12
REMARK    5  A    between atoms: C_12  and  C_13
REMARK    6  A    between atoms: C_12  and  C_20
REMARK    7  A    between atoms: C_22  and  N_23
REMARK    8  A    between atoms: C_32  and  O_33
REMARK                            x       y       z     vdW  Elec       q    Type
REMARK                         _______ _______ _______ _____ _____    ______ ____
ROOT
ATOM      1  C   UNL     1       2.578   6.215  19.176  0.00  0.00    +0.000 C 
ENDROOT
BRANCH   1   2
ATOM      2  C   UNL     1       1.886   7.526  19.555  0.00  0.00    +0.000 A 
ATOM      3  C   UNL     1       1.341   7.712  20.835  0.00  0.00    +0.000 A 
ATOM      4  C   UNL     1       1.022   9.004  21.261  0.00  0.00    +0.000 A 
ATOM      5  C   UNL     1       1.220  10.142  20.452  0.00  0.00    +0.000 A 
ATOM      6  C   UNL     1       1.266  11.476  20.907  0.00  0.00    +0.000 A 
ATOM      7  C   UNL     1       1.374  12.514  19.998  0.00  0.00    +0.000 A 
ATOM      8  C   UNL     1       1.333  12.196  18.657  0.00  0.00    +0.000 A 
ATOM      9  N   UNL     1       1.428  10.929  18.191  0.00  0.00    +0.000 NA
ATOM     10  C   UNL     1       1.456   9.922  19.092  0.00  0.00    +0.000 A 
ATOM     11  C   UNL     1       1.828   8.630  18.689  0.00  0.00    +0.000 A 
BRANCH   4  12
ATOM     12  N   UNL     1       0.411   9.149  22.576  0.00  0.00    +0.000 N 
ATOM     13  O   UNL     1      -0.809   8.924  22.655  0.00  0.00    +0.000 OA
ATOM     14  O   UNL     1       1.139   9.527  23.492  0.00  0.00    +0.000 OA
ENDBRANCH   4  12
BRANCH  11  15
ATOM     15  O   UNL     1       2.220   8.471  17.374  0.00  0.00    +0.000 OA
ATOM     16  H   UNL     1       3.062   8.974  17.303  0.00  0.00    +0.000 HD
ENDBRANCH  11  15
ENDBRANCH   1   2
BRANCH   1  17
ATOM     17  C   UNL     1       2.024   4.962  19.854  0.00  0.00    +0.000 A 
ATOM     18  C   UNL     1       2.269   4.733  21.224  0.00  0.00    +0.000 A 
ATOM     19  C   UNL     1       2.030   3.484  21.803  0.00  0.00    +0.000 A 
ATOM     20  C   UNL     1       1.538   2.439  21.029  0.00  0.00    +0.000 A 
ATOM     21  C   UNL     1       1.215   2.663  19.693  0.00  0.00    +0.000 A 
ATOM     22  C   UNL     1       1.440   3.916  19.111  0.00  0.00    +0.000 A 
ATOM     23 CL   UNL     1       0.993   4.095  17.450  0.00  0.00    +0.000 Cl
ENDBRANCH   1  17
BRANCH   1  26
ATOM     24  O   UNL     1       4.526   4.182  18.619  0.00  0.00    +0.000 OA
ATOM     25  C   UNL     1       4.898   5.218  19.172  0.00  0.00    +0.000 C 
ATOM     26  N   UNL     1       4.031   6.251  19.467  0.00  0.00    +0.000 N 
ATOM     27  H   UNL     1       4.378   7.027  20.012  0.00  0.00    +0.000 HD
BRANCH  25  28
ATOM     28  C   UNL     1       6.385   5.480  19.499  0.00  0.00    +0.000 C 
BRANCH  28  29
ATOM     29  O   UNL     1       7.085   6.101  18.426  0.00  0.00    +0.000 OA
BRANCH  29  30
ATOM     30  C   UNL     1       6.677   5.795  17.151  0.00  0.00    +0.000 A 
ATOM     31  C   UNL     1       7.241   4.633  16.614  0.00  0.00    +0.000 A 
ATOM     32  C   UNL     1       6.920   4.205  15.323  0.00  0.00    +0.000 A 
ATOM     33  C   UNL     1       6.005   4.927  14.555  0.00  0.00    +0.000 A 
ATOM     34  C   UNL     1       5.411   6.069  15.093  0.00  0.00    +0.000 A 
ATOM     35  C   UNL     1       5.743   6.500  16.387  0.00  0.00    +0.000 A 
ENDBRANCH  29  30
ENDBRANCH  28  29
ENDBRANCH  25  28
ENDBRANCH   1  26
TORSDOF 8
ENDMDL
MODEL 4
REMARK VINA RESULT:      -8.9      3.637      6.336
REMARK  Name = 
REMARK  8 active torsions:
REMARK  status: ('A' for Active; 'I' for Inactive)
REMARK    1  A    between atoms: C_2  and  C_3
REMARK    2  A    between atoms: C_3  and  O_4
REMARK    3  A    between atoms: O_4  and  C_5
REMARK    4  A    between atoms: N_11  and  C_12
REMARK    5  A    between atoms: C_12  and  C_13
REMARK    6  A    between atoms: C_12  and  C_20
REMARK    7  A    between atoms: C_22  and  N_23
REMARK    8  A    between atoms: C_32  and  O_33
REMARK                            x       y       z     vdW  Elec       q    Type
REMARK                         _______ _______ _______ _____ _____    ______ ____
ROOT
ATOM      1  C   UNL     1       1.025  11.623  19.747  0.00  0.00    +0.000 C 
ENDROOT
BRANCH   1   2
ATOM      2  C   UNL     1       1.922  12.861  19.798  0.00  0.00    +0.000 A 
ATOM      3  C   UNL     1       2.125  13.558  21.000  0.00  0.00    +0.000 A 
ATOM      4  C   UNL     1       3.188  14.460  21.096  0.00  0.00    +0.000 A 
ATOM      5  C   UNL     1       4.072  14.710  20.025  0.00  0.00    +0.000 A 
ATOM      6  C   UNL     1       5.344  15.310  20.134  0.00  0.00    +0.000 A 
ATOM      7  C   UNL     1       6.078  15.586  18.993  0.00  0.00    +0.000 A 
ATOM      8  C   UNL     1       5.479  15.345  17.774  0.00  0.00    +0.000 A 
ATOM      9  N   UNL     1       4.328  14.649  17.637  0.00  0.00    +0.000 NA
ATOM     10  C   UNL     1       3.680  14.265  18.760  0.00  0.00    +0.000 A 
ATOM     11  C   UNL     1       2.647  13.317  18.686  0.00  0.00    +0.000 A 
BRANCH   4  12
ATOM     12  N   UNL     1       3.334  15.201  22.342  0.00  0.00    +0.000 N 
ATOM     13  O   UNL     1       2.779  16.312  22.402  0.00  0.00    +0.000 OA
ATOM     14  O   UNL     1       4.031  14.691  23.217  0.00  0.00    +0.000 OA
ENDBRANCH   4  12
BRANCH  11  15
ATOM     15  O   UNL     1       2.390  12.766  17.446  0.00  0.00    +0.000 OA
ATOM     16  H   UNL     1       1.659  13.310  17.079  0.00  0.00    +0.000 HD
ENDBRANCH  11  15
ENDBRANCH   1   2
BRANCH   1  17
ATOM     17  C   UNL     1       0.502  11.137  21.100  0.00  0.00    +0.000 A 
ATOM     18  C   UNL     1       1.062   9.994  21.706  0.00  0.00    +0.000 A 
ATOM     19  C   UNL     1       0.432   9.363  22.781  0.00  0.00    +0.000 A 
ATOM     20  C   UNL     1      -0.768   9.860  23.277  0.00  0.00    +0.000 A 
ATOM     21  C   UNL     1      -1.300  11.033  22.746  0.00  0.00    +0.000 A 
ATOM     22  C   UNL     1      -0.665  11.677  21.677  0.00  0.00    +0.000 A 
ATOM     23 CL   UNL     1      -1.400  13.132  21.099  0.00  0.00    +0.000 Cl
ENDBRANCH   1  17
BRANCH   1  26
ATOM     24  O   UNL     1      -0.056   9.785  17.826  0.00  0.00    +0.000 OA
ATOM     25  C   UNL     1       1.105   9.626  18.203  0.00  0.00    +0.000 C 
ATOM     26  N   UNL     1       1.708  10.469  19.116  0.00  0.00    +0.000 N 
ATOM     27  H   UNL     1       2.626  10.225  19.460  0.00  0.00    +0.000 HD
BRANCH  25  28
ATOM     28  C   UNL     1       2.011   8.521  17.615  0.00  0.00    +0.000 C 
BRANCH  28  29
ATOM     29  O   UNL     1       2.775   7.848  18.609  0.00  0.00    +0.000 OA
BRANCH  29  30
ATOM     30  C   UNL     1       2.323   6.618  19.022  0.00  0.00    +0.000 A 
ATOM     31  C   UNL     1       2.268   5.643  18.021  0.00  0.00    +0.000 A 
ATOM     32  C   UNL     1       1.823   4.348  18.298  0.00  0.00    +0.000 A 
ATOM     33  C   UNL     1       1.443   4.002  19.596  0.00  0.00    +0.000 A 
ATOM     34  C   UNL     1       1.526   4.958  20.610  0.00  0.00    +0.000 A 
ATOM     35  C   UNL     1       1.966   6.260  20.325  0.00  0.00    +0.000 A 
ENDBRANCH  29  30
ENDBRANCH  28  29
ENDBRANCH  25  28
ENDBRANCH   1  26
TORSDOF 8
ENDMDL
MODEL 5
REMARK VINA RESULT:      -8.7      4.456      8.048
REMARK  Name = 
REMARK  8 active torsions:
REMARK  status: ('A' for Active; 'I' for Inactive)
REMARK    1  A    between atoms: C_2  and  C_3
REMARK    2  A    between atoms: C_3  and  O_4
REMARK    3  A    between atoms: O_4  and  C_5
REMARK    4  A    between atoms: N_11  and  C_12
REMARK    5  A    between atoms: C_12  and  C_13
REMARK    6  A    between atoms: C_12  and  C_20
REMARK    7  A    between atoms: C_22  and  N_23
REMARK    8  A    between atoms: C_32  and  O_33
REMARK                            x       y       z     vdW  Elec       q    Type
REMARK                         _______ _______ _______ _____ _____    ______ ____
ROOT
ATOM      1  C   UNL     1      -0.169  12.810  19.973  0.00  0.00    +0.000 C 
ENDROOT
BRANCH   1   2
ATOM      2  C   UNL     1      -1.503  12.525  19.280  0.00  0.00    +0.000 A 
ATOM      3  C   UNL     1      -1.544  11.942  18.004  0.00  0.00    +0.000 A 
ATOM      4  C   UNL     1      -2.742  11.391  17.543  0.00  0.00    +0.000 A 
ATOM      5  C   UNL     1      -3.928  11.399  18.307  0.00  0.00    +0.000 A 
ATOM      6  C   UNL     1      -5.053  10.579  18.087  0.00  0.00    +0.000 A 
ATOM      7  C   UNL     1      -6.194  10.750  18.852  0.00  0.00    +0.000 A 
ATOM      8  C   UNL     1      -6.212  11.798  19.748  0.00  0.00    +0.000 A 
ATOM      9  N   UNL     1      -5.110  12.510  20.079  0.00  0.00    +0.000 NA
ATOM     10  C   UNL     1      -3.962  12.247  19.418  0.00  0.00    +0.000 A 
ATOM     11  C   UNL     1      -2.742  12.748  19.901  0.00  0.00    +0.000 A 
BRANCH   4  12
ATOM     12  N   UNL     1      -2.757  10.841  16.193  0.00  0.00    +0.000 N 
ATOM     13  O   UNL     1      -3.271  11.545  15.306  0.00  0.00    +0.000 OA
ATOM     14  O   UNL     1      -2.302   9.708  16.046  0.00  0.00    +0.000 OA
ENDBRANCH   4  12
BRANCH  11  15
ATOM     15  O   UNL     1      -2.779  13.443  21.094  0.00  0.00    +0.000 OA
ATOM     16  H   UNL     1      -3.561  13.083  21.567  0.00  0.00    +0.000 HD
ENDBRANCH  11  15
ENDBRANCH   1   2
BRANCH   1  17
ATOM     17  C   UNL     1       0.842  13.604  19.146  0.00  0.00    +0.000 A 
ATOM     18  C   UNL     1       2.013  12.978  18.671  0.00  0.00    +0.000 A 
ATOM     19  C   UNL     1       3.080  13.726  18.166  0.00  0.00    +0.000 A 
ATOM     20  C   UNL     1       2.999  15.113  18.120  0.00  0.00    +0.000 A 
ATOM     21  C   UNL     1       1.823  15.749  18.510  0.00  0.00    +0.000 A 
ATOM     22  C   UNL     1       0.746  15.003  19.004  0.00  0.00    +0.000 A 
ATOM     23 CL   UNL     1      -0.673  15.886  19.449  0.00  0.00    +0.000 Cl
ENDBRANCH   1  17
BRANCH   1  26
ATOM     24  O   UNL     1      -0.614  11.306  22.377  0.00  0.00    +0.000 OA
ATOM     25  C   UNL     1       0.241  10.909  21.584  0.00  0.00    +0.000 C 
ATOM     26  N   UNL     1       0.512  11.566  20.400  0.00  0.00    +0.000 N 
ATOM     27  H   UNL     1       1.294  11.248  19.844  0.00  0.00    +0.000 HD
BRANCH  25  28
ATOM     28  C   UNL     1       1.017   9.593  21.811  0.00  0.00    +0.000 C 
BRANCH  28  29
ATOM     29  O   UNL     1       0.576   8.539  20.962  0.00  0.00    +0.000 OA
BRANCH  29  30
ATOM     30  C   UNL     1       1.425   8.147  19.956  0.00  0.00    +0.000 A 
ATOM     31  C   UNL     1       2.060   6.919  20.164  0.00  0.00    +0.000 A 
ATOM     32  C   UNL     1       2.954   6.400  19.224  0.00  0.00    +0.000 A 
ATOM     33  C   UNL     1       3.212   7.100  18.044  0.00  0.00    +0.000 A 
ATOM     34  C   UNL     1       2.559   8.311  17.811  0.00  0.00    +0.000 A 
ATOM     35  C   UNL     1       1.667   8.832  18.761  0.00  0.00    +0.000 A 
ENDBRANCH  29  30
ENDBRANCH  28  29
ENDBRANCH  25  28
ENDBRANCH   1  26
TORSDOF 8
ENDMDL
MODEL 6
REMARK VINA RESULT:      -8.7      3.727      6.069
REMARK  Name = 
REMARK  8 active torsions:
REMARK  status: ('A' for Active; 'I' for Inactive)
REMARK    1  A    between atoms: C_2  and  C_3
REMARK    2  A    between atoms: C_3  and  O_4
REMARK    3  A    between atoms: O_4  and  C_5
REMARK    4  A    between atoms: N_11  and  C_12
REMARK    5  A    between atoms: C_12  and  C_13
REMARK    6  A    between atoms: C_12  and  C_20
REMARK    7  A    between atoms: C_22  and  N_23
REMARK    8  A    between atoms: C_32  and  O_33
REMARK                            x       y       z     vdW  Elec       q    Type
REMARK                         _______ _______ _______ _____ _____    ______ ____
ROOT
ATOM      1  C   UNL     1       1.020  11.690  19.755  0.00  0.00    +0.000 C 
ENDROOT
BRANCH   1   2
ATOM      2  C   UNL     1       1.934  12.915  19.814  0.00  0.00    +0.000 A 
ATOM      3  C   UNL     1       2.137  13.609  21.018  0.00  0.00    +0.000 A 
ATOM      4  C   UNL     1       3.211  14.496  21.123  0.00  0.00    +0.000 A 
ATOM      5  C   UNL     1       4.109  14.733  20.061  0.00  0.00    +0.000 A 
ATOM      6  C   UNL     1       5.388  15.314  20.180  0.00  0.00    +0.000 A 
ATOM      7  C   UNL     1       6.136  15.579  19.046  0.00  0.00    +0.000 A 
ATOM      8  C   UNL     1       5.545  15.347  17.822  0.00  0.00    +0.000 A 
ATOM      9  N   UNL     1       4.385  14.668  17.675  0.00  0.00    +0.000 NA
ATOM     10  C   UNL     1       3.722  14.294  18.791  0.00  0.00    +0.000 A 
ATOM     11  C   UNL     1       2.676  13.361  18.708  0.00  0.00    +0.000 A 
BRANCH   4  12
ATOM     12  N   UNL     1       3.357  15.234  22.371  0.00  0.00    +0.000 N 
ATOM     13  O   UNL     1       4.043  14.701  23.261  0.00  0.00    +0.000 OA
ATOM     14  O   UNL     1       2.756  16.302  22.462  0.00  0.00    +0.000 OA
ENDBRANCH   4  12
BRANCH  11  15
ATOM     15  O   UNL     1       2.422  12.813  17.466  0.00  0.00    +0.000 OA
ATOM     16  H   UNL     1       2.319  11.850  17.635  0.00  0.00    +0.000 HD
ENDBRANCH  11  15
ENDBRANCH   1   2
BRANCH   1  17
ATOM     17  C   UNL     1       0.487  11.205  21.103  0.00  0.00    +0.000 A 
ATOM     18  C   UNL     1       1.050  10.068  21.719  0.00  0.00    +0.000 A 
ATOM     19  C   UNL     1       0.414   9.435  22.789  0.00  0.00    +0.000 A 
ATOM     20  C   UNL     1      -0.794   9.925  23.273  0.00  0.00    +0.000 A 
ATOM     21  C   UNL     1      -1.329  11.092  22.733  0.00  0.00    +0.000 A 
ATOM     22  C   UNL     1      -0.689  11.738  21.668  0.00  0.00    +0.000 A 
ATOM     23 CL   UNL     1      -1.428  13.186  21.079  0.00  0.00    +0.000 Cl
ENDBRANCH   1  17
BRANCH   1  26
ATOM     24  O   UNL     1      -0.109   9.829  17.885  0.00  0.00    +0.000 OA
ATOM     25  C   UNL     1       1.062   9.676  18.232  0.00  0.00    +0.000 C 
ATOM     26  N   UNL     1       1.688  10.530  19.118  0.00  0.00    +0.000 N 
ATOM     27  H   UNL     1       2.615  10.291  19.441  0.00  0.00    +0.000 HD
BRANCH  25  28
ATOM     28  C   UNL     1       1.953   8.566  17.633  0.00  0.00    +0.000 C 
BRANCH  28  29
ATOM     29  O   UNL     1       2.264   7.541  18.571  0.00  0.00    +0.000 OA
BRANCH  29  30
ATOM     30  C   UNL     1       2.848   6.399  18.081  0.00  0.00    +0.000 A 
ATOM     31  C   UNL     1       2.039   5.258  18.119  0.00  0.00    +0.000 A 
ATOM     32  C   UNL     1       2.507   4.025  17.657  0.00  0.00    +0.000 A 
ATOM     33  C   UNL     1       3.795   3.920  17.128  0.00  0.00    +0.000 A 
ATOM     34  C   UNL     1       4.599   5.059  17.055  0.00  0.00    +0.000 A 
ATOM     35  C   UNL     1       4.127   6.293  17.527  0.00  0.00    +0.000 A 
ENDBRANCH  29  30
ENDBRANCH  28  29
ENDBRANCH  25  28
ENDBRANCH   1  26
TORSDOF 8
ENDMDL
MODEL 7
REMARK VINA RESULT:      -8.7      4.005      7.234
REMARK  Name = 
REMARK  8 active torsions:
REMARK  status: ('A' for Active; 'I' for Inactive)
REMARK    1  A    between atoms: C_2  and  C_3
REMARK    2  A    between atoms: C_3  and  O_4
REMARK    3  A    between atoms: O_4  and  C_5
REMARK    4  A    between atoms: N_11  and  C_12
REMARK    5  A    between atoms: C_12  and  C_13
REMARK    6  A    between atoms: C_12  and  C_20
REMARK    7  A    between atoms: C_22  and  N_23
REMARK    8  A    between atoms: C_32  and  O_33
REMARK                            x       y       z     vdW  Elec       q    Type
REMARK                         _______ _______ _______ _____ _____    ______ ____
ROOT
ATOM      1  C   UNL     1      -0.186  11.535  20.170  0.00  0.00    +0.000 C 
ENDROOT
BRANCH   1   2
ATOM      2  C   UNL     1      -1.466  11.690  19.347  0.00  0.00    +0.000 A 
ATOM      3  C   UNL     1      -1.559  11.166  18.048  0.00  0.00    +0.000 A 
ATOM      4  C   UNL     1      -2.817  11.024  17.457  0.00  0.00    +0.000 A 
ATOM      5  C   UNL     1      -4.012  11.392  18.111  0.00  0.00    +0.000 A 
ATOM      6  C   UNL     1      -5.308  10.969  17.754  0.00  0.00    +0.000 A 
ATOM      7  C   UNL     1      -6.410  11.477  18.420  0.00  0.00    +0.000 A 
ATOM      8  C   UNL     1      -6.191  12.467  19.355  0.00  0.00    +0.000 A 
ATOM      9  N   UNL     1      -4.962  12.794  19.816  0.00  0.00    +0.000 NA
ATOM     10  C   UNL     1      -3.891  12.194  19.250  0.00  0.00    +0.000 A 
ATOM     11  C   UNL     1      -2.631  12.282  19.863  0.00  0.00    +0.000 A 
BRANCH   4  12
ATOM     12  N   UNL     1      -2.868  10.523  16.089  0.00  0.00    +0.000 N 
ATOM     13  O   UNL     1      -3.114  11.354  15.197  0.00  0.00    +0.000 OA
ATOM     14  O   UNL     1      -2.708   9.315  15.929  0.00  0.00    +0.000 OA
ENDBRANCH   4  12
BRANCH  11  15
ATOM     15  O   UNL     1      -2.568  12.938  21.077  0.00  0.00    +0.000 OA
ATOM     16  H   UNL     1      -2.762  13.877  20.862  0.00  0.00    +0.000 HD
ENDBRANCH  11  15
ENDBRANCH   1   2
BRANCH   1  17
ATOM     17  C   UNL     1       1.006  12.362  19.687  0.00  0.00    +0.000 A 
ATOM     18  C   UNL     1       1.190  13.679  20.158  0.00  0.00    +0.000 A 
ATOM     19  C   UNL     1       2.086  14.551  19.535  0.00  0.00    +0.000 A 
ATOM     20  C   UNL     1       2.820  14.128  18.433  0.00  0.00    +0.000 A 
ATOM     21  C   UNL     1       2.713  12.809  17.998  0.00  0.00    +0.000 A 
ATOM     22  C   UNL     1       1.827  11.927  18.627  0.00  0.00    +0.000 A 
ATOM     23 CL   UNL     1       1.778  10.308  18.020  0.00  0.00    +0.000 Cl
ENDBRANCH   1  17
BRANCH   1  26
ATOM     24  O   UNL     1       0.919  10.144  22.424  0.00  0.00    +0.000 OA
ATOM     25  C   UNL     1       0.800   9.538  21.359  0.00  0.00    +0.000 C 
ATOM     26  N   UNL     1       0.269  10.126  20.229  0.00  0.00    +0.000 N 
ATOM     27  H   UNL     1       0.293   9.608  19.362  0.00  0.00    +0.000 HD
BRANCH  25  28
ATOM     28  C   UNL     1       1.154   8.040  21.229  0.00  0.00    +0.000 C 
BRANCH  28  29
ATOM     29  O   UNL     1       2.102   7.785  20.198  0.00  0.00    +0.000 OA
BRANCH  29  30
ATOM     30  C   UNL     1       2.106   6.526  19.647  0.00  0.00    +0.000 A 
ATOM     31  C   UNL     1       1.657   5.509  20.496  0.00  0.00    +0.000 A 
ATOM     32  C   UNL     1       1.613   4.180  20.068  0.00  0.00    +0.000 A 
ATOM     33  C   UNL     1       2.002   3.850  18.769  0.00  0.00    +0.000 A 
ATOM     34  C   UNL     1       2.421   4.861  17.903  0.00  0.00    +0.000 A 
ATOM     35  C   UNL     1       2.470   6.194  18.339  0.00  0.00    +0.000 A 
ENDBRANCH  29  30
ENDBRANCH  28  29
ENDBRANCH  25  28
ENDBRANCH   1  26
TORSDOF 8
ENDMDL
MODEL 8
REMARK VINA RESULT:      -8.7      3.764      6.154
REMARK  Name = 
REMARK  8 active torsions:
REMARK  status: ('A' for Active; 'I' for Inactive)
REMARK    1  A    between atoms: C_2  and  C_3
REMARK    2  A    between atoms: C_3  and  O_4
REMARK    3  A    between atoms: O_4  and  C_5
REMARK    4  A    between atoms: N_11  and  C_12
REMARK    5  A    between atoms: C_12  and  C_13
REMARK    6  A    between atoms: C_12  and  C_20
REMARK    7  A    between atoms: C_22  and  N_23
REMARK    8  A    between atoms: C_32  and  O_33
REMARK                            x       y       z     vdW  Elec       q    Type
REMARK                         _______ _______ _______ _____ _____    ______ ____
ROOT
ATOM      1  C   UNL     1       0.980  11.804  19.756  0.00  0.00    +0.000 C 
ENDROOT
BRANCH   1   2
ATOM      2  C   UNL     1       1.943  12.990  19.829  0.00  0.00    +0.000 A 
ATOM      3  C   UNL     1       2.168  13.665  21.040  0.00  0.00    +0.000 A 
ATOM      4  C   UNL     1       3.277  14.507  21.157  0.00  0.00    +0.000 A 
ATOM      5  C   UNL     1       4.188  14.717  20.100  0.00  0.00    +0.000 A 
ATOM      6  C   UNL     1       5.489  15.245  20.229  0.00  0.00    +0.000 A 
ATOM      7  C   UNL     1       6.251  15.490  19.100  0.00  0.00    +0.000 A 
ATOM      8  C   UNL     1       5.657  15.293  17.872  0.00  0.00    +0.000 A 
ATOM      9  N   UNL     1       4.470  14.662  17.715  0.00  0.00    +0.000 NA
ATOM     10  C   UNL     1       3.788  14.305  18.825  0.00  0.00    +0.000 A 
ATOM     11  C   UNL     1       2.706  13.416  18.730  0.00  0.00    +0.000 A 
BRANCH   4  12
ATOM     12  N   UNL     1       3.448  15.228  22.412  0.00  0.00    +0.000 N 
ATOM     13  O   UNL     1       2.959  16.369  22.474  0.00  0.00    +0.000 OA
ATOM     14  O   UNL     1       4.099  14.671  23.293  0.00  0.00    +0.000 OA
ENDBRANCH   4  12
BRANCH  11  15
ATOM     15  O   UNL     1       2.435  12.890  17.482  0.00  0.00    +0.000 OA
ATOM     16  H   UNL     1       2.132  13.658  16.949  0.00  0.00    +0.000 HD
ENDBRANCH  11  15
ENDBRANCH   1   2
BRANCH   1  17
ATOM     17  C   UNL     1       0.448  11.308  21.101  0.00  0.00    +0.000 A 
ATOM     18  C   UNL     1       0.983  10.143  21.687  0.00  0.00    +0.000 A 
ATOM     19  C   UNL     1       0.341   9.509  22.753  0.00  0.00    +0.000 A 
ATOM     20  C   UNL     1      -0.847  10.025  23.259  0.00  0.00    +0.000 A 
ATOM     21  C   UNL     1      -1.354  11.218  22.748  0.00  0.00    +0.000 A 
ATOM     22  C   UNL     1      -0.706  11.865  21.689  0.00  0.00    +0.000 A 
ATOM     23 CL   UNL     1      -1.408  13.345  21.136  0.00  0.00    +0.000 Cl
ENDBRANCH   1  17
BRANCH   1  26
ATOM     24  O   UNL     1      -0.289   9.947  17.973  0.00  0.00    +0.000 OA
ATOM     25  C   UNL     1       0.901   9.783  18.244  0.00  0.00    +0.000 C 
ATOM     26  N   UNL     1       1.592  10.634  19.083  0.00  0.00    +0.000 N 
ATOM     27  H   UNL     1       2.536  10.387  19.345  0.00  0.00    +0.000 HD
BRANCH  25  28
ATOM     28  C   UNL     1       1.739   8.660  17.593  0.00  0.00    +0.000 C 
BRANCH  28  29
ATOM     29  O   UNL     1       2.356   7.806  18.551  0.00  0.00    +0.000 OA
BRANCH  29  30
ATOM     30  C   UNL     1       2.816   6.592  18.104  0.00  0.00    +0.000 A 
ATOM     31  C   UNL     1       4.103   6.613  17.556  0.00  0.00    +0.000 A 
ATOM     32  C   UNL     1       4.695   5.450  17.058  0.00  0.00    +0.000 A 
ATOM     33  C   UNL     1       4.010   4.235  17.120  0.00  0.00    +0.000 A 
ATOM     34  C   UNL     1       2.738   4.196  17.694  0.00  0.00    +0.000 A 
ATOM     35  C   UNL     1       2.145   5.369  18.186  0.00  0.00    +0.000 A 
ENDBRANCH  29  30
ENDBRANCH  28  29
ENDBRANCH  25  28
ENDBRANCH   1  26
TORSDOF 8
ENDMDL
MODEL 9
REMARK VINA RESULT:      -8.6      3.513      6.927
REMARK  Name = 
REMARK  8 active torsions:
REMARK  status: ('A' for Active; 'I' for Inactive)
REMARK    1  A    between atoms: C_2  and  C_3
REMARK    2  A    between atoms: C_3  and  O_4
REMARK    3  A    between atoms: O_4  and  C_5
REMARK    4  A    between atoms: N_11  and  C_12
REMARK    5  A    between atoms: C_12  and  C_13
REMARK    6  A    between atoms: C_12  and  C_20
REMARK    7  A    between atoms: C_22  and  N_23
REMARK    8  A    between atoms: C_32  and  O_33
REMARK                            x       y       z     vdW  Elec       q    Type
REMARK                         _______ _______ _______ _____ _____    ______ ____
ROOT
ATOM      1  C   UNL     1       0.763  11.555  18.706  0.00  0.00    +0.000 C 
ENDROOT
BRANCH   1   2
ATOM      2  C   UNL     1       1.781  12.621  19.118  0.00  0.00    +0.000 A 
ATOM      3  C   UNL     1       2.485  13.359  18.154  0.00  0.00    +0.000 A 
ATOM      4  C   UNL     1       3.142  14.532  18.537  0.00  0.00    +0.000 A 
ATOM      5  C   UNL     1       3.134  15.009  19.865  0.00  0.00    +0.000 A 
ATOM      6  C   UNL     1       3.452  16.323  20.267  0.00  0.00    +0.000 A 
ATOM      7  C   UNL     1       3.498  16.642  21.613  0.00  0.00    +0.000 A 
ATOM      8  C   UNL     1       3.322  15.617  22.519  0.00  0.00    +0.000 A 
ATOM      9  N   UNL     1       2.883  14.386  22.171  0.00  0.00    +0.000 NA
ATOM     10  C   UNL     1       2.713  14.120  20.857  0.00  0.00    +0.000 A 
ATOM     11  C   UNL     1       2.006  12.974  20.458  0.00  0.00    +0.000 A 
BRANCH   4  12
ATOM     12  N   UNL     1       3.904  15.242  17.518  0.00  0.00    +0.000 N 
ATOM     13  O   UNL     1       5.128  15.030  17.483  0.00  0.00    +0.000 OA
ATOM     14  O   UNL     1       3.285  16.029  16.804  0.00  0.00    +0.000 OA
ENDBRANCH   4  12
BRANCH  11  15
ATOM     15  O   UNL     1       1.453  12.199  21.458  0.00  0.00    +0.000 OA
ATOM     16  H   UNL     1       1.366  12.807  22.225  0.00  0.00    +0.000 HD
ENDBRANCH  11  15
ENDBRANCH   1   2
BRANCH   1  17
ATOM     17  C   UNL     1      -0.704  11.958  18.855  0.00  0.00    +0.000 A 
ATOM     18  C   UNL     1      -1.064  13.009  19.724  0.00  0.00    +0.000 A 
ATOM     19  C   UNL     1      -2.393  13.214  20.100  0.00  0.00    +0.000 A 
ATOM     20  C   UNL     1      -3.393  12.379  19.613  0.00  0.00    +0.000 A 
ATOM     21  C   UNL     1      -3.073  11.384  18.693  0.00  0.00    +0.000 A 
ATOM     22  C   UNL     1      -1.743  11.183  18.302  0.00  0.00    +0.000 A 
ATOM     23 CL   UNL     1      -1.453   9.931  17.145  0.00  0.00    +0.000 Cl
ENDBRANCH   1  17
BRANCH   1  26
ATOM     24  O   UNL     1       2.091   9.160  17.848  0.00  0.00    +0.000 OA
ATOM     25  C   UNL     1       1.587   9.183  18.971  0.00  0.00    +0.000 C 
ATOM     26  N   UNL     1       0.939  10.297  19.468  0.00  0.00    +0.000 N 
ATOM     27  H   UNL     1       0.459  10.217  20.353  0.00  0.00    +0.000 HD
BRANCH  25  28
ATOM     28  C   UNL     1       1.718   7.995  19.949  0.00  0.00    +0.000 C 
BRANCH  28  29
ATOM     29  O   UNL     1       2.575   6.969  19.460  0.00  0.00    +0.000 OA
BRANCH  29  30
ATOM     30  C   UNL     1       2.078   5.688  19.450  0.00  0.00    +0.000 A 
ATOM     31  C   UNL     1       2.082   5.063  18.199  0.00  0.00    +0.000 A 
ATOM     32  C   UNL     1       1.600   3.761  18.041  0.00  0.00    +0.000 A 
ATOM     33  C   UNL     1       1.124   3.053  19.146  0.00  0.00    +0.000 A 
ATOM     34  C   UNL     1       1.145   3.655  20.405  0.00  0.00    +0.000 A 
ATOM     35  C   UNL     1       1.623   4.966  20.557  0.00  0.00    +0.000 A 
ENDBRANCH  29  30
ENDBRANCH  28  29
ENDBRANCH  25  28
ENDBRANCH   1  26
TORSDOF 8
ENDMDL
