MODEL 1
REMARK VINA RESULT:      -7.7      0.000      0.000
REMARK  Name = 
REMARK  14 active torsions:
REMARK  status: ('A' for Active; 'I' for Inactive)
REMARK    1  A    between atoms: C_1  and  C_2
REMARK    2  A    between atoms: C_2  and  N_3
REMARK    3  A    between atoms: C_4  and  C_5
REMARK    4  A    between atoms: C_4  and  C_7
REMARK    5  A    between atoms: C_7  and  C_9
REMARK    6  A    between atoms: C_9  and  S_10
REMARK    7  A    between atoms: S_10  and  C_11
REMARK    8  A    between atoms: N_21  and  C_22
REMARK    9  A    between atoms: C_22  and  C_23
REMARK   10  A    between atoms: C_23  and  C_24
REMARK   11  A    between atoms: C_24  and  O_25
REMARK   12  A    between atoms: O_25  and  C_26
REMARK   13  A    between atoms: C_26  and  C_27
REMARK   14  A    between atoms: C_26  and  C_28
REMARK                            x       y       z     vdW  Elec       q    Type
REMARK                         _______ _______ _______ _____ _____    ______ ____
ROOT
ATOM      1  C   UNL     1       2.325   6.981  19.707  0.00  0.00    +0.000 A 
ATOM      2  N   UNL     1       1.629   7.405  20.712  0.00  0.00    +0.000 NA
ATOM      3  C   UNL     1       0.997   8.642  20.630  0.00  0.00    +0.000 A 
ATOM      4  C   UNL     1       0.164   9.044  21.676  0.00  0.00    +0.000 A 
ATOM      5  C   UNL     1      -0.512  10.266  21.617  0.00  0.00    +0.000 A 
ATOM      6  C   UNL     1      -0.347  11.104  20.515  0.00  0.00    +0.000 A 
ATOM      7  C   UNL     1       0.488  10.710  19.469  0.00  0.00    +0.000 A 
ATOM      8  C   UNL     1       1.141   9.474  19.531  0.00  0.00    +0.000 A 
ATOM      9  C   UNL     1       1.939   8.976  18.404  0.00  0.00    +0.000 A 
ATOM     10  O   UNL     1       2.015   9.686  17.402  0.00  0.00    +0.000 OA
ATOM     11  N   UNL     1       2.518   7.707  18.533  0.00  0.00    +0.000 N 
ENDROOT
BRANCH   1  12
ATOM     12  S   UNL     1       3.045   5.377  19.890  0.00  0.00    +0.000 S 
BRANCH  12  13
ATOM     13  C   UNL     1       1.985   4.705  21.222  0.00  0.00    +0.000 C 
BRANCH  13  14
ATOM     14  C   UNL     1       2.082   3.185  21.303  0.00  0.00    +0.000 C 
ATOM     15  O   UNL     1       1.477   2.582  22.193  0.00  0.00    +0.000 OA
BRANCH  14  18
ATOM     16  C   UNL     1       1.086   2.429  18.573  0.00  0.00    +0.000 C 
ATOM     17  C   UNL     1       2.472   2.060  19.066  0.00  0.00    +0.000 C 
ATOM     18  C   UNL     1       2.923   2.439  20.290  0.00  0.00    +0.000 C 
BRANCH  17  19
ATOM     19  N   UNL     1       3.200   1.278  18.171  0.00  0.00    +0.000 N 
ATOM     20  H   UNL     1       2.635   0.742  17.514  0.00  0.00    +0.000 HD
ATOM     21  H   UNL     1       3.961   0.721  18.558  0.00  0.00    +0.000 HD
ENDBRANCH  17  19
BRANCH  18  22
ATOM     22  C   UNL     1       4.263   1.909  20.772  0.00  0.00    +0.000 C 
ATOM     23  N   UNL     1       5.374   1.468  21.174  0.00  0.00    +0.000 NA
ENDBRANCH  18  22
ENDBRANCH  14  18
ENDBRANCH  13  14
ENDBRANCH  12  13
ENDBRANCH   1  12
BRANCH  11  24
ATOM     24  C   UNL     1       3.096   7.162  17.291  0.00  0.00    +0.000 C 
BRANCH  24  25
ATOM     25  C   UNL     1       4.606   6.865  17.350  0.00  0.00    +0.000 C 
BRANCH  25  26
ATOM     26  C   UNL     1       5.099   6.229  16.049  0.00  0.00    +0.000 C 
BRANCH  26  27
ATOM     27  O   UNL     1       6.526   6.250  16.032  0.00  0.00    +0.000 OA
BRANCH  27  28
ATOM     28  C   UNL     1       7.149   4.962  16.049  0.00  0.00    +0.000 C 
ATOM     29  C   UNL     1       7.570   4.571  17.461  0.00  0.00    +0.000 C 
ATOM     30  C   UNL     1       6.122   3.963  15.520  0.00  0.00    +0.000 C 
ENDBRANCH  27  28
ENDBRANCH  26  27
ENDBRANCH  25  26
ENDBRANCH  24  25
ENDBRANCH  11  24
TORSDOF 11
ENDMDL
MODEL 2
REMARK VINA RESULT:      -7.4      0.876      1.090
REMARK  Name = 
REMARK  14 active torsions:
REMARK  status: ('A' for Active; 'I' for Inactive)
REMARK    1  A    between atoms: C_1  and  C_2
REMARK    2  A    between atoms: C_2  and  N_3
REMARK    3  A    between atoms: C_4  and  C_5
REMARK    4  A    between atoms: C_4  and  C_7
REMARK    5  A    between atoms: C_7  and  C_9
REMARK    6  A    between atoms: C_9  and  S_10
REMARK    7  A    between atoms: S_10  and  C_11
REMARK    8  A    between atoms: N_21  and  C_22
REMARK    9  A    between atoms: C_22  and  C_23
REMARK   10  A    between atoms: C_23  and  C_24
REMARK   11  A    between atoms: C_24  and  O_25
REMARK   12  A    between atoms: O_25  and  C_26
REMARK   13  A    between atoms: C_26  and  C_27
REMARK   14  A    between atoms: C_26  and  C_28
REMARK                            x       y       z     vdW  Elec       q    Type
REMARK                         _______ _______ _______ _____ _____    ______ ____
ROOT
ATOM      1  C   UNL     1       2.103   7.174  19.964  0.00  0.00    +0.000 A 
ATOM      2  N   UNL     1       1.425   7.531  21.007  0.00  0.00    +0.000 NA
ATOM      3  C   UNL     1       0.791   8.769  21.017  0.00  0.00    +0.000 A 
ATOM      4  C   UNL     1      -0.025   9.101  22.101  0.00  0.00    +0.000 A 
ATOM      5  C   UNL     1      -0.702  10.324  22.133  0.00  0.00    +0.000 A 
ATOM      6  C   UNL     1      -0.555  11.231  21.085  0.00  0.00    +0.000 A 
ATOM      7  C   UNL     1       0.261  10.908  20.001  0.00  0.00    +0.000 A 
ATOM      8  C   UNL     1       0.916   9.672  19.972  0.00  0.00    +0.000 A 
ATOM      9  C   UNL     1       1.695   9.249  18.801  0.00  0.00    +0.000 A 
ATOM     10  O   UNL     1       1.753  10.022  17.847  0.00  0.00    +0.000 OA
ATOM     11  N   UNL     1       2.276   7.975  18.837  0.00  0.00    +0.000 N 
ENDROOT
BRANCH   1  12
ATOM     12  S   UNL     1       2.826   5.562  20.030  0.00  0.00    +0.000 S 
BRANCH  12  13
ATOM     13  C   UNL     1       1.562   4.688  21.025  0.00  0.00    +0.000 C 
BRANCH  13  14
ATOM     14  C   UNL     1       1.947   3.233  21.267  0.00  0.00    +0.000 C 
ATOM     15  O   UNL     1       1.571   2.666  22.296  0.00  0.00    +0.000 OA
BRANCH  14  18
ATOM     16  C   UNL     1       0.920   2.436  18.560  0.00  0.00    +0.000 C 
ATOM     17  C   UNL     1       2.325   2.108  19.027  0.00  0.00    +0.000 C 
ATOM     18  C   UNL     1       2.789   2.506  20.240  0.00  0.00    +0.000 C 
BRANCH  17  19
ATOM     19  N   UNL     1       3.058   1.343  18.122  0.00  0.00    +0.000 N 
ATOM     20  H   UNL     1       2.863   1.538  17.141  0.00  0.00    +0.000 HD
ATOM     21  H   UNL     1       3.116   0.341  18.305  0.00  0.00    +0.000 HD
ENDBRANCH  17  19
BRANCH  18  22
ATOM     22  C   UNL     1       4.152   2.016  20.699  0.00  0.00    +0.000 C 
ATOM     23  N   UNL     1       5.284   1.609  21.081  0.00  0.00    +0.000 NA
ENDBRANCH  18  22
ENDBRANCH  14  18
ENDBRANCH  13  14
ENDBRANCH  12  13
ENDBRANCH   1  12
BRANCH  11  24
ATOM     24  C   UNL     1       2.833   7.513  17.552  0.00  0.00    +0.000 C 
BRANCH  24  25
ATOM     25  C   UNL     1       4.319   7.112  17.592  0.00  0.00    +0.000 C 
BRANCH  25  26
ATOM     26  C   UNL     1       4.835   6.749  16.199  0.00  0.00    +0.000 C 
BRANCH  26  27
ATOM     27  O   UNL     1       6.263   6.762  16.213  0.00  0.00    +0.000 OA
BRANCH  27  28
ATOM     28  C   UNL     1       6.853   6.726  17.515  0.00  0.00    +0.000 C 
ATOM     29  C   UNL     1       7.542   5.391  17.774  0.00  0.00    +0.000 C 
ATOM     30  C   UNL     1       7.878   7.856  17.572  0.00  0.00    +0.000 C 
ENDBRANCH  27  28
ENDBRANCH  26  27
ENDBRANCH  25  26
ENDBRANCH  24  25
ENDBRANCH  11  24
TORSDOF 11
ENDMDL
MODEL 3
REMARK VINA RESULT:      -7.2      0.841      1.797
REMARK  Name = 
REMARK  14 active torsions:
REMARK  status: ('A' for Active; 'I' for Inactive)
REMARK    1  A    between atoms: C_1  and  C_2
REMARK    2  A    between atoms: C_2  and  N_3
REMARK    3  A    between atoms: C_4  and  C_5
REMARK    4  A    between atoms: C_4  and  C_7
REMARK    5  A    between atoms: C_7  and  C_9
REMARK    6  A    between atoms: C_9  and  S_10
REMARK    7  A    between atoms: S_10  and  C_11
REMARK    8  A    between atoms: N_21  and  C_22
REMARK    9  A    between atoms: C_22  and  C_23
REMARK   10  A    between atoms: C_23  and  C_24
REMARK   11  A    between atoms: C_24  and  O_25
REMARK   12  A    between atoms: O_25  and  C_26
REMARK   13  A    between atoms: C_26  and  C_27
REMARK   14  A    between atoms: C_26  and  C_28
REMARK                            x       y       z     vdW  Elec       q    Type
REMARK                         _______ _______ _______ _____ _____    ______ ____
ROOT
ATOM      1  C   UNL     1       2.430   6.911  19.674  0.00  0.00    +0.000 A 
ATOM      2  N   UNL     1       1.717   7.340  20.665  0.00  0.00    +0.000 NA
ATOM      3  C   UNL     1       1.076   8.571  20.560  0.00  0.00    +0.000 A 
ATOM      4  C   UNL     1       0.226   8.978  21.590  0.00  0.00    +0.000 A 
ATOM      5  C   UNL     1      -0.459  10.194  21.508  0.00  0.00    +0.000 A 
ATOM      6  C   UNL     1      -0.285  11.020  20.398  0.00  0.00    +0.000 A 
ATOM      7  C   UNL     1       0.566  10.621  19.368  0.00  0.00    +0.000 A 
ATOM      8  C   UNL     1       1.228   9.392  19.454  0.00  0.00    +0.000 A 
ATOM      9  C   UNL     1       2.046   8.887  18.344  0.00  0.00    +0.000 A 
ATOM     10  O   UNL     1       2.130   9.586  17.335  0.00  0.00    +0.000 OA
ATOM     11  N   UNL     1       2.633   7.624  18.494  0.00  0.00    +0.000 N 
ENDROOT
BRANCH   1  12
ATOM     12  S   UNL     1       3.160   5.315  19.886  0.00  0.00    +0.000 S 
BRANCH  12  13
ATOM     13  C   UNL     1       2.060   4.632  21.179  0.00  0.00    +0.000 C 
BRANCH  13  14
ATOM     14  C   UNL     1       2.126   3.109  21.225  0.00  0.00    +0.000 C 
ATOM     15  O   UNL     1       2.021   2.527  22.308  0.00  0.00    +0.000 OA
BRANCH  14  18
ATOM     16  C   UNL     1       4.772   1.968  20.380  0.00  0.00    +0.000 C 
ATOM     17  C   UNL     1       3.522   1.845  19.529  0.00  0.00    +0.000 C 
ATOM     18  C   UNL     1       2.323   2.335  19.940  0.00  0.00    +0.000 C 
BRANCH  17  19
ATOM     19  N   UNL     1       3.735   1.229  18.298  0.00  0.00    +0.000 N 
ATOM     20  H   UNL     1       4.566   1.545  17.800  0.00  0.00    +0.000 HD
ATOM     21  H   UNL     1       2.930   1.146  17.677  0.00  0.00    +0.000 HD
ENDBRANCH  17  19
BRANCH  18  22
ATOM     22  C   UNL     1       1.151   2.305  18.973  0.00  0.00    +0.000 C 
ATOM     23  N   UNL     1       0.178   2.282  18.171  0.00  0.00    +0.000 NA
ENDBRANCH  18  22
ENDBRANCH  14  18
ENDBRANCH  13  14
ENDBRANCH  12  13
ENDBRANCH   1  12
BRANCH  11  24
ATOM     24  C   UNL     1       3.233   7.070  17.267  0.00  0.00    +0.000 C 
BRANCH  24  25
ATOM     25  C   UNL     1       4.769   7.144  17.200  0.00  0.00    +0.000 C 
BRANCH  25  26
ATOM     26  C   UNL     1       5.313   6.366  16.001  0.00  0.00    +0.000 C 
BRANCH  26  27
ATOM     27  O   UNL     1       4.900   5.003  16.103  0.00  0.00    +0.000 OA
BRANCH  27  28
ATOM     28  C   UNL     1       5.940   4.042  15.909  0.00  0.00    +0.000 C 
ATOM     29  C   UNL     1       6.257   3.862  14.428  0.00  0.00    +0.000 C 
ATOM     30  C   UNL     1       7.174   4.565  16.642  0.00  0.00    +0.000 C 
ENDBRANCH  27  28
ENDBRANCH  26  27
ENDBRANCH  25  26
ENDBRANCH  24  25
ENDBRANCH  11  24
TORSDOF 11
ENDMDL
MODEL 4
REMARK VINA RESULT:      -7.1      2.403      6.781
REMARK  Name = 
REMARK  14 active torsions:
REMARK  status: ('A' for Active; 'I' for Inactive)
REMARK    1  A    between atoms: C_1  and  C_2
REMARK    2  A    between atoms: C_2  and  N_3
REMARK    3  A    between atoms: C_4  and  C_5
REMARK    4  A    between atoms: C_4  and  C_7
REMARK    5  A    between atoms: C_7  and  C_9
REMARK    6  A    between atoms: C_9  and  S_10
REMARK    7  A    between atoms: S_10  and  C_11
REMARK    8  A    between atoms: N_21  and  C_22
REMARK    9  A    between atoms: C_22  and  C_23
REMARK   10  A    between atoms: C_23  and  C_24
REMARK   11  A    between atoms: C_24  and  O_25
REMARK   12  A    between atoms: O_25  and  C_26
REMARK   13  A    between atoms: C_26  and  C_27
REMARK   14  A    between atoms: C_26  and  C_28
REMARK                            x       y       z     vdW  Elec       q    Type
REMARK                         _______ _______ _______ _____ _____    ______ ____
ROOT
ATOM      1  C   UNL     1       3.045   6.525  18.373  0.00  0.00    +0.000 A 
ATOM      2  N   UNL     1       2.138   6.091  19.187  0.00  0.00    +0.000 NA
ATOM      3  C   UNL     1       2.333   4.879  19.841  0.00  0.00    +0.000 A 
ATOM      4  C   UNL     1       1.400   4.469  20.796  0.00  0.00    +0.000 A 
ATOM      5  C   UNL     1       1.577   3.272  21.496  0.00  0.00    +0.000 A 
ATOM      6  C   UNL     1       2.685   2.466  21.233  0.00  0.00    +0.000 A 
ATOM      7  C   UNL     1       3.618   2.867  20.277  0.00  0.00    +0.000 A 
ATOM      8  C   UNL     1       3.439   4.079  19.601  0.00  0.00    +0.000 A 
ATOM      9  C   UNL     1       4.454   4.588  18.668  0.00  0.00    +0.000 A 
ATOM     10  O   UNL     1       5.466   3.910  18.503  0.00  0.00    +0.000 OA
ATOM     11  N   UNL     1       4.217   5.833  18.072  0.00  0.00    +0.000 N 
ENDROOT
BRANCH   1  12
ATOM     12  S   UNL     1       2.726   8.098  17.633  0.00  0.00    +0.000 S 
BRANCH  12  13
ATOM     13  C   UNL     1       1.664   8.846  18.922  0.00  0.00    +0.000 C 
BRANCH  13  14
ATOM     14  C   UNL     1       1.287  10.282  18.576  0.00  0.00    +0.000 C 
ATOM     15  O   UNL     1       2.139  11.039  18.104  0.00  0.00    +0.000 OA
BRANCH  14  18
ATOM     16  C   UNL     1       0.469  11.839  21.010  0.00  0.00    +0.000 C 
ATOM     17  C   UNL     1      -0.518  11.432  19.933  0.00  0.00    +0.000 C 
ATOM     18  C   UNL     1      -0.129  10.759  18.820  0.00  0.00    +0.000 C 
BRANCH  17  19
ATOM     19  N   UNL     1      -1.838  11.776  20.218  0.00  0.00    +0.000 N 
ATOM     20  H   UNL     1      -2.373  12.115  19.419  0.00  0.00    +0.000 HD
ATOM     21  H   UNL     1      -1.999  12.343  21.049  0.00  0.00    +0.000 HD
ENDBRANCH  17  19
BRANCH  18  22
ATOM     22  C   UNL     1      -1.194  10.256  17.859  0.00  0.00    +0.000 C 
ATOM     23  N   UNL     1      -2.078   9.839  17.062  0.00  0.00    +0.000 NA
ENDBRANCH  18  22
ENDBRANCH  14  18
ENDBRANCH  13  14
ENDBRANCH  12  13
ENDBRANCH   1  12
BRANCH  11  24
ATOM     24  C   UNL     1       5.367   6.400  17.345  0.00  0.00    +0.000 C 
BRANCH  24  25
ATOM     25  C   UNL     1       5.303   6.261  15.813  0.00  0.00    +0.000 C 
BRANCH  25  26
ATOM     26  C   UNL     1       6.191   5.117  15.320  0.00  0.00    +0.000 C 
BRANCH  26  27
ATOM     27  O   UNL     1       5.470   4.351  14.355  0.00  0.00    +0.000 OA
BRANCH  27  28
ATOM     28  C   UNL     1       6.276   3.755  13.334  0.00  0.00    +0.000 C 
ATOM     29  C   UNL     1       5.429   3.319  12.145  0.00  0.00    +0.000 C 
ATOM     30  C   UNL     1       7.286   4.812  12.890  0.00  0.00    +0.000 C 
ENDBRANCH  27  28
ENDBRANCH  26  27
ENDBRANCH  25  26
ENDBRANCH  24  25
ENDBRANCH  11  24
TORSDOF 11
ENDMDL
MODEL 5
REMARK VINA RESULT:      -7.1      1.189      1.447
REMARK  Name = 
REMARK  14 active torsions:
REMARK  status: ('A' for Active; 'I' for Inactive)
REMARK    1  A    between atoms: C_1  and  C_2
REMARK    2  A    between atoms: C_2  and  N_3
REMARK    3  A    between atoms: C_4  and  C_5
REMARK    4  A    between atoms: C_4  and  C_7
REMARK    5  A    between atoms: C_7  and  C_9
REMARK    6  A    between atoms: C_9  and  S_10
REMARK    7  A    between atoms: S_10  and  C_11
REMARK    8  A    between atoms: N_21  and  C_22
REMARK    9  A    between atoms: C_22  and  C_23
REMARK   10  A    between atoms: C_23  and  C_24
REMARK   11  A    between atoms: C_24  and  O_25
REMARK   12  A    between atoms: O_25  and  C_26
REMARK   13  A    between atoms: C_26  and  C_27
REMARK   14  A    between atoms: C_26  and  C_28
REMARK                            x       y       z     vdW  Elec       q    Type
REMARK                         _______ _______ _______ _____ _____    ______ ____
ROOT
ATOM      1  C   UNL     1       2.100   7.150  20.129  0.00  0.00    +0.000 A 
ATOM      2  N   UNL     1       1.420   7.771  21.039  0.00  0.00    +0.000 NA
ATOM      3  C   UNL     1       0.822   8.988  20.731  0.00  0.00    +0.000 A 
ATOM      4  C   UNL     1       0.005   9.599  21.684  0.00  0.00    +0.000 A 
ATOM      5  C   UNL     1      -0.638  10.808  21.401  0.00  0.00    +0.000 A 
ATOM      6  C   UNL     1      -0.454  11.424  20.164  0.00  0.00    +0.000 A 
ATOM      7  C   UNL     1       0.365  10.822  19.209  0.00  0.00    +0.000 A 
ATOM      8  C   UNL     1       0.984   9.601  19.498  0.00  0.00    +0.000 A 
ATOM      9  C   UNL     1       1.764   8.882  18.482  0.00  0.00    +0.000 A 
ATOM     10  O   UNL     1       1.854   9.393  17.367  0.00  0.00    +0.000 OA
ATOM     11  N   UNL     1       2.307   7.642  18.842  0.00  0.00    +0.000 N 
ENDROOT
BRANCH   1  12
ATOM     12  S   UNL     1       2.776   5.588  20.604  0.00  0.00    +0.000 S 
BRANCH  12  13
ATOM     13  C   UNL     1       1.284   4.538  20.457  0.00  0.00    +0.000 C 
BRANCH  13  14
ATOM     14  C   UNL     1       1.626   3.146  19.939  0.00  0.00    +0.000 C 
ATOM     15  O   UNL     1       0.782   2.248  19.998  0.00  0.00    +0.000 OA
BRANCH  14  18
ATOM     16  C   UNL     1       2.258   3.390  17.013  0.00  0.00    +0.000 C 
ATOM     17  C   UNL     1       3.290   2.957  18.036  0.00  0.00    +0.000 C 
ATOM     18  C   UNL     1       3.000   2.885  19.361  0.00  0.00    +0.000 C 
BRANCH  17  19
ATOM     19  N   UNL     1       4.522   2.611  17.484  0.00  0.00    +0.000 N 
ATOM     20  H   UNL     1       5.114   3.401  17.233  0.00  0.00    +0.000 HD
ATOM     21  H   UNL     1       4.518   1.894  16.759  0.00  0.00    +0.000 HD
ENDBRANCH  17  19
BRANCH  18  22
ATOM     22  C   UNL     1       4.039   2.302  20.306  0.00  0.00    +0.000 C 
ATOM     23  N   UNL     1       4.900   1.818  21.090  0.00  0.00    +0.000 NA
ENDBRANCH  18  22
ENDBRANCH  14  18
ENDBRANCH  13  14
ENDBRANCH  12  13
ENDBRANCH   1  12
BRANCH  11  24
ATOM     24  C   UNL     1       2.865   6.863  17.721  0.00  0.00    +0.000 C 
BRANCH  24  25
ATOM     25  C   UNL     1       4.314   7.216  17.338  0.00  0.00    +0.000 C 
BRANCH  25  26
ATOM     26  C   UNL     1       5.160   5.957  17.139  0.00  0.00    +0.000 C 
BRANCH  26  27
ATOM     27  O   UNL     1       5.629   5.505  18.409  0.00  0.00    +0.000 OA
BRANCH  27  28
ATOM     28  C   UNL     1       6.973   5.017  18.416  0.00  0.00    +0.000 C 
ATOM     29  C   UNL     1       7.430   4.634  17.013  0.00  0.00    +0.000 C 
ATOM     30  C   UNL     1       7.853   6.141  18.957  0.00  0.00    +0.000 C 
ENDBRANCH  27  28
ENDBRANCH  26  27
ENDBRANCH  25  26
ENDBRANCH  24  25
ENDBRANCH  11  24
TORSDOF 11
ENDMDL
MODEL 6
REMARK VINA RESULT:      -7.0      2.606      6.679
REMARK  Name = 
REMARK  14 active torsions:
REMARK  status: ('A' for Active; 'I' for Inactive)
REMARK    1  A    between atoms: C_1  and  C_2
REMARK    2  A    between atoms: C_2  and  N_3
REMARK    3  A    between atoms: C_4  and  C_5
REMARK    4  A    between atoms: C_4  and  C_7
REMARK    5  A    between atoms: C_7  and  C_9
REMARK    6  A    between atoms: C_9  and  S_10
REMARK    7  A    between atoms: S_10  and  C_11
REMARK    8  A    between atoms: N_21  and  C_22
REMARK    9  A    between atoms: C_22  and  C_23
REMARK   10  A    between atoms: C_23  and  C_24
REMARK   11  A    between atoms: C_24  and  O_25
REMARK   12  A    between atoms: O_25  and  C_26
REMARK   13  A    between atoms: C_26  and  C_27
REMARK   14  A    between atoms: C_26  and  C_28
REMARK                            x       y       z     vdW  Elec       q    Type
REMARK                         _______ _______ _______ _____ _____    ______ ____
ROOT
ATOM      1  C   UNL     1       3.091   6.642  18.228  0.00  0.00    +0.000 A 
ATOM      2  N   UNL     1       2.141   6.264  19.021  0.00  0.00    +0.000 NA
ATOM      3  C   UNL     1       2.117   4.952  19.480  0.00  0.00    +0.000 A 
ATOM      4  C   UNL     1       1.150   4.581  20.417  0.00  0.00    +0.000 A 
ATOM      5  C   UNL     1       1.113   3.279  20.925  0.00  0.00    +0.000 A 
ATOM      6  C   UNL     1       2.038   2.332  20.485  0.00  0.00    +0.000 A 
ATOM      7  C   UNL     1       3.003   2.694  19.547  0.00  0.00    +0.000 A 
ATOM      8  C   UNL     1       3.042   4.006  19.064  0.00  0.00    +0.000 A 
ATOM      9  C   UNL     1       4.109   4.455  18.159  0.00  0.00    +0.000 A 
ATOM     10  O   UNL     1       4.967   3.634  17.840  0.00  0.00    +0.000 OA
ATOM     11  N   UNL     1       4.099   5.799  17.764  0.00  0.00    +0.000 N 
ENDROOT
BRANCH   1  12
ATOM     12  S   UNL     1       3.059   8.342  17.743  0.00  0.00    +0.000 S 
BRANCH  12  13
ATOM     13  C   UNL     1       1.264   8.674  17.870  0.00  0.00    +0.000 C 
BRANCH  13  14
ATOM     14  C   UNL     1       0.954   9.654  18.996  0.00  0.00    +0.000 C 
ATOM     15  O   UNL     1       1.073   9.292  20.170  0.00  0.00    +0.000 OA
BRANCH  14  18
ATOM     16  C   UNL     1      -1.842  10.312  18.120  0.00  0.00    +0.000 C 
ATOM     17  C   UNL     1      -0.752  11.362  18.225  0.00  0.00    +0.000 C 
ATOM     18  C   UNL     1       0.499  11.057  18.657  0.00  0.00    +0.000 C 
BRANCH  17  19
ATOM     19  N   UNL     1      -1.147  12.631  17.804  0.00  0.00    +0.000 N 
ATOM     20  H   UNL     1      -1.580  12.659  16.881  0.00  0.00    +0.000 HD
ATOM     21  H   UNL     1      -0.478  13.389  17.932  0.00  0.00    +0.000 HD
ENDBRANCH  17  19
BRANCH  18  22
ATOM     22  C   UNL     1       1.576  12.128  18.594  0.00  0.00    +0.000 C 
ATOM     23  N   UNL     1       2.470  13.016  18.542  0.00  0.00    +0.000 NA
ENDBRANCH  18  22
ENDBRANCH  14  18
ENDBRANCH  13  14
ENDBRANCH  12  13
ENDBRANCH   1  12
BRANCH  11  24
ATOM     24  C   UNL     1       5.316   6.246  17.063  0.00  0.00    +0.000 C 
BRANCH  24  25
ATOM     25  C   UNL     1       5.256   6.151  15.527  0.00  0.00    +0.000 C 
BRANCH  25  26
ATOM     26  C   UNL     1       6.118   5.001  15.006  0.00  0.00    +0.000 C 
BRANCH  26  27
ATOM     27  O   UNL     1       5.475   4.411  13.876  0.00  0.00    +0.000 OA
BRANCH  27  28
ATOM     28  C   UNL     1       6.339   3.668  13.011  0.00  0.00    +0.000 C 
ATOM     29  C   UNL     1       5.543   2.898  11.963  0.00  0.00    +0.000 C 
ATOM     30  C   UNL     1       7.259   4.675  12.325  0.00  0.00    +0.000 C 
ENDBRANCH  27  28
ENDBRANCH  26  27
ENDBRANCH  25  26
ENDBRANCH  24  25
ENDBRANCH  11  24
TORSDOF 11
ENDMDL
MODEL 7
REMARK VINA RESULT:      -6.9      2.139      5.135
REMARK  Name = 
REMARK  14 active torsions:
REMARK  status: ('A' for Active; 'I' for Inactive)
REMARK    1  A    between atoms: C_1  and  C_2
REMARK    2  A    between atoms: C_2  and  N_3
REMARK    3  A    between atoms: C_4  and  C_5
REMARK    4  A    between atoms: C_4  and  C_7
REMARK    5  A    between atoms: C_7  and  C_9
REMARK    6  A    between atoms: C_9  and  S_10
REMARK    7  A    between atoms: S_10  and  C_11
REMARK    8  A    between atoms: N_21  and  C_22
REMARK    9  A    between atoms: C_22  and  C_23
REMARK   10  A    between atoms: C_23  and  C_24
REMARK   11  A    between atoms: C_24  and  O_25
REMARK   12  A    between atoms: O_25  and  C_26
REMARK   13  A    between atoms: C_26  and  C_27
REMARK   14  A    between atoms: C_26  and  C_28
REMARK                            x       y       z     vdW  Elec       q    Type
REMARK                         _______ _______ _______ _____ _____    ______ ____
ROOT
ATOM      1  C   UNL     1       2.685   7.186  18.760  0.00  0.00    +0.000 A 
ATOM      2  N   UNL     1       2.610   8.322  18.144  0.00  0.00    +0.000 NA
ATOM      3  C   UNL     1       1.846   9.346  18.694  0.00  0.00    +0.000 A 
ATOM      4  C   UNL     1       1.855  10.600  18.079  0.00  0.00    +0.000 A 
ATOM      5  C   UNL     1       1.124  11.662  18.618  0.00  0.00    +0.000 A 
ATOM      6  C   UNL     1       0.364  11.473  19.772  0.00  0.00    +0.000 A 
ATOM      7  C   UNL     1       0.347  10.222  20.389  0.00  0.00    +0.000 A 
ATOM      8  C   UNL     1       1.101   9.174  19.850  0.00  0.00    +0.000 A 
ATOM      9  C   UNL     1       1.197   7.875  20.530  0.00  0.00    +0.000 A 
ATOM     10  O   UNL     1       0.588   7.742  21.590  0.00  0.00    +0.000 OA
ATOM     11  N   UNL     1       2.013   6.898  19.947  0.00  0.00    +0.000 N 
ENDROOT
BRANCH   1  12
ATOM     12  S   UNL     1       3.722   5.969  18.007  0.00  0.00    +0.000 S 
BRANCH  12  13
ATOM     13  C   UNL     1       4.552   6.998  16.742  0.00  0.00    +0.000 C 
BRANCH  13  14
ATOM     14  C   UNL     1       6.068   6.969  16.902  0.00  0.00    +0.000 C 
ATOM     15  O   UNL     1       6.685   8.026  17.059  0.00  0.00    +0.000 OA
BRANCH  14  18
ATOM     16  C   UNL     1       7.654   5.889  19.212  0.00  0.00    +0.000 C 
ATOM     17  C   UNL     1       7.545   5.160  17.887  0.00  0.00    +0.000 C 
ATOM     18  C   UNL     1       6.795   5.642  16.862  0.00  0.00    +0.000 C 
BRANCH  17  19
ATOM     19  N   UNL     1       8.306   3.994  17.818  0.00  0.00    +0.000 N 
ATOM     20  H   UNL     1       8.470   3.538  18.715  0.00  0.00    +0.000 HD
ATOM     21  H   UNL     1       9.151   4.027  17.250  0.00  0.00    +0.000 HD
ENDBRANCH  17  19
BRANCH  18  22
ATOM     22  C   UNL     1       6.851   4.935  15.518  0.00  0.00    +0.000 C 
ATOM     23  N   UNL     1       6.897   4.347  14.402  0.00  0.00    +0.000 NA
ENDBRANCH  18  22
ENDBRANCH  14  18
ENDBRANCH  13  14
ENDBRANCH  12  13
ENDBRANCH   1  12
BRANCH  11  24
ATOM     24  C   UNL     1       2.262   5.715  20.791  0.00  0.00    +0.000 C 
BRANCH  24  25
ATOM     25  C   UNL     1       1.374   4.496  20.483  0.00  0.00    +0.000 C 
BRANCH  25  26
ATOM     26  C   UNL     1       2.096   3.186  20.802  0.00  0.00    +0.000 C 
BRANCH  26  27
ATOM     27  O   UNL     1       1.727   2.203  19.835  0.00  0.00    +0.000 OA
BRANCH  27  28
ATOM     28  C   UNL     1       2.759   1.852  18.909  0.00  0.00    +0.000 C 
ATOM     29  C   UNL     1       2.516   2.485  17.544  0.00  0.00    +0.000 C 
ATOM     30  C   UNL     1       4.075   2.366  19.490  0.00  0.00    +0.000 C 
ENDBRANCH  27  28
ENDBRANCH  26  27
ENDBRANCH  25  26
ENDBRANCH  24  25
ENDBRANCH  11  24
TORSDOF 11
ENDMDL
MODEL 8
REMARK VINA RESULT:      -6.9      2.505      6.883
REMARK  Name = 
REMARK  14 active torsions:
REMARK  status: ('A' for Active; 'I' for Inactive)
REMARK    1  A    between atoms: C_1  and  C_2
REMARK    2  A    between atoms: C_2  and  N_3
REMARK    3  A    between atoms: C_4  and  C_5
REMARK    4  A    between atoms: C_4  and  C_7
REMARK    5  A    between atoms: C_7  and  C_9
REMARK    6  A    between atoms: C_9  and  S_10
REMARK    7  A    between atoms: S_10  and  C_11
REMARK    8  A    between atoms: N_21  and  C_22
REMARK    9  A    between atoms: C_22  and  C_23
REMARK   10  A    between atoms: C_23  and  C_24
REMARK   11  A    between atoms: C_24  and  O_25
REMARK   12  A    between atoms: O_25  and  C_26
REMARK   13  A    between atoms: C_26  and  C_27
REMARK   14  A    between atoms: C_26  and  C_28
REMARK                            x       y       z     vdW  Elec       q    Type
REMARK                         _______ _______ _______ _____ _____    ______ ____
ROOT
ATOM      1  C   UNL     1       3.436   6.453  17.942  0.00  0.00    +0.000 A 
ATOM      2  N   UNL     1       3.460   5.161  17.888  0.00  0.00    +0.000 NA
ATOM      3  C   UNL     1       2.719   4.426  18.808  0.00  0.00    +0.000 A 
ATOM      4  C   UNL     1       2.666   3.037  18.677  0.00  0.00    +0.000 A 
ATOM      5  C   UNL     1       1.908   2.267  19.564  0.00  0.00    +0.000 A 
ATOM      6  C   UNL     1       1.207   2.883  20.600  0.00  0.00    +0.000 A 
ATOM      7  C   UNL     1       1.258   4.269  20.739  0.00  0.00    +0.000 A 
ATOM      8  C   UNL     1       2.004   5.029  19.831  0.00  0.00    +0.000 A 
ATOM      9  C   UNL     1       1.995   6.497  19.877  0.00  0.00    +0.000 A 
ATOM     10  O   UNL     1       1.309   7.035  20.745  0.00  0.00    +0.000 OA
ATOM     11  N   UNL     1       2.730   7.179  18.899  0.00  0.00    +0.000 N 
ENDROOT
BRANCH   1  12
ATOM     12  S   UNL     1       4.370   7.293  16.698  0.00  0.00    +0.000 S 
BRANCH  12  13
ATOM     13  C   UNL     1       5.233   5.871  15.935  0.00  0.00    +0.000 C 
BRANCH  13  14
ATOM     14  C   UNL     1       6.744   5.968  16.119  0.00  0.00    +0.000 C 
ATOM     15  O   UNL     1       7.489   5.765  15.157  0.00  0.00    +0.000 OA
BRANCH  14  18
ATOM     16  C   UNL     1       6.648   4.089  18.459  0.00  0.00    +0.000 C 
ATOM     17  C   UNL     1       7.237   5.483  18.557  0.00  0.00    +0.000 C 
ATOM     18  C   UNL     1       7.307   6.310  17.481  0.00  0.00    +0.000 C 
BRANCH  17  19
ATOM     19  N   UNL     1       7.652   5.832  19.840  0.00  0.00    +0.000 N 
ATOM     20  H   UNL     1       8.272   6.640  19.884  0.00  0.00    +0.000 HD
ATOM     21  H   UNL     1       7.972   5.076  20.444  0.00  0.00    +0.000 HD
ENDBRANCH  17  19
BRANCH  18  22
ATOM     22  C   UNL     1       7.773   7.742  17.688  0.00  0.00    +0.000 C 
ATOM     23  N   UNL     1       8.159   8.930  17.861  0.00  0.00    +0.000 NA
ENDBRANCH  18  22
ENDBRANCH  14  18
ENDBRANCH  13  14
ENDBRANCH  12  13
ENDBRANCH   1  12
BRANCH  11  24
ATOM     24  C   UNL     1       2.489   8.633  18.846  0.00  0.00    +0.000 C 
BRANCH  24  25
ATOM     25  C   UNL     1       1.279   9.063  17.997  0.00  0.00    +0.000 C 
BRANCH  25  26
ATOM     26  C   UNL     1       0.556  10.256  18.623  0.00  0.00    +0.000 C 
BRANCH  26  27
ATOM     27  O   UNL     1      -0.786   9.879  18.932  0.00  0.00    +0.000 OA
BRANCH  27  28
ATOM     28  C   UNL     1      -1.795  10.709  18.351  0.00  0.00    +0.000 C 
ATOM     29  C   UNL     1      -1.277  12.123  18.111  0.00  0.00    +0.000 C 
ATOM     30  C   UNL     1      -2.188  10.069  17.021  0.00  0.00    +0.000 C 
ENDBRANCH  27  28
ENDBRANCH  26  27
ENDBRANCH  25  26
ENDBRANCH  24  25
ENDBRANCH  11  24
TORSDOF 11
ENDMDL
MODEL 9
REMARK VINA RESULT:      -6.8      2.379      6.684
REMARK  Name = 
REMARK  14 active torsions:
REMARK  status: ('A' for Active; 'I' for Inactive)
REMARK    1  A    between atoms: C_1  and  C_2
REMARK    2  A    between atoms: C_2  and  N_3
REMARK    3  A    between atoms: C_4  and  C_5
REMARK    4  A    between atoms: C_4  and  C_7
REMARK    5  A    between atoms: C_7  and  C_9
REMARK    6  A    between atoms: C_9  and  S_10
REMARK    7  A    between atoms: S_10  and  C_11
REMARK    8  A    between atoms: N_21  and  C_22
REMARK    9  A    between atoms: C_22  and  C_23
REMARK   10  A    between atoms: C_23  and  C_24
REMARK   11  A    between atoms: C_24  and  O_25
REMARK   12  A    between atoms: O_25  and  C_26
REMARK   13  A    between atoms: C_26  and  C_27
REMARK   14  A    between atoms: C_26  and  C_28
REMARK                            x       y       z     vdW  Elec       q    Type
REMARK                         _______ _______ _______ _____ _____    ______ ____
ROOT
ATOM      1  C   UNL     1       3.171   6.243  18.223  0.00  0.00    +0.000 A 
ATOM      2  N   UNL     1       2.597   6.031  19.363  0.00  0.00    +0.000 NA
ATOM      3  C   UNL     1       2.618   4.752  19.910  0.00  0.00    +0.000 A 
ATOM      4  C   UNL     1       2.088   4.555  21.187  0.00  0.00    +0.000 A 
ATOM      5  C   UNL     1       2.118   3.290  21.782  0.00  0.00    +0.000 A 
ATOM      6  C   UNL     1       2.665   2.208  21.095  0.00  0.00    +0.000 A 
ATOM      7  C   UNL     1       3.192   2.396  19.817  0.00  0.00    +0.000 A 
ATOM      8  C   UNL     1       3.175   3.672  19.243  0.00  0.00    +0.000 A 
ATOM      9  C   UNL     1       3.816   3.934  17.948  0.00  0.00    +0.000 A 
ATOM     10  O   UNL     1       4.368   2.989  17.385  0.00  0.00    +0.000 OA
ATOM     11  N   UNL     1       3.796   5.250  17.470  0.00  0.00    +0.000 N 
ENDROOT
BRANCH   1  12
ATOM     12  S   UNL     1       3.134   7.911  17.640  0.00  0.00    +0.000 S 
BRANCH  12  13
ATOM     13  C   UNL     1       1.817   8.592  18.713  0.00  0.00    +0.000 C 
BRANCH  13  14
ATOM     14  C   UNL     1       1.543  10.060  18.402  0.00  0.00    +0.000 C 
ATOM     15  O   UNL     1       2.219  10.639  17.548  0.00  0.00    +0.000 OA
BRANCH  14  18
ATOM     16  C   UNL     1      -1.325  10.075  17.511  0.00  0.00    +0.000 C 
ATOM     17  C   UNL     1      -0.848  10.830  18.737  0.00  0.00    +0.000 C 
ATOM     18  C   UNL     1       0.445  10.785  19.149  0.00  0.00    +0.000 C 
BRANCH  17  19
ATOM     19  N   UNL     1      -1.842  11.586  19.357  0.00  0.00    +0.000 N 
ATOM     20  H   UNL     1      -2.795  11.326  19.106  0.00  0.00    +0.000 HD
ATOM     21  H   UNL     1      -1.714  12.597  19.366  0.00  0.00    +0.000 HD
ENDBRANCH  17  19
BRANCH  18  22
ATOM     22  C   UNL     1       0.879  11.683  20.297  0.00  0.00    +0.000 C 
ATOM     23  N   UNL     1       1.239  12.428  21.249  0.00  0.00    +0.000 NA
ENDBRANCH  18  22
ENDBRANCH  14  18
ENDBRANCH  13  14
ENDBRANCH  12  13
ENDBRANCH   1  12
BRANCH  11  24
ATOM     24  C   UNL     1       4.657   5.497  16.299  0.00  0.00    +0.000 C 
BRANCH  24  25
ATOM     25  C   UNL     1       6.159   5.627  16.610  0.00  0.00    +0.000 C 
BRANCH  25  26
ATOM     26  C   UNL     1       6.994   4.702  15.723  0.00  0.00    +0.000 C 
BRANCH  26  27
ATOM     27  O   UNL     1       6.126   4.006  14.829  0.00  0.00    +0.000 OA
BRANCH  27  28
ATOM     28  C   UNL     1       6.657   3.788  13.520  0.00  0.00    +0.000 C 
ATOM     29  C   UNL     1       5.546   3.545  12.505  0.00  0.00    +0.000 C 
ATOM     30  C   UNL     1       7.438   5.045  13.140  0.00  0.00    +0.000 C 
ENDBRANCH  27  28
ENDBRANCH  26  27
ENDBRANCH  25  26
ENDBRANCH  24  25
ENDBRANCH  11  24
TORSDOF 11
ENDMDL
