MODEL 1
REMARK VINA RESULT:      -8.8      0.000      0.000
REMARK  Name = 
REMARK  7 active torsions:
REMARK  status: ('A' for Active; 'I' for Inactive)
REMARK    1  A    between atoms: C_1  and  C_2
REMARK    2  A    between atoms: C_5  and  S_6
REMARK    3  A    between atoms: S_6  and  N_9
REMARK    4  A    between atoms: C_14  and  C_15
REMARK    5  A    between atoms: N_17  and  C_18
REMARK    6  A    between atoms: C_18  and  C_19
REMARK    7  A    between atoms: C_19  and  C_20
REMARK                            x       y       z     vdW  Elec       q    Type
REMARK                         _______ _______ _______ _____ _____    ______ ____
ROOT
ATOM      1  N   UNL     1       0.221   9.819  20.246  0.00  0.00    +0.000 N 
ATOM      2  C   UNL     1      -0.002   9.228  21.585  0.00  0.00    +0.000 C 
ATOM      3  C   UNL     1       0.773   7.901  21.586  0.00  0.00    +0.000 C 
ATOM      4  C   UNL     1       1.540   7.951  20.300  0.00  0.00    +0.000 A 
ATOM      5  C   UNL     1       2.364   6.944  19.799  0.00  0.00    +0.000 A 
ATOM      6  C   UNL     1       2.931   7.077  18.521  0.00  0.00    +0.000 A 
ATOM      7  C   UNL     1       2.669   8.259  17.797  0.00  0.00    +0.000 A 
ATOM      8  C   UNL     1       1.816   9.269  18.316  0.00  0.00    +0.000 A 
ATOM      9  C   UNL     1       1.251   9.102  19.570  0.00  0.00    +0.000 A 
ENDROOT
BRANCH   6  10
ATOM     10  C   UNL     1       3.704   5.893  17.995  0.00  0.00    +0.000 C 
ATOM     11  O   UNL     1       4.922   5.847  18.168  0.00  0.00    +0.000 OA
ATOM     12  N   UNL     1       3.029   4.872  17.348  0.00  0.00    +0.000 N 
ATOM     13  H   UNL     1       2.066   4.980  17.071  0.00  0.00    +0.000 HD
BRANCH  12  14
ATOM     14  C   UNL     1       3.757   3.697  16.869  0.00  0.00    +0.000 C 
BRANCH  14  15
ATOM     15  C   UNL     1       3.624   2.453  17.765  0.00  0.00    +0.000 C 
BRANCH  15  16
ATOM     16  C   UNL     1       2.840   2.622  19.048  0.00  0.00    +0.000 A 
ATOM     17  C   UNL     1       3.456   2.657  20.306  0.00  0.00    +0.000 A 
ATOM     18  C   UNL     1       2.695   2.775  21.470  0.00  0.00    +0.000 A 
ATOM     19  C   UNL     1       1.308   2.882  21.393  0.00  0.00    +0.000 A 
ATOM     20  C   UNL     1       0.686   2.913  20.149  0.00  0.00    +0.000 A 
ATOM     21  C   UNL     1       1.448   2.798  18.984  0.00  0.00    +0.000 A 
ENDBRANCH  15  16
ENDBRANCH  14  15
ENDBRANCH  12  14
ENDBRANCH   6  10
BRANCH   1  22
ATOM     22  S   UNL     1      -0.441  11.306  19.888  0.00  0.00    +0.000 S 
ATOM     23  O   UNL     1       0.633  12.131  19.359  0.00  0.00    +0.000 OA
ATOM     24  O   UNL     1      -1.253  11.776  20.987  0.00  0.00    +0.000 OA
BRANCH  22  29
ATOM     25  C   UNL     1      -3.623  10.038  14.863  0.00  0.00    +0.000 C 
ATOM     26  C   UNL     1      -2.963  10.409  16.160  0.00  0.00    +0.000 A 
ATOM     27  C   UNL     1      -2.340  11.654  16.320  0.00  0.00    +0.000 A 
ATOM     28  C   UNL     1      -1.637  11.959  17.492  0.00  0.00    +0.000 A 
ATOM     29  C   UNL     1      -1.561  11.018  18.516  0.00  0.00    +0.000 A 
ATOM     30  C   UNL     1      -2.206   9.778  18.383  0.00  0.00    +0.000 A 
ATOM     31  C   UNL     1      -2.905   9.478  17.207  0.00  0.00    +0.000 A 
ENDBRANCH  22  29
ENDBRANCH   1  22
TORSDOF 6
ENDMDL
MODEL 2
REMARK VINA RESULT:      -8.4      2.989      4.632
REMARK  Name = 
REMARK  7 active torsions:
REMARK  status: ('A' for Active; 'I' for Inactive)
REMARK    1  A    between atoms: C_1  and  C_2
REMARK    2  A    between atoms: C_5  and  S_6
REMARK    3  A    between atoms: S_6  and  N_9
REMARK    4  A    between atoms: C_14  and  C_15
REMARK    5  A    between atoms: N_17  and  C_18
REMARK    6  A    between atoms: C_18  and  C_19
REMARK    7  A    between atoms: C_19  and  C_20
REMARK                            x       y       z     vdW  Elec       q    Type
REMARK                         _______ _______ _______ _____ _____    ______ ____
ROOT
ATOM      1  N   UNL     1      -0.063  10.516  20.223  0.00  0.00    +0.000 N 
ATOM      2  C   UNL     1      -0.339  10.237  21.649  0.00  0.00    +0.000 C 
ATOM      3  C   UNL     1       0.328   8.884  21.944  0.00  0.00    +0.000 C 
ATOM      4  C   UNL     1       1.104   8.606  20.693  0.00  0.00    +0.000 A 
ATOM      5  C   UNL     1       1.849   7.457  20.431  0.00  0.00    +0.000 A 
ATOM      6  C   UNL     1       2.432   7.276  19.166  0.00  0.00    +0.000 A 
ATOM      7  C   UNL     1       2.268   8.297  18.206  0.00  0.00    +0.000 A 
ATOM      8  C   UNL     1       1.495   9.455  18.485  0.00  0.00    +0.000 A 
ATOM      9  C   UNL     1       0.911   9.598  19.733  0.00  0.00    +0.000 A 
ENDROOT
BRANCH   6  10
ATOM     10  C   UNL     1       3.112   5.953  18.915  0.00  0.00    +0.000 C 
ATOM     11  O   UNL     1       3.531   5.303  19.872  0.00  0.00    +0.000 OA
ATOM     12  N   UNL     1       3.234   5.486  17.617  0.00  0.00    +0.000 N 
ATOM     13  H   UNL     1       3.034   6.082  16.829  0.00  0.00    +0.000 HD
BRANCH  12  14
ATOM     14  C   UNL     1       3.853   4.186  17.358  0.00  0.00    +0.000 C 
BRANCH  14  15
ATOM     15  C   UNL     1       5.251   4.259  16.720  0.00  0.00    +0.000 C 
BRANCH  15  16
ATOM     16  C   UNL     1       6.247   5.193  17.373  0.00  0.00    +0.000 A 
ATOM     17  C   UNL     1       6.915   4.868  18.560  0.00  0.00    +0.000 A 
ATOM     18  C   UNL     1       7.797   5.772  19.154  0.00  0.00    +0.000 A 
ATOM     19  C   UNL     1       8.042   7.007  18.557  0.00  0.00    +0.000 A 
ATOM     20  C   UNL     1       7.436   7.320  17.344  0.00  0.00    +0.000 A 
ATOM     21  C   UNL     1       6.555   6.414  16.749  0.00  0.00    +0.000 A 
ENDBRANCH  15  16
ENDBRANCH  14  15
ENDBRANCH  12  14
ENDBRANCH   6  10
BRANCH   1  22
ATOM     22  S   UNL     1      -0.603  11.941  19.549  0.00  0.00    +0.000 S 
ATOM     23  O   UNL     1      -1.515  12.544  20.508  0.00  0.00    +0.000 OA
ATOM     24  O   UNL     1      -1.013  11.731  18.180  0.00  0.00    +0.000 OA
BRANCH  22  29
ATOM     25  C   UNL     1       4.678  14.957  19.447  0.00  0.00    +0.000 C 
ATOM     26  C   UNL     1       3.306  14.345  19.458  0.00  0.00    +0.000 A 
ATOM     27  C   UNL     1       2.618  14.143  20.662  0.00  0.00    +0.000 A 
ATOM     28  C   UNL     1       1.384  13.480  20.681  0.00  0.00    +0.000 A 
ATOM     29  C   UNL     1       0.829  13.020  19.489  0.00  0.00    +0.000 A 
ATOM     30  C   UNL     1       1.493  13.242  18.271  0.00  0.00    +0.000 A 
ATOM     31  C   UNL     1       2.727  13.904  18.260  0.00  0.00    +0.000 A 
ENDBRANCH  22  29
ENDBRANCH   1  22
TORSDOF 6
ENDMDL
MODEL 3
REMARK VINA RESULT:      -8.3      2.360      3.608
REMARK  Name = 
REMARK  7 active torsions:
REMARK  status: ('A' for Active; 'I' for Inactive)
REMARK    1  A    between atoms: C_1  and  C_2
REMARK    2  A    between atoms: C_5  and  S_6
REMARK    3  A    between atoms: S_6  and  N_9
REMARK    4  A    between atoms: C_14  and  C_15
REMARK    5  A    between atoms: N_17  and  C_18
REMARK    6  A    between atoms: C_18  and  C_19
REMARK    7  A    between atoms: C_19  and  C_20
REMARK                            x       y       z     vdW  Elec       q    Type
REMARK                         _______ _______ _______ _____ _____    ______ ____
ROOT
ATOM      1  N   UNL     1      -0.219  10.956  20.518  0.00  0.00    +0.000 N 
ATOM      2  C   UNL     1      -0.403  10.729  21.969  0.00  0.00    +0.000 C 
ATOM      3  C   UNL     1       0.242   9.364  22.260  0.00  0.00    +0.000 C 
ATOM      4  C   UNL     1       0.919   9.024  20.968  0.00  0.00    +0.000 A 
ATOM      5  C   UNL     1       1.609   7.844  20.692  0.00  0.00    +0.000 A 
ATOM      6  C   UNL     1       2.096   7.606  19.396  0.00  0.00    +0.000 A 
ATOM      7  C   UNL     1       1.897   8.603  18.418  0.00  0.00    +0.000 A 
ATOM      8  C   UNL     1       1.180   9.793  18.712  0.00  0.00    +0.000 A 
ATOM      9  C   UNL     1       0.690   9.992  19.992  0.00  0.00    +0.000 A 
ENDROOT
BRANCH   6  10
ATOM     10  C   UNL     1       2.717   6.256  19.142  0.00  0.00    +0.000 C 
ATOM     11  O   UNL     1       2.906   5.494  20.089  0.00  0.00    +0.000 OA
ATOM     12  N   UNL     1       3.043   5.889  17.846  0.00  0.00    +0.000 N 
ATOM     13  H   UNL     1       3.034   6.565  17.098  0.00  0.00    +0.000 HD
BRANCH  12  14
ATOM     14  C   UNL     1       3.607   4.567  17.575  0.00  0.00    +0.000 C 
BRANCH  14  15
ATOM     15  C   UNL     1       4.962   4.587  16.847  0.00  0.00    +0.000 C 
BRANCH  15  16
ATOM     16  C   UNL     1       6.043   5.460  17.449  0.00  0.00    +0.000 A 
ATOM     17  C   UNL     1       6.406   6.695  16.896  0.00  0.00    +0.000 A 
ATOM     18  C   UNL     1       7.435   7.453  17.457  0.00  0.00    +0.000 A 
ATOM     19  C   UNL     1       8.101   6.999  18.592  0.00  0.00    +0.000 A 
ATOM     20  C   UNL     1       7.711   5.805  19.191  0.00  0.00    +0.000 A 
ATOM     21  C   UNL     1       6.680   5.047  18.631  0.00  0.00    +0.000 A 
ENDBRANCH  15  16
ENDBRANCH  14  15
ENDBRANCH  12  14
ENDBRANCH   6  10
BRANCH   1  22
ATOM     22  S   UNL     1      -0.762  12.377  19.838  0.00  0.00    +0.000 S 
ATOM     23  O   UNL     1       0.001  12.580  18.617  0.00  0.00    +0.000 OA
ATOM     24  O   UNL     1      -0.840  13.419  20.836  0.00  0.00    +0.000 OA
BRANCH  22  29
ATOM     25  C   UNL     1      -6.441  11.949  17.701  0.00  0.00    +0.000 C 
ATOM     26  C   UNL     1      -5.062  11.925  18.298  0.00  0.00    +0.000 A 
ATOM     27  C   UNL     1      -4.806  12.516  19.543  0.00  0.00    +0.000 A 
ATOM     28  C   UNL     1      -3.503  12.582  20.051  0.00  0.00    +0.000 A 
ATOM     29  C   UNL     1      -2.447  12.049  19.316  0.00  0.00    +0.000 A 
ATOM     30  C   UNL     1      -2.692  11.426  18.081  0.00  0.00    +0.000 A 
ATOM     31  C   UNL     1      -3.997  11.365  17.578  0.00  0.00    +0.000 A 
ENDBRANCH  22  29
ENDBRANCH   1  22
TORSDOF 6
ENDMDL
MODEL 4
REMARK VINA RESULT:      -8.3      2.266      3.234
REMARK  Name = 
REMARK  7 active torsions:
REMARK  status: ('A' for Active; 'I' for Inactive)
REMARK    1  A    between atoms: C_1  and  C_2
REMARK    2  A    between atoms: C_5  and  S_6
REMARK    3  A    between atoms: S_6  and  N_9
REMARK    4  A    between atoms: C_14  and  C_15
REMARK    5  A    between atoms: N_17  and  C_18
REMARK    6  A    between atoms: C_18  and  C_19
REMARK    7  A    between atoms: C_19  and  C_20
REMARK                            x       y       z     vdW  Elec       q    Type
REMARK                         _______ _______ _______ _____ _____    ______ ____
ROOT
ATOM      1  N   UNL     1       0.150   9.968  20.017  0.00  0.00    +0.000 N 
ATOM      2  C   UNL     1      -0.086   9.492  21.399  0.00  0.00    +0.000 C 
ATOM      3  C   UNL     1       0.705   8.180  21.526  0.00  0.00    +0.000 C 
ATOM      4  C   UNL     1       1.490   8.129  20.252  0.00  0.00    +0.000 A 
ATOM      5  C   UNL     1       2.334   7.094  19.851  0.00  0.00    +0.000 A 
ATOM      6  C   UNL     1       2.918   7.123  18.574  0.00  0.00    +0.000 A 
ATOM      7  C   UNL     1       2.653   8.234  17.747  0.00  0.00    +0.000 A 
ATOM      8  C   UNL     1       1.780   9.275  18.165  0.00  0.00    +0.000 A 
ATOM      9  C   UNL     1       1.198   9.209  19.420  0.00  0.00    +0.000 A 
ENDROOT
BRANCH   6  10
ATOM     10  C   UNL     1       3.714   5.909  18.164  0.00  0.00    +0.000 C 
ATOM     11  O   UNL     1       4.877   5.795  18.551  0.00  0.00    +0.000 OA
ATOM     12  N   UNL     1       3.116   4.937  17.380  0.00  0.00    +0.000 N 
ATOM     13  H   UNL     1       2.225   5.101  16.938  0.00  0.00    +0.000 HD
BRANCH  12  14
ATOM     14  C   UNL     1       3.859   3.733  17.008  0.00  0.00    +0.000 C 
BRANCH  14  15
ATOM     15  C   UNL     1       3.433   2.460  17.760  0.00  0.00    +0.000 C 
BRANCH  15  16
ATOM     16  C   UNL     1       2.721   2.659  19.081  0.00  0.00    +0.000 A 
ATOM     17  C   UNL     1       3.387   2.583  20.311  0.00  0.00    +0.000 A 
ATOM     18  C   UNL     1       2.688   2.733  21.511  0.00  0.00    +0.000 A 
ATOM     19  C   UNL     1       1.318   2.984  21.497  0.00  0.00    +0.000 A 
ATOM     20  C   UNL     1       0.653   3.125  20.282  0.00  0.00    +0.000 A 
ATOM     21  C   UNL     1       1.353   2.977  19.083  0.00  0.00    +0.000 A 
ENDBRANCH  15  16
ENDBRANCH  14  15
ENDBRANCH  12  14
ENDBRANCH   6  10
BRANCH   1  22
ATOM     22  S   UNL     1      -0.525  11.409  19.523  0.00  0.00    +0.000 S 
ATOM     23  O   UNL     1      -1.666  11.077  18.685  0.00  0.00    +0.000 OA
ATOM     24  O   UNL     1       0.499  12.310  19.044  0.00  0.00    +0.000 OA
BRANCH  22  29
ATOM     25  C   UNL     1      -2.814  14.617  24.156  0.00  0.00    +0.000 C 
ATOM     26  C   UNL     1      -2.253  13.705  23.101  0.00  0.00    +0.000 A 
ATOM     27  C   UNL     1      -0.869  13.531  22.964  0.00  0.00    +0.000 A 
ATOM     28  C   UNL     1      -0.344  12.762  21.918  0.00  0.00    +0.000 A 
ATOM     29  C   UNL     1      -1.205  12.158  21.005  0.00  0.00    +0.000 A 
ATOM     30  C   UNL     1      -2.594  12.299  21.148  0.00  0.00    +0.000 A 
ATOM     31  C   UNL     1      -3.113  13.070  22.195  0.00  0.00    +0.000 A 
ENDBRANCH  22  29
ENDBRANCH   1  22
TORSDOF 6
ENDMDL
MODEL 5
REMARK VINA RESULT:      -8.3      2.087      3.096
REMARK  Name = 
REMARK  7 active torsions:
REMARK  status: ('A' for Active; 'I' for Inactive)
REMARK    1  A    between atoms: C_1  and  C_2
REMARK    2  A    between atoms: C_5  and  S_6
REMARK    3  A    between atoms: S_6  and  N_9
REMARK    4  A    between atoms: C_14  and  C_15
REMARK    5  A    between atoms: N_17  and  C_18
REMARK    6  A    between atoms: C_18  and  C_19
REMARK    7  A    between atoms: C_19  and  C_20
REMARK                            x       y       z     vdW  Elec       q    Type
REMARK                         _______ _______ _______ _____ _____    ______ ____
ROOT
ATOM      1  N   UNL     1       0.468   9.969  19.733  0.00  0.00    +0.000 N 
ATOM      2  C   UNL     1       0.157   9.520  21.109  0.00  0.00    +0.000 C 
ATOM      3  C   UNL     1       0.866   8.167  21.274  0.00  0.00    +0.000 C 
ATOM      4  C   UNL     1       1.691   8.059  20.029  0.00  0.00    +0.000 A 
ATOM      5  C   UNL     1       2.488   6.973  19.666  0.00  0.00    +0.000 A 
ATOM      6  C   UNL     1       3.117   6.956  18.411  0.00  0.00    +0.000 A 
ATOM      7  C   UNL     1       2.945   8.073  17.566  0.00  0.00    +0.000 A 
ATOM      8  C   UNL     1       2.119   9.165  17.945  0.00  0.00    +0.000 A 
ATOM      9  C   UNL     1       1.491   9.146  19.179  0.00  0.00    +0.000 A 
ENDROOT
BRANCH   6  10
ATOM     10  C   UNL     1       3.855   5.695  18.038  0.00  0.00    +0.000 C 
ATOM     11  O   UNL     1       5.005   5.531  18.443  0.00  0.00    +0.000 OA
ATOM     12  N   UNL     1       3.219   4.737  17.267  0.00  0.00    +0.000 N 
ATOM     13  H   UNL     1       2.343   4.936  16.809  0.00  0.00    +0.000 HD
BRANCH  12  14
ATOM     14  C   UNL     1       3.904   3.489  16.931  0.00  0.00    +0.000 C 
BRANCH  14  15
ATOM     15  C   UNL     1       3.606   2.318  17.884  0.00  0.00    +0.000 C 
BRANCH  15  16
ATOM     16  C   UNL     1       2.749   2.629  19.093  0.00  0.00    +0.000 A 
ATOM     17  C   UNL     1       1.375   2.886  18.993  0.00  0.00    +0.000 A 
ATOM     18  C   UNL     1       0.626   3.208  20.126  0.00  0.00    +0.000 A 
ATOM     19  C   UNL     1       1.234   3.256  21.378  0.00  0.00    +0.000 A 
ATOM     20  C   UNL     1       2.584   2.942  21.504  0.00  0.00    +0.000 A 
ATOM     21  C   UNL     1       3.333   2.618  20.370  0.00  0.00    +0.000 A 
ENDBRANCH  15  16
ENDBRANCH  14  15
ENDBRANCH  12  14
ENDBRANCH   6  10
BRANCH   1  22
ATOM     22  S   UNL     1      -0.105  11.441  19.204  0.00  0.00    +0.000 S 
ATOM     23  O   UNL     1      -1.045  11.168  18.129  0.00  0.00    +0.000 OA
ATOM     24  O   UNL     1       0.985  12.368  19.007  0.00  0.00    +0.000 OA
BRANCH  22  29
ATOM     25  C   UNL     1      -3.629  12.913  23.939  0.00  0.00    +0.000 C 
ATOM     26  C   UNL     1      -2.734  12.696  22.751  0.00  0.00    +0.000 A 
ATOM     27  C   UNL     1      -3.261  12.644  21.454  0.00  0.00    +0.000 A 
ATOM     28  C   UNL     1      -2.442  12.340  20.359  0.00  0.00    +0.000 A 
ATOM     29  C   UNL     1      -1.085  12.093  20.559  0.00  0.00    +0.000 A 
ATOM     30  C   UNL     1      -0.538  12.171  21.849  0.00  0.00    +0.000 A 
ATOM     31  C   UNL     1      -1.363  12.473  22.940  0.00  0.00    +0.000 A 
ENDBRANCH  22  29
ENDBRANCH   1  22
TORSDOF 6
ENDMDL
MODEL 6
REMARK VINA RESULT:      -8.2      2.398      3.338
REMARK  Name = 
REMARK  7 active torsions:
REMARK  status: ('A' for Active; 'I' for Inactive)
REMARK    1  A    between atoms: C_1  and  C_2
REMARK    2  A    between atoms: C_5  and  S_6
REMARK    3  A    between atoms: S_6  and  N_9
REMARK    4  A    between atoms: C_14  and  C_15
REMARK    5  A    between atoms: N_17  and  C_18
REMARK    6  A    between atoms: C_18  and  C_19
REMARK    7  A    between atoms: C_19  and  C_20
REMARK                            x       y       z     vdW  Elec       q    Type
REMARK                         _______ _______ _______ _____ _____    ______ ____
ROOT
ATOM      1  N   UNL     1      -0.048  10.131  19.837  0.00  0.00    +0.000 N 
ATOM      2  C   UNL     1      -0.240   9.783  21.263  0.00  0.00    +0.000 C 
ATOM      3  C   UNL     1       0.617   8.530  21.503  0.00  0.00    +0.000 C 
ATOM      4  C   UNL     1       1.387   8.392  20.226  0.00  0.00    +0.000 A 
ATOM      5  C   UNL     1       2.277   7.365  19.913  0.00  0.00    +0.000 A 
ATOM      6  C   UNL     1       2.842   7.297  18.629  0.00  0.00    +0.000 A 
ATOM      7  C   UNL     1       2.510   8.307  17.702  0.00  0.00    +0.000 A 
ATOM      8  C   UNL     1       1.591   9.339  18.032  0.00  0.00    +0.000 A 
ATOM      9  C   UNL     1       1.030   9.369  19.298  0.00  0.00    +0.000 A 
ENDROOT
BRANCH   6  10
ATOM     10  C   UNL     1       3.692   6.089  18.325  0.00  0.00    +0.000 C 
ATOM     11  O   UNL     1       3.725   5.652  17.175  0.00  0.00    +0.000 OA
ATOM     12  N   UNL     1       4.436   5.508  19.339  0.00  0.00    +0.000 N 
ATOM     13  H   UNL     1       4.291   5.766  20.303  0.00  0.00    +0.000 HD
BRANCH  12  14
ATOM     14  C   UNL     1       5.299   4.362  19.053  0.00  0.00    +0.000 C 
BRANCH  14  15
ATOM     15  C   UNL     1       4.713   3.001  19.467  0.00  0.00    +0.000 C 
BRANCH  15  16
ATOM     16  C   UNL     1       3.211   2.936  19.646  0.00  0.00    +0.000 A 
ATOM     17  C   UNL     1       2.588   3.209  20.871  0.00  0.00    +0.000 A 
ATOM     18  C   UNL     1       1.203   3.100  21.007  0.00  0.00    +0.000 A 
ATOM     19  C   UNL     1       0.418   2.738  19.915  0.00  0.00    +0.000 A 
ATOM     20  C   UNL     1       1.014   2.525  18.676  0.00  0.00    +0.000 A 
ATOM     21  C   UNL     1       2.400   2.636  18.539  0.00  0.00    +0.000 A 
ENDBRANCH  15  16
ENDBRANCH  14  15
ENDBRANCH  12  14
ENDBRANCH   6  10
BRANCH   1  22
ATOM     22  S   UNL     1      -0.801  11.481  19.217  0.00  0.00    +0.000 S 
ATOM     23  O   UNL     1      -1.834  11.864  20.166  0.00  0.00    +0.000 OA
ATOM     24  O   UNL     1      -1.123  11.286  17.822  0.00  0.00    +0.000 OA
BRANCH  22  29
ATOM     25  C   UNL     1       2.950  16.255  18.850  0.00  0.00    +0.000 C 
ATOM     26  C   UNL     1       2.117  15.020  19.043  0.00  0.00    +0.000 A 
ATOM     27  C   UNL     1       2.330  13.878  18.259  0.00  0.00    +0.000 A 
ATOM     28  C   UNL     1       1.487  12.765  18.369  0.00  0.00    +0.000 A 
ATOM     29  C   UNL     1       0.428  12.788  19.274  0.00  0.00    +0.000 A 
ATOM     30  C   UNL     1       0.221  13.913  20.088  0.00  0.00    +0.000 A 
ATOM     31  C   UNL     1       1.065  15.024  19.971  0.00  0.00    +0.000 A 
ENDBRANCH  22  29
ENDBRANCH   1  22
TORSDOF 6
ENDMDL
MODEL 7
REMARK VINA RESULT:      -8.2      3.657      8.962
REMARK  Name = 
REMARK  7 active torsions:
REMARK  status: ('A' for Active; 'I' for Inactive)
REMARK    1  A    between atoms: C_1  and  C_2
REMARK    2  A    between atoms: C_5  and  S_6
REMARK    3  A    between atoms: S_6  and  N_9
REMARK    4  A    between atoms: C_14  and  C_15
REMARK    5  A    between atoms: N_17  and  C_18
REMARK    6  A    between atoms: C_18  and  C_19
REMARK    7  A    between atoms: C_19  and  C_20
REMARK                            x       y       z     vdW  Elec       q    Type
REMARK                         _______ _______ _______ _____ _____    ______ ____
ROOT
ATOM      1  N   UNL     1       2.722   4.006  19.140  0.00  0.00    +0.000 N 
ATOM      2  C   UNL     1       1.985   3.075  20.022  0.00  0.00    +0.000 C 
ATOM      3  C   UNL     1       1.277   3.960  21.061  0.00  0.00    +0.000 C 
ATOM      4  C   UNL     1       1.518   5.346  20.549  0.00  0.00    +0.000 A 
ATOM      5  C   UNL     1       1.121   6.529  21.173  0.00  0.00    +0.000 A 
ATOM      6  C   UNL     1       1.517   7.767  20.639  0.00  0.00    +0.000 A 
ATOM      7  C   UNL     1       2.283   7.766  19.455  0.00  0.00    +0.000 A 
ATOM      8  C   UNL     1       2.691   6.552  18.839  0.00  0.00    +0.000 A 
ATOM      9  C   UNL     1       2.306   5.345  19.399  0.00  0.00    +0.000 A 
ENDROOT
BRANCH   6  10
ATOM     10  C   UNL     1       1.160   8.995  21.438  0.00  0.00    +0.000 C 
ATOM     11  O   UNL     1       1.759   9.224  22.488  0.00  0.00    +0.000 OA
ATOM     12  N   UNL     1       0.181   9.854  20.965  0.00  0.00    +0.000 N 
ATOM     13  H   UNL     1      -0.413   9.589  20.194  0.00  0.00    +0.000 HD
BRANCH  12  14
ATOM     14  C   UNL     1      -0.149  11.072  21.704  0.00  0.00    +0.000 C 
BRANCH  14  15
ATOM     15  C   UNL     1      -1.439  10.984  22.538  0.00  0.00    +0.000 C 
BRANCH  15  16
ATOM     16  C   UNL     1      -1.944  12.275  23.144  0.00  0.00    +0.000 A 
ATOM     17  C   UNL     1      -3.231  12.399  23.684  0.00  0.00    +0.000 A 
ATOM     18  C   UNL     1      -3.675  13.618  24.198  0.00  0.00    +0.000 A 
ATOM     19  C   UNL     1      -2.832  14.726  24.202  0.00  0.00    +0.000 A 
ATOM     20  C   UNL     1      -1.529  14.604  23.728  0.00  0.00    +0.000 A 
ATOM     21  C   UNL     1      -1.084  13.384  23.215  0.00  0.00    +0.000 A 
ENDBRANCH  15  16
ENDBRANCH  14  15
ENDBRANCH  12  14
ENDBRANCH   6  10
BRANCH   1  22
ATOM     22  S   UNL     1       3.586   3.400  17.850  0.00  0.00    +0.000 S 
ATOM     23  O   UNL     1       2.754   3.564  16.669  0.00  0.00    +0.000 OA
ATOM     24  O   UNL     1       4.147   2.110  18.178  0.00  0.00    +0.000 OA
BRANCH  22  29
ATOM     25  C   UNL     1       7.838   7.728  17.426  0.00  0.00    +0.000 C 
ATOM     26  C   UNL     1       6.885   6.567  17.463  0.00  0.00    +0.000 A 
ATOM     27  C   UNL     1       5.979   6.346  16.417  0.00  0.00    +0.000 A 
ATOM     28  C   UNL     1       5.023   5.327  16.500  0.00  0.00    +0.000 A 
ATOM     29  C   UNL     1       4.974   4.516  17.632  0.00  0.00    +0.000 A 
ATOM     30  C   UNL     1       5.895   4.706  18.674  0.00  0.00    +0.000 A 
ATOM     31  C   UNL     1       6.847   5.729  18.587  0.00  0.00    +0.000 A 
ENDBRANCH  22  29
ENDBRANCH   1  22
TORSDOF 6
ENDMDL
MODEL 8
REMARK VINA RESULT:      -8.1      2.330      3.339
REMARK  Name = 
REMARK  7 active torsions:
REMARK  status: ('A' for Active; 'I' for Inactive)
REMARK    1  A    between atoms: C_1  and  C_2
REMARK    2  A    between atoms: C_5  and  S_6
REMARK    3  A    between atoms: S_6  and  N_9
REMARK    4  A    between atoms: C_14  and  C_15
REMARK    5  A    between atoms: N_17  and  C_18
REMARK    6  A    between atoms: C_18  and  C_19
REMARK    7  A    between atoms: C_19  and  C_20
REMARK                            x       y       z     vdW  Elec       q    Type
REMARK                         _______ _______ _______ _____ _____    ______ ____
ROOT
ATOM      1  N   UNL     1      -0.075  10.166  19.890  0.00  0.00    +0.000 N 
ATOM      2  C   UNL     1      -0.336   9.749  21.286  0.00  0.00    +0.000 C 
ATOM      3  C   UNL     1       0.495   8.474  21.500  0.00  0.00    +0.000 C 
ATOM      4  C   UNL     1       1.321   8.390  20.253  0.00  0.00    +0.000 A 
ATOM      5  C   UNL     1       2.212   7.368  19.929  0.00  0.00    +0.000 A 
ATOM      6  C   UNL     1       2.834   7.357  18.670  0.00  0.00    +0.000 A 
ATOM      7  C   UNL     1       2.556   8.417  17.782  0.00  0.00    +0.000 A 
ATOM      8  C   UNL     1       1.635   9.444  18.122  0.00  0.00    +0.000 A 
ATOM      9  C   UNL     1       1.017   9.418  19.361  0.00  0.00    +0.000 A 
ENDROOT
BRANCH   6  10
ATOM     10  C   UNL     1       3.684   6.155  18.343  0.00  0.00    +0.000 C 
ATOM     11  O   UNL     1       3.723   5.744  17.184  0.00  0.00    +0.000 OA
ATOM     12  N   UNL     1       4.421   5.549  19.347  0.00  0.00    +0.000 N 
ATOM     13  H   UNL     1       4.271   5.785  20.316  0.00  0.00    +0.000 HD
BRANCH  12  14
ATOM     14  C   UNL     1       5.283   4.408  19.040  0.00  0.00    +0.000 C 
BRANCH  14  15
ATOM     15  C   UNL     1       4.716   3.044  19.470  0.00  0.00    +0.000 C 
BRANCH  15  16
ATOM     16  C   UNL     1       3.216   2.963  19.662  0.00  0.00    +0.000 A 
ATOM     17  C   UNL     1       2.607   3.167  20.907  0.00  0.00    +0.000 A 
ATOM     18  C   UNL     1       1.224   3.045  21.053  0.00  0.00    +0.000 A 
ATOM     19  C   UNL     1       0.427   2.741  19.951  0.00  0.00    +0.000 A 
ATOM     20  C   UNL     1       1.010   2.598  18.695  0.00  0.00    +0.000 A 
ATOM     21  C   UNL     1       2.393   2.722  18.550  0.00  0.00    +0.000 A 
ENDBRANCH  15  16
ENDBRANCH  14  15
ENDBRANCH  12  14
ENDBRANCH   6  10
BRANCH   1  22
ATOM     22  S   UNL     1      -0.783  11.556  19.306  0.00  0.00    +0.000 S 
ATOM     23  O   UNL     1      -1.880  11.143  18.444  0.00  0.00    +0.000 OA
ATOM     24  O   UNL     1       0.223  12.473  18.822  0.00  0.00    +0.000 OA
BRANCH  22  29
ATOM     25  C   UNL     1      -3.464  13.508  24.405  0.00  0.00    +0.000 C 
ATOM     26  C   UNL     1      -2.796  13.169  23.102  0.00  0.00    +0.000 A 
ATOM     27  C   UNL     1      -3.552  12.881  21.959  0.00  0.00    +0.000 A 
ATOM     28  C   UNL     1      -2.932  12.466  20.774  0.00  0.00    +0.000 A 
ATOM     29  C   UNL     1      -1.545  12.344  20.727  0.00  0.00    +0.000 A 
ATOM     30  C   UNL     1      -0.772  12.658  21.856  0.00  0.00    +0.000 A 
ATOM     31  C   UNL     1      -1.399  13.070  23.038  0.00  0.00    +0.000 A 
ENDBRANCH  22  29
ENDBRANCH   1  22
TORSDOF 6
ENDMDL
MODEL 9
REMARK VINA RESULT:      -8.1      2.948      8.360
REMARK  Name = 
REMARK  7 active torsions:
REMARK  status: ('A' for Active; 'I' for Inactive)
REMARK    1  A    between atoms: C_1  and  C_2
REMARK    2  A    between atoms: C_5  and  S_6
REMARK    3  A    between atoms: S_6  and  N_9
REMARK    4  A    between atoms: C_14  and  C_15
REMARK    5  A    between atoms: N_17  and  C_18
REMARK    6  A    between atoms: C_18  and  C_19
REMARK    7  A    between atoms: C_19  and  C_20
REMARK                            x       y       z     vdW  Elec       q    Type
REMARK                         _______ _______ _______ _____ _____    ______ ____
ROOT
ATOM      1  N   UNL     1       2.612   3.942  18.988  0.00  0.00    +0.000 N 
ATOM      2  C   UNL     1       1.902   2.935  19.808  0.00  0.00    +0.000 C 
ATOM      3  C   UNL     1       1.227   3.725  20.940  0.00  0.00    +0.000 C 
ATOM      4  C   UNL     1       1.451   5.151  20.544  0.00  0.00    +0.000 A 
ATOM      5  C   UNL     1       1.074   6.274  21.280  0.00  0.00    +0.000 A 
ATOM      6  C   UNL     1       1.453   7.555  20.844  0.00  0.00    +0.000 A 
ATOM      7  C   UNL     1       2.183   7.659  19.642  0.00  0.00    +0.000 A 
ATOM      8  C   UNL     1       2.572   6.504  18.911  0.00  0.00    +0.000 A 
ATOM      9  C   UNL     1       2.204   5.252  19.375  0.00  0.00    +0.000 A 
ENDROOT
BRANCH   6  10
ATOM     10  C   UNL     1       1.120   8.708  21.757  0.00  0.00    +0.000 C 
ATOM     11  O   UNL     1       2.032   9.400  22.207  0.00  0.00    +0.000 OA
ATOM     12  N   UNL     1      -0.205   8.981  22.053  0.00  0.00    +0.000 N 
ATOM     13  H   UNL     1      -0.936   8.328  21.814  0.00  0.00    +0.000 HD
BRANCH  12  14
ATOM     14  C   UNL     1      -0.550  10.121  22.903  0.00  0.00    +0.000 C 
BRANCH  14  15
ATOM     15  C   UNL     1      -1.280  11.263  22.175  0.00  0.00    +0.000 C 
BRANCH  15  16
ATOM     16  C   UNL     1      -0.610  11.815  20.936  0.00  0.00    +0.000 A 
ATOM     17  C   UNL     1       0.653  12.421  20.971  0.00  0.00    +0.000 A 
ATOM     18  C   UNL     1       1.221  12.954  19.812  0.00  0.00    +0.000 A 
ATOM     19  C   UNL     1       0.546  12.869  18.597  0.00  0.00    +0.000 A 
ATOM     20  C   UNL     1      -0.681  12.215  18.533  0.00  0.00    +0.000 A 
ATOM     21  C   UNL     1      -1.248  11.680  19.691  0.00  0.00    +0.000 A 
ENDBRANCH  15  16
ENDBRANCH  14  15
ENDBRANCH  12  14
ENDBRANCH   6  10
BRANCH   1  22
ATOM     22  S   UNL     1       3.437   3.453  17.625  0.00  0.00    +0.000 S 
ATOM     23  O   UNL     1       2.582   3.746  16.485  0.00  0.00    +0.000 OA
ATOM     24  O   UNL     1       3.982   2.128  17.811  0.00  0.00    +0.000 OA
BRANCH  22  29
ATOM     25  C   UNL     1       7.756   7.734  17.529  0.00  0.00    +0.000 C 
ATOM     26  C   UNL     1       6.783   6.590  17.474  0.00  0.00    +0.000 A 
ATOM     27  C   UNL     1       5.851   6.488  16.433  0.00  0.00    +0.000 A 
ATOM     28  C   UNL     1       4.879   5.480  16.437  0.00  0.00    +0.000 A 
ATOM     29  C   UNL     1       4.840   4.563  17.485  0.00  0.00    +0.000 A 
ATOM     30  C   UNL     1       5.786   4.635  18.520  0.00  0.00    +0.000 A 
ATOM     31  C   UNL     1       6.754   5.646  18.511  0.00  0.00    +0.000 A 
ENDBRANCH  22  29
ENDBRANCH   1  22
TORSDOF 6
ENDMDL
