MODEL 1
REMARK VINA RESULT:      -9.1      0.000      0.000
REMARK  Name = 
REMARK  8 active torsions:
REMARK  status: ('A' for Active; 'I' for Inactive)
REMARK    1  A    between atoms: C_2  and  C_3
REMARK    2  A    between atoms: C_2  and  C_20
REMARK    3  A    between atoms: C_3  and  C_4
REMARK    4  A    between atoms: C_7  and  C_8
REMARK    5  A    between atoms: C_9  and  C_10
REMARK    6  A    between atoms: C_12  and  O_13
REMARK    7  A    between atoms: C_15  and  O_16
REMARK    8  A    between atoms: C_25  and  O_26
REMARK                            x       y       z     vdW  Elec       q    Type
REMARK                         _______ _______ _______ _____ _____    ______ ____
ROOT
ATOM      1  C   UNL     1       5.880   4.915  17.059  0.00  0.00    +0.000 A 
ATOM      2  C   UNL     1       6.785   4.678  18.096  0.00  0.00    +0.000 A 
ATOM      3  C   UNL     1       7.610   5.708  18.555  0.00  0.00    +0.000 A 
ATOM      4  C   UNL     1       7.546   6.986  17.982  0.00  0.00    +0.000 A 
ATOM      5  C   UNL     1       6.621   7.222  16.959  0.00  0.00    +0.000 A 
ATOM      6  C   UNL     1       5.799   6.196  16.500  0.00  0.00    +0.000 A 
ENDROOT
BRANCH   4   7
ATOM      7  C   UNL     1       8.422   8.042  18.506  0.00  0.00    +0.000 C 
ATOM      8  C   UNL     1       8.351   9.327  18.131  0.00  0.00    +0.000 C 
BRANCH   8   9
ATOM      9  C   UNL     1       9.305  10.307  18.642  0.00  0.00    +0.000 A 
ATOM     10  C   UNL     1      10.276  10.825  17.775  0.00  0.00    +0.000 A 
ATOM     11  C   UNL     1      11.205  11.741  18.259  0.00  0.00    +0.000 A 
ATOM     12  C   UNL     1      11.178  12.158  19.585  0.00  0.00    +0.000 A 
ATOM     13  C   UNL     1      10.211  11.633  20.437  0.00  0.00    +0.000 A 
ATOM     14  C   UNL     1       9.276  10.710  19.978  0.00  0.00    +0.000 A 
BRANCH  11  15
ATOM     15  O   UNL     1      12.175  12.254  17.448  0.00  0.00    +0.000 OA
ATOM     16  H   UNL     1      12.259  13.204  17.632  0.00  0.00    +0.000 HD
ENDBRANCH  11  15
BRANCH  13  17
ATOM     17  O   UNL     1      10.149  12.002  21.750  0.00  0.00    +0.000 OA
ATOM     18  H   UNL     1       9.826  11.245  22.266  0.00  0.00    +0.000 HD
ENDBRANCH  13  17
ENDBRANCH   8   9
ENDBRANCH   4   7
BRANCH   1  19
ATOM     19  C   UNL     1       4.975   3.822  16.545  0.00  0.00    +0.000 C 
BRANCH  19  21
ATOM     20  O   UNL     1       3.864   1.996  17.697  0.00  0.00    +0.000 OA
ATOM     21  C   UNL     1       4.077   3.204  17.606  0.00  0.00    +0.000 C 
BRANCH  21  22
ATOM     22  C   UNL     1       3.347   4.117  18.534  0.00  0.00    +0.000 A 
ATOM     23  C   UNL     1       2.836   5.307  17.992  0.00  0.00    +0.000 A 
ATOM     24  C   UNL     1       2.163   6.223  18.802  0.00  0.00    +0.000 A 
ATOM     25  C   UNL     1       1.987   5.956  20.158  0.00  0.00    +0.000 A 
ATOM     26  C   UNL     1       2.472   4.770  20.704  0.00  0.00    +0.000 A 
ATOM     27  C   UNL     1       3.144   3.851  19.894  0.00  0.00    +0.000 A 
BRANCH  27  28
ATOM     28  O   UNL     1       3.563   2.680  20.456  0.00  0.00    +0.000 OA
ATOM     29  H   UNL     1       4.528   2.702  20.579  0.00  0.00    +0.000 HD
ENDBRANCH  27  28
ENDBRANCH  21  22
ENDBRANCH  19  21
ENDBRANCH   1  19
TORSDOF 8
ENDMDL
MODEL 2
REMARK VINA RESULT:      -8.8      1.401      2.413
REMARK  Name = 
REMARK  8 active torsions:
REMARK  status: ('A' for Active; 'I' for Inactive)
REMARK    1  A    between atoms: C_2  and  C_3
REMARK    2  A    between atoms: C_2  and  C_20
REMARK    3  A    between atoms: C_3  and  C_4
REMARK    4  A    between atoms: C_7  and  C_8
REMARK    5  A    between atoms: C_9  and  C_10
REMARK    6  A    between atoms: C_12  and  O_13
REMARK    7  A    between atoms: C_15  and  O_16
REMARK    8  A    between atoms: C_25  and  O_26
REMARK                            x       y       z     vdW  Elec       q    Type
REMARK                         _______ _______ _______ _____ _____    ______ ____
ROOT
ATOM      1  C   UNL     1       6.451   5.373  18.099  0.00  0.00    +0.000 A 
ATOM      2  C   UNL     1       6.025   6.319  17.163  0.00  0.00    +0.000 A 
ATOM      3  C   UNL     1       6.661   7.560  17.083  0.00  0.00    +0.000 A 
ATOM      4  C   UNL     1       7.726   7.876  17.938  0.00  0.00    +0.000 A 
ATOM      5  C   UNL     1       8.161   6.917  18.858  0.00  0.00    +0.000 A 
ATOM      6  C   UNL     1       7.528   5.678  18.940  0.00  0.00    +0.000 A 
ENDROOT
BRANCH   4   7
ATOM      7  C   UNL     1       8.373   9.188  17.808  0.00  0.00    +0.000 C 
ATOM      8  C   UNL     1       9.137   9.742  18.760  0.00  0.00    +0.000 C 
BRANCH   8   9
ATOM      9  C   UNL     1       9.687  11.084  18.587  0.00  0.00    +0.000 A 
ATOM     10  C   UNL     1       9.089  12.156  19.263  0.00  0.00    +0.000 A 
ATOM     11  C   UNL     1       9.591  13.441  19.085  0.00  0.00    +0.000 A 
ATOM     12  C   UNL     1      10.682  13.677  18.257  0.00  0.00    +0.000 A 
ATOM     13  C   UNL     1      11.267  12.605  17.590  0.00  0.00    +0.000 A 
ATOM     14  C   UNL     1      10.778  11.311  17.745  0.00  0.00    +0.000 A 
BRANCH  11  15
ATOM     15  O   UNL     1       9.022  14.511  19.714  0.00  0.00    +0.000 OA
ATOM     16  H   UNL     1       9.658  14.861  20.358  0.00  0.00    +0.000 HD
ENDBRANCH  11  15
BRANCH  13  17
ATOM     17  O   UNL     1      12.333  12.786  16.758  0.00  0.00    +0.000 OA
ATOM     18  H   UNL     1      12.536  13.735  16.721  0.00  0.00    +0.000 HD
ENDBRANCH  13  17
ENDBRANCH   8   9
ENDBRANCH   4   7
BRANCH   1  19
ATOM     19  C   UNL     1       5.785   4.023  18.207  0.00  0.00    +0.000 C 
BRANCH  19  21
ATOM     20  O   UNL     1       4.125   3.983  16.436  0.00  0.00    +0.000 OA
ATOM     21  C   UNL     1       4.375   3.976  17.640  0.00  0.00    +0.000 C 
BRANCH  21  22
ATOM     22  C   UNL     1       3.227   4.008  18.594  0.00  0.00    +0.000 A 
ATOM     23  C   UNL     1       3.068   5.169  19.367  0.00  0.00    +0.000 A 
ATOM     24  C   UNL     1       2.033   5.266  20.299  0.00  0.00    +0.000 A 
ATOM     25  C   UNL     1       1.143   4.206  20.462  0.00  0.00    +0.000 A 
ATOM     26  C   UNL     1       1.278   3.056  19.687  0.00  0.00    +0.000 A 
ATOM     27  C   UNL     1       2.311   2.960  18.752  0.00  0.00    +0.000 A 
BRANCH  27  28
ATOM     28  O   UNL     1       2.382   1.836  17.981  0.00  0.00    +0.000 OA
ATOM     29  H   UNL     1       2.301   1.047  18.543  0.00  0.00    +0.000 HD
ENDBRANCH  27  28
ENDBRANCH  21  22
ENDBRANCH  19  21
ENDBRANCH   1  19
TORSDOF 8
ENDMDL
MODEL 3
REMARK VINA RESULT:      -8.8      1.146      1.629
REMARK  Name = 
REMARK  8 active torsions:
REMARK  status: ('A' for Active; 'I' for Inactive)
REMARK    1  A    between atoms: C_2  and  C_3
REMARK    2  A    between atoms: C_2  and  C_20
REMARK    3  A    between atoms: C_3  and  C_4
REMARK    4  A    between atoms: C_7  and  C_8
REMARK    5  A    between atoms: C_9  and  C_10
REMARK    6  A    between atoms: C_12  and  O_13
REMARK    7  A    between atoms: C_15  and  O_16
REMARK    8  A    between atoms: C_25  and  O_26
REMARK                            x       y       z     vdW  Elec       q    Type
REMARK                         _______ _______ _______ _____ _____    ______ ____
ROOT
ATOM      1  C   UNL     1       5.888   5.282  17.702  0.00  0.00    +0.000 A 
ATOM      2  C   UNL     1       5.436   6.455  17.093  0.00  0.00    +0.000 A 
ATOM      3  C   UNL     1       6.197   7.624  17.174  0.00  0.00    +0.000 A 
ATOM      4  C   UNL     1       7.415   7.639  17.867  0.00  0.00    +0.000 A 
ATOM      5  C   UNL     1       7.872   6.456  18.456  0.00  0.00    +0.000 A 
ATOM      6  C   UNL     1       7.114   5.289  18.377  0.00  0.00    +0.000 A 
ENDROOT
BRANCH   4   7
ATOM      7  C   UNL     1       8.188   8.887  17.914  0.00  0.00    +0.000 C 
ATOM      8  C   UNL     1       8.906   9.283  18.975  0.00  0.00    +0.000 C 
BRANCH   8   9
ATOM      9  C   UNL     1       9.589  10.574  18.974  0.00  0.00    +0.000 A 
ATOM     10  C   UNL     1      10.457  10.882  17.918  0.00  0.00    +0.000 A 
ATOM     11  C   UNL     1      11.131  12.098  17.922  0.00  0.00    +0.000 A 
ATOM     12  C   UNL     1      10.949  13.017  18.949  0.00  0.00    +0.000 A 
ATOM     13  C   UNL     1      10.087  12.698  19.994  0.00  0.00    +0.000 A 
ATOM     14  C   UNL     1       9.407  11.484  20.017  0.00  0.00    +0.000 A 
BRANCH  11  15
ATOM     15  O   UNL     1      11.997  12.426  16.919  0.00  0.00    +0.000 OA
ATOM     16  H   UNL     1      12.904  12.332  17.254  0.00  0.00    +0.000 HD
ENDBRANCH  11  15
BRANCH  13  17
ATOM     17  O   UNL     1       9.882  13.561  21.031  0.00  0.00    +0.000 OA
ATOM     18  H   UNL     1       9.578  13.050  21.799  0.00  0.00    +0.000 HD
ENDBRANCH  13  17
ENDBRANCH   8   9
ENDBRANCH   4   7
BRANCH   1  19
ATOM     19  C   UNL     1       5.088   4.004  17.630  0.00  0.00    +0.000 C 
BRANCH  19  21
ATOM     20  O   UNL     1       5.305   2.723  19.680  0.00  0.00    +0.000 OA
ATOM     21  C   UNL     1       4.631   3.477  18.981  0.00  0.00    +0.000 C 
BRANCH  21  22
ATOM     22  C   UNL     1       3.256   3.823  19.448  0.00  0.00    +0.000 A 
ATOM     23  C   UNL     1       3.070   5.099  20.002  0.00  0.00    +0.000 A 
ATOM     24  C   UNL     1       1.819   5.488  20.483  0.00  0.00    +0.000 A 
ATOM     25  C   UNL     1       0.740   4.609  20.408  0.00  0.00    +0.000 A 
ATOM     26  C   UNL     1       0.907   3.347  19.841  0.00  0.00    +0.000 A 
ATOM     27  C   UNL     1       2.158   2.958  19.357  0.00  0.00    +0.000 A 
BRANCH  27  28
ATOM     28  O   UNL     1       2.270   1.732  18.768  0.00  0.00    +0.000 OA
ATOM     29  H   UNL     1       2.465   1.060  19.444  0.00  0.00    +0.000 HD
ENDBRANCH  27  28
ENDBRANCH  21  22
ENDBRANCH  19  21
ENDBRANCH   1  19
TORSDOF 8
ENDMDL
MODEL 4
REMARK VINA RESULT:      -8.6      1.457      1.868
REMARK  Name = 
REMARK  8 active torsions:
REMARK  status: ('A' for Active; 'I' for Inactive)
REMARK    1  A    between atoms: C_2  and  C_3
REMARK    2  A    between atoms: C_2  and  C_20
REMARK    3  A    between atoms: C_3  and  C_4
REMARK    4  A    between atoms: C_7  and  C_8
REMARK    5  A    between atoms: C_9  and  C_10
REMARK    6  A    between atoms: C_12  and  O_13
REMARK    7  A    between atoms: C_15  and  O_16
REMARK    8  A    between atoms: C_25  and  O_26
REMARK                            x       y       z     vdW  Elec       q    Type
REMARK                         _______ _______ _______ _____ _____    ______ ____
ROOT
ATOM      1  C   UNL     1       5.845   5.399  17.564  0.00  0.00    +0.000 A 
ATOM      2  C   UNL     1       5.639   6.635  16.948  0.00  0.00    +0.000 A 
ATOM      3  C   UNL     1       6.542   7.681  17.157  0.00  0.00    +0.000 A 
ATOM      4  C   UNL     1       7.659   7.508  17.987  0.00  0.00    +0.000 A 
ATOM      5  C   UNL     1       7.871   6.260  18.583  0.00  0.00    +0.000 A 
ATOM      6  C   UNL     1       6.971   5.217  18.377  0.00  0.00    +0.000 A 
ENDROOT
BRANCH   4   7
ATOM      7  C   UNL     1       8.588   8.630  18.166  0.00  0.00    +0.000 C 
ATOM      8  C   UNL     1       8.200   9.898  18.364  0.00  0.00    +0.000 C 
BRANCH   8   9
ATOM      9  C   UNL     1       9.184  10.973  18.461  0.00  0.00    +0.000 A 
ATOM     10  C   UNL     1       8.993  12.138  17.707  0.00  0.00    +0.000 A 
ATOM     11  C   UNL     1       9.937  13.158  17.774  0.00  0.00    +0.000 A 
ATOM     12  C   UNL     1      11.061  13.043  18.584  0.00  0.00    +0.000 A 
ATOM     13  C   UNL     1      11.241  11.879  19.326  0.00  0.00    +0.000 A 
ATOM     14  C   UNL     1      10.315  10.842  19.270  0.00  0.00    +0.000 A 
BRANCH  11  15
ATOM     15  O   UNL     1       9.792  14.300  17.041  0.00  0.00    +0.000 OA
ATOM     16  H   UNL     1      10.291  15.010  17.477  0.00  0.00    +0.000 HD
ENDBRANCH  11  15
BRANCH  13  17
ATOM     17  O   UNL     1      12.333  11.713  20.127  0.00  0.00    +0.000 OA
ATOM     18  H   UNL     1      12.998  12.377  19.881  0.00  0.00    +0.000 HD
ENDBRANCH  13  17
ENDBRANCH   8   9
ENDBRANCH   4   7
BRANCH   1  19
ATOM     19  C   UNL     1       4.888   4.250  17.355  0.00  0.00    +0.000 C 
BRANCH  19  21
ATOM     20  O   UNL     1       5.221   2.650  19.150  0.00  0.00    +0.000 OA
ATOM     21  C   UNL     1       4.513   3.511  18.630  0.00  0.00    +0.000 C 
BRANCH  21  22
ATOM     22  C   UNL     1       3.177   3.781  19.239  0.00  0.00    +0.000 A 
ATOM     23  C   UNL     1       3.006   5.015  19.888  0.00  0.00    +0.000 A 
ATOM     24  C   UNL     1       1.794   5.331  20.502  0.00  0.00    +0.000 A 
ATOM     25  C   UNL     1       0.738   4.422  20.468  0.00  0.00    +0.000 A 
ATOM     26  C   UNL     1       0.888   3.203  19.810  0.00  0.00    +0.000 A 
ATOM     27  C   UNL     1       2.101   2.887  19.192  0.00  0.00    +0.000 A 
BRANCH  27  28
ATOM     28  O   UNL     1       2.193   1.703  18.519  0.00  0.00    +0.000 OA
ATOM     29  H   UNL     1       1.581   1.708  17.762  0.00  0.00    +0.000 HD
ENDBRANCH  27  28
ENDBRANCH  21  22
ENDBRANCH  19  21
ENDBRANCH   1  19
TORSDOF 8
ENDMDL
MODEL 5
REMARK VINA RESULT:      -8.6      1.163      2.235
REMARK  Name = 
REMARK  8 active torsions:
REMARK  status: ('A' for Active; 'I' for Inactive)
REMARK    1  A    between atoms: C_2  and  C_3
REMARK    2  A    between atoms: C_2  and  C_20
REMARK    3  A    between atoms: C_3  and  C_4
REMARK    4  A    between atoms: C_7  and  C_8
REMARK    5  A    between atoms: C_9  and  C_10
REMARK    6  A    between atoms: C_12  and  O_13
REMARK    7  A    between atoms: C_15  and  O_16
REMARK    8  A    between atoms: C_25  and  O_26
REMARK                            x       y       z     vdW  Elec       q    Type
REMARK                         _______ _______ _______ _____ _____    ______ ____
ROOT
ATOM      1  C   UNL     1       5.656   4.647  17.296  0.00  0.00    +0.000 A 
ATOM      2  C   UNL     1       6.608   4.471  18.302  0.00  0.00    +0.000 A 
ATOM      3  C   UNL     1       7.442   5.529  18.671  0.00  0.00    +0.000 A 
ATOM      4  C   UNL     1       7.340   6.775  18.037  0.00  0.00    +0.000 A 
ATOM      5  C   UNL     1       6.369   6.951  17.046  0.00  0.00    +0.000 A 
ATOM      6  C   UNL     1       5.538   5.897  16.676  0.00  0.00    +0.000 A 
ENDROOT
BRANCH   4   7
ATOM      7  C   UNL     1       8.228   7.863  18.467  0.00  0.00    +0.000 C 
ATOM      8  C   UNL     1       8.120   9.129  18.040  0.00  0.00    +0.000 C 
BRANCH   8   9
ATOM      9  C   UNL     1       9.087  10.142  18.457  0.00  0.00    +0.000 A 
ATOM     10  C   UNL     1       9.182  10.471  19.815  0.00  0.00    +0.000 A 
ATOM     11  C   UNL     1      10.083  11.452  20.218  0.00  0.00    +0.000 A 
ATOM     12  C   UNL     1      10.896  12.102  19.296  0.00  0.00    +0.000 A 
ATOM     13  C   UNL     1      10.790  11.767  17.950  0.00  0.00    +0.000 A 
ATOM     14  C   UNL     1       9.891  10.795  17.521  0.00  0.00    +0.000 A 
BRANCH  11  15
ATOM     15  O   UNL     1      10.191  11.812  21.530  0.00  0.00    +0.000 OA
ATOM     16  H   UNL     1      10.805  11.199  21.966  0.00  0.00    +0.000 HD
ENDBRANCH  11  15
BRANCH  13  17
ATOM     17  O   UNL     1      11.558  12.383  17.004  0.00  0.00    +0.000 OA
ATOM     18  H   UNL     1      12.032  11.700  16.502  0.00  0.00    +0.000 HD
ENDBRANCH  13  17
ENDBRANCH   8   9
ENDBRANCH   4   7
BRANCH   1  19
ATOM     19  C   UNL     1       4.740   3.522  16.878  0.00  0.00    +0.000 C 
BRANCH  19  21
ATOM     20  O   UNL     1       2.365   3.817  16.467  0.00  0.00    +0.000 OA
ATOM     21  C   UNL     1       3.286   3.721  17.277  0.00  0.00    +0.000 C 
BRANCH  21  22
ATOM     22  C   UNL     1       2.966   3.894  18.725  0.00  0.00    +0.000 A 
ATOM     23  C   UNL     1       3.163   2.783  19.562  0.00  0.00    +0.000 A 
ATOM     24  C   UNL     1       2.864   2.859  20.923  0.00  0.00    +0.000 A 
ATOM     25  C   UNL     1       2.374   4.046  21.463  0.00  0.00    +0.000 A 
ATOM     26  C   UNL     1       2.194   5.161  20.647  0.00  0.00    +0.000 A 
ATOM     27  C   UNL     1       2.495   5.087  19.285  0.00  0.00    +0.000 A 
BRANCH  27  28
ATOM     28  O   UNL     1       2.348   6.215  18.529  0.00  0.00    +0.000 OA
ATOM     29  H   UNL     1       1.734   6.827  18.970  0.00  0.00    +0.000 HD
ENDBRANCH  27  28
ENDBRANCH  21  22
ENDBRANCH  19  21
ENDBRANCH   1  19
TORSDOF 8
ENDMDL
MODEL 6
REMARK VINA RESULT:      -8.6      0.912      1.310
REMARK  Name = 
REMARK  8 active torsions:
REMARK  status: ('A' for Active; 'I' for Inactive)
REMARK    1  A    between atoms: C_2  and  C_3
REMARK    2  A    between atoms: C_2  and  C_20
REMARK    3  A    between atoms: C_3  and  C_4
REMARK    4  A    between atoms: C_7  and  C_8
REMARK    5  A    between atoms: C_9  and  C_10
REMARK    6  A    between atoms: C_12  and  O_13
REMARK    7  A    between atoms: C_15  and  O_16
REMARK    8  A    between atoms: C_25  and  O_26
REMARK                            x       y       z     vdW  Elec       q    Type
REMARK                         _______ _______ _______ _____ _____    ______ ____
ROOT
ATOM      1  C   UNL     1       5.535   5.066  16.982  0.00  0.00    +0.000 A 
ATOM      2  C   UNL     1       6.632   4.723  17.774  0.00  0.00    +0.000 A 
ATOM      3  C   UNL     1       7.508   5.713  18.226  0.00  0.00    +0.000 A 
ATOM      4  C   UNL     1       7.302   7.058  17.890  0.00  0.00    +0.000 A 
ATOM      5  C   UNL     1       6.189   7.398  17.115  0.00  0.00    +0.000 A 
ATOM      6  C   UNL     1       5.315   6.412  16.662  0.00  0.00    +0.000 A 
ENDROOT
BRANCH   4   7
ATOM      7  C   UNL     1       8.241   8.067  18.399  0.00  0.00    +0.000 C 
ATOM      8  C   UNL     1       8.204   9.362  18.057  0.00  0.00    +0.000 C 
BRANCH   8   9
ATOM      9  C   UNL     1       9.218  10.292  18.548  0.00  0.00    +0.000 A 
ATOM     10  C   UNL     1      10.177  10.785  17.654  0.00  0.00    +0.000 A 
ATOM     11  C   UNL     1      11.161  11.652  18.118  0.00  0.00    +0.000 A 
ATOM     12  C   UNL     1      11.200  12.046  19.451  0.00  0.00    +0.000 A 
ATOM     13  C   UNL     1      10.243  11.548  20.330  0.00  0.00    +0.000 A 
ATOM     14  C   UNL     1       9.254  10.673  19.891  0.00  0.00    +0.000 A 
BRANCH  11  15
ATOM     15  O   UNL     1      12.122  12.139  17.280  0.00  0.00    +0.000 OA
ATOM     16  H   UNL     1      11.684  12.595  16.543  0.00  0.00    +0.000 HD
ENDBRANCH  11  15
BRANCH  13  17
ATOM     17  O   UNL     1      10.245  11.895  21.650  0.00  0.00    +0.000 OA
ATOM     18  H   UNL     1      10.804  12.681  21.759  0.00  0.00    +0.000 HD
ENDBRANCH  13  17
ENDBRANCH   8   9
ENDBRANCH   4   7
BRANCH   1  19
ATOM     19  C   UNL     1       4.571   4.018  16.481  0.00  0.00    +0.000 C 
BRANCH  19  21
ATOM     20  O   UNL     1       4.258   1.881  17.589  0.00  0.00    +0.000 OA
ATOM     21  C   UNL     1       4.040   3.091  17.563  0.00  0.00    +0.000 C 
BRANCH  21  22
ATOM     22  C   UNL     1       3.136   3.663  18.605  0.00  0.00    +0.000 A 
ATOM     23  C   UNL     1       3.681   3.873  19.881  0.00  0.00    +0.000 A 
ATOM     24  C   UNL     1       2.892   4.382  20.915  0.00  0.00    +0.000 A 
ATOM     25  C   UNL     1       1.555   4.692  20.680  0.00  0.00    +0.000 A 
ATOM     26  C   UNL     1       1.007   4.507  19.413  0.00  0.00    +0.000 A 
ATOM     27  C   UNL     1       1.796   4.000  18.377  0.00  0.00    +0.000 A 
BRANCH  27  28
ATOM     28  O   UNL     1       1.235   3.876  17.139  0.00  0.00    +0.000 OA
ATOM     29  H   UNL     1       0.955   4.750  16.817  0.00  0.00    +0.000 HD
ENDBRANCH  27  28
ENDBRANCH  21  22
ENDBRANCH  19  21
ENDBRANCH   1  19
TORSDOF 8
ENDMDL
MODEL 7
REMARK VINA RESULT:      -8.5      1.418      2.435
REMARK  Name = 
REMARK  8 active torsions:
REMARK  status: ('A' for Active; 'I' for Inactive)
REMARK    1  A    between atoms: C_2  and  C_3
REMARK    2  A    between atoms: C_2  and  C_20
REMARK    3  A    between atoms: C_3  and  C_4
REMARK    4  A    between atoms: C_7  and  C_8
REMARK    5  A    between atoms: C_9  and  C_10
REMARK    6  A    between atoms: C_12  and  O_13
REMARK    7  A    between atoms: C_15  and  O_16
REMARK    8  A    between atoms: C_25  and  O_26
REMARK                            x       y       z     vdW  Elec       q    Type
REMARK                         _______ _______ _______ _____ _____    ______ ____
ROOT
ATOM      1  C   UNL     1       6.538   5.351  17.974  0.00  0.00    +0.000 A 
ATOM      2  C   UNL     1       7.611   5.629  18.825  0.00  0.00    +0.000 A 
ATOM      3  C   UNL     1       8.210   6.891  18.807  0.00  0.00    +0.000 A 
ATOM      4  C   UNL     1       7.750   7.890  17.938  0.00  0.00    +0.000 A 
ATOM      5  C   UNL     1       6.662   7.613  17.106  0.00  0.00    +0.000 A 
ATOM      6  C   UNL     1       6.064   6.355  17.120  0.00  0.00    +0.000 A 
ENDROOT
BRANCH   4   7
ATOM      7  C   UNL     1       8.402   9.206  17.965  0.00  0.00    +0.000 C 
ATOM      8  C   UNL     1       9.014   9.715  19.043  0.00  0.00    +0.000 C 
BRANCH   8   9
ATOM      9  C   UNL     1       9.577  11.063  19.015  0.00  0.00    +0.000 A 
ATOM     10  C   UNL     1       9.753  11.751  20.223  0.00  0.00    +0.000 A 
ATOM     11  C   UNL     1      10.265  13.044  20.204  0.00  0.00    +0.000 A 
ATOM     12  C   UNL     1      10.614  13.661  19.007  0.00  0.00    +0.000 A 
ATOM     13  C   UNL     1      10.431  12.968  17.814  0.00  0.00    +0.000 A 
ATOM     14  C   UNL     1       9.914  11.676  17.807  0.00  0.00    +0.000 A 
BRANCH  11  15
ATOM     15  O   UNL     1      10.434  13.751  21.359  0.00  0.00    +0.000 OA
ATOM     16  H   UNL     1      10.634  14.672  21.129  0.00  0.00    +0.000 HD
ENDBRANCH  11  15
BRANCH  13  17
ATOM     17  O   UNL     1      10.748  13.533  16.612  0.00  0.00    +0.000 OA
ATOM     18  H   UNL     1      10.147  13.175  15.938  0.00  0.00    +0.000 HD
ENDBRANCH  13  17
ENDBRANCH   8   9
ENDBRANCH   4   7
BRANCH   1  19
ATOM     19  C   UNL     1       5.870   3.998  17.972  0.00  0.00    +0.000 C 
BRANCH  19  21
ATOM     20  O   UNL     1       3.755   4.196  16.797  0.00  0.00    +0.000 OA
ATOM     21  C   UNL     1       4.354   4.051  17.861  0.00  0.00    +0.000 C 
BRANCH  21  22
ATOM     22  C   UNL     1       3.550   4.012  19.119  0.00  0.00    +0.000 A 
ATOM     23  C   UNL     1       3.618   2.838  19.886  0.00  0.00    +0.000 A 
ATOM     24  C   UNL     1       2.877   2.715  21.062  0.00  0.00    +0.000 A 
ATOM     25  C   UNL     1       2.067   3.766  21.487  0.00  0.00    +0.000 A 
ATOM     26  C   UNL     1       2.007   4.944  20.746  0.00  0.00    +0.000 A 
ATOM     27  C   UNL     1       2.750   5.069  19.570  0.00  0.00    +0.000 A 
BRANCH  27  28
ATOM     28  O   UNL     1       2.700   6.255  18.897  0.00  0.00    +0.000 OA
ATOM     29  H   UNL     1       3.574   6.457  18.522  0.00  0.00    +0.000 HD
ENDBRANCH  27  28
ENDBRANCH  21  22
ENDBRANCH  19  21
ENDBRANCH   1  19
TORSDOF 8
ENDMDL
MODEL 8
REMARK VINA RESULT:      -8.5      1.117      1.682
REMARK  Name = 
REMARK  8 active torsions:
REMARK  status: ('A' for Active; 'I' for Inactive)
REMARK    1  A    between atoms: C_2  and  C_3
REMARK    2  A    between atoms: C_2  and  C_20
REMARK    3  A    between atoms: C_3  and  C_4
REMARK    4  A    between atoms: C_7  and  C_8
REMARK    5  A    between atoms: C_9  and  C_10
REMARK    6  A    between atoms: C_12  and  O_13
REMARK    7  A    between atoms: C_15  and  O_16
REMARK    8  A    between atoms: C_25  and  O_26
REMARK                            x       y       z     vdW  Elec       q    Type
REMARK                         _______ _______ _______ _____ _____    ______ ____
ROOT
ATOM      1  C   UNL     1       6.159   5.068  17.721  0.00  0.00    +0.000 A 
ATOM      2  C   UNL     1       5.799   6.134  16.893  0.00  0.00    +0.000 A 
ATOM      3  C   UNL     1       6.479   7.351  16.982  0.00  0.00    +0.000 A 
ATOM      4  C   UNL     1       7.524   7.522  17.900  0.00  0.00    +0.000 A 
ATOM      5  C   UNL     1       7.894   6.444  18.710  0.00  0.00    +0.000 A 
ATOM      6  C   UNL     1       7.217   5.230  18.625  0.00  0.00    +0.000 A 
ENDROOT
BRANCH   4   7
ATOM      7  C   UNL     1       8.219   8.815  17.948  0.00  0.00    +0.000 C 
ATOM      8  C   UNL     1       8.882   9.268  19.021  0.00  0.00    +0.000 C 
BRANCH   8   9
ATOM      9  C   UNL     1       9.488  10.597  19.018  0.00  0.00    +0.000 A 
ATOM     10  C   UNL     1      10.086  11.068  17.842  0.00  0.00    +0.000 A 
ATOM     11  C   UNL     1      10.687  12.322  17.837  0.00  0.00    +0.000 A 
ATOM     12  C   UNL     1      10.694  13.120  18.976  0.00  0.00    +0.000 A 
ATOM     13  C   UNL     1      10.098  12.640  20.138  0.00  0.00    +0.000 A 
ATOM     14  C   UNL     1       9.497  11.385  20.170  0.00  0.00    +0.000 A 
BRANCH  11  15
ATOM     15  O   UNL     1      11.295  12.807  16.715  0.00  0.00    +0.000 OA
ATOM     16  H   UNL     1      11.818  13.587  16.962  0.00  0.00    +0.000 HD
ENDBRANCH  11  15
BRANCH  13  17
ATOM     17  O   UNL     1      10.087  13.380  21.285  0.00  0.00    +0.000 OA
ATOM     18  H   UNL     1       9.581  14.193  21.121  0.00  0.00    +0.000 HD
ENDBRANCH  13  17
ENDBRANCH   8   9
ENDBRANCH   4   7
BRANCH   1  19
ATOM     19  C   UNL     1       5.444   3.741  17.647  0.00  0.00    +0.000 C 
BRANCH  19  21
ATOM     20  O   UNL     1       3.310   4.100  16.547  0.00  0.00    +0.000 OA
ATOM     21  C   UNL     1       3.929   3.852  17.580  0.00  0.00    +0.000 C 
BRANCH  21  22
ATOM     22  C   UNL     1       3.154   3.739  18.852  0.00  0.00    +0.000 A 
ATOM     23  C   UNL     1       3.108   4.874  19.677  0.00  0.00    +0.000 A 
ATOM     24  C   UNL     1       2.424   4.839  20.894  0.00  0.00    +0.000 A 
ATOM     25  C   UNL     1       1.775   3.673  21.293  0.00  0.00    +0.000 A 
ATOM     26  C   UNL     1       1.796   2.546  20.474  0.00  0.00    +0.000 A 
ATOM     27  C   UNL     1       2.478   2.581  19.255  0.00  0.00    +0.000 A 
BRANCH  27  28
ATOM     28  O   UNL     1       2.437   1.472  18.460  0.00  0.00    +0.000 OA
ATOM     29  H   UNL     1       1.528   1.128  18.425  0.00  0.00    +0.000 HD
ENDBRANCH  27  28
ENDBRANCH  21  22
ENDBRANCH  19  21
ENDBRANCH   1  19
TORSDOF 8
ENDMDL
MODEL 9
REMARK VINA RESULT:      -8.5      1.486      1.812
REMARK  Name = 
REMARK  8 active torsions:
REMARK  status: ('A' for Active; 'I' for Inactive)
REMARK    1  A    between atoms: C_2  and  C_3
REMARK    2  A    between atoms: C_2  and  C_20
REMARK    3  A    between atoms: C_3  and  C_4
REMARK    4  A    between atoms: C_7  and  C_8
REMARK    5  A    between atoms: C_9  and  C_10
REMARK    6  A    between atoms: C_12  and  O_13
REMARK    7  A    between atoms: C_15  and  O_16
REMARK    8  A    between atoms: C_25  and  O_26
REMARK                            x       y       z     vdW  Elec       q    Type
REMARK                         _______ _______ _______ _____ _____    ______ ____
ROOT
ATOM      1  C   UNL     1       6.118   5.181  17.821  0.00  0.00    +0.000 A 
ATOM      2  C   UNL     1       7.299   5.088  18.561  0.00  0.00    +0.000 A 
ATOM      3  C   UNL     1       8.096   6.219  18.754  0.00  0.00    +0.000 A 
ATOM      4  C   UNL     1       7.728   7.456  18.208  0.00  0.00    +0.000 A 
ATOM      5  C   UNL     1       6.533   7.548  17.487  0.00  0.00    +0.000 A 
ATOM      6  C   UNL     1       5.737   6.421  17.292  0.00  0.00    +0.000 A 
ENDROOT
BRANCH   4   7
ATOM      7  C   UNL     1       8.589   8.621  18.449  0.00  0.00    +0.000 C 
ATOM      8  C   UNL     1       8.254   9.878  18.128  0.00  0.00    +0.000 C 
BRANCH   8   9
ATOM      9  C   UNL     1       9.195  10.976  18.331  0.00  0.00    +0.000 A 
ATOM     10  C   UNL     1      10.332  10.759  19.120  0.00  0.00    +0.000 A 
ATOM     11  C   UNL     1      11.220  11.806  19.340  0.00  0.00    +0.000 A 
ATOM     12  C   UNL     1      11.004  13.061  18.781  0.00  0.00    +0.000 A 
ATOM     13  C   UNL     1       9.870  13.265  18.001  0.00  0.00    +0.000 A 
ATOM     14  C   UNL     1       8.962  12.235  17.773  0.00  0.00    +0.000 A 
BRANCH  11  15
ATOM     15  O   UNL     1      12.330  11.637  20.117  0.00  0.00    +0.000 OA
ATOM     16  H   UNL     1      12.045  11.365  21.004  0.00  0.00    +0.000 HD
ENDBRANCH  11  15
BRANCH  13  17
ATOM     17  O   UNL     1       9.606  14.480  17.439  0.00  0.00    +0.000 OA
ATOM     18  H   UNL     1      10.452  14.913  17.234  0.00  0.00    +0.000 HD
ENDBRANCH  13  17
ENDBRANCH   8   9
ENDBRANCH   4   7
BRANCH   1  19
ATOM     19  C   UNL     1       5.235   3.977  17.597  0.00  0.00    +0.000 C 
BRANCH  19  21
ATOM     20  O   UNL     1       5.274   2.488  19.514  0.00  0.00    +0.000 OA
ATOM     21  C   UNL     1       4.688   3.359  18.875  0.00  0.00    +0.000 C 
BRANCH  21  22
ATOM     22  C   UNL     1       3.327   3.769  19.333  0.00  0.00    +0.000 A 
ATOM     23  C   UNL     1       3.121   5.134  19.588  0.00  0.00    +0.000 A 
ATOM     24  C   UNL     1       1.884   5.593  20.042  0.00  0.00    +0.000 A 
ATOM     25  C   UNL     1       0.838   4.693  20.238  0.00  0.00    +0.000 A 
ATOM     26  C   UNL     1       1.023   3.338  19.969  0.00  0.00    +0.000 A 
ATOM     27  C   UNL     1       2.261   2.879  19.512  0.00  0.00    +0.000 A 
BRANCH  27  28
ATOM     28  O   UNL     1       2.389   1.553  19.216  0.00  0.00    +0.000 OA
ATOM     29  H   UNL     1       2.713   1.450  18.305  0.00  0.00    +0.000 HD
ENDBRANCH  27  28
ENDBRANCH  21  22
ENDBRANCH  19  21
ENDBRANCH   1  19
TORSDOF 8
ENDMDL
