MODEL 1
REMARK VINA RESULT:      -7.2      0.000      0.000
REMARK  Name = 
REMARK  4 active torsions:
REMARK  status: ('A' for Active; 'I' for Inactive)
REMARK    1  A    between atoms: N_3  and  C_4
REMARK    2  A    between atoms: C_4  and  C_5
REMARK    3  A    between atoms: N_13  and  C_14
REMARK    4  A    between atoms: C_17  and  N_18
REMARK                            x       y       z     vdW  Elec       q    Type
REMARK                         _______ _______ _______ _____ _____    ______ ____
ROOT
ATOM      1  O   UNL     1       8.332   7.229  18.719  0.00  0.00    +0.000 OA
ATOM      2  C   UNL     1       7.830   7.976  17.889  0.00  0.00    +0.000 C 
ATOM      3  N   UNL     1       8.185   9.307  17.792  0.00  0.00    +0.000 N 
ATOM      4  N   UNL     1       6.889   7.626  16.945  0.00  0.00    +0.000 N 
ATOM      5  H   UNL     1       7.493   9.937  17.413  0.00  0.00    +0.000 HD
ATOM      6  H   UNL     1       6.638   8.321  16.257  0.00  0.00    +0.000 HD
ENDROOT
BRANCH   4   7
ATOM      7  C   UNL     1       6.340   6.355  16.787  0.00  0.00    +0.000 A 
ATOM      8  C   UNL     1       6.804   5.356  15.955  0.00  0.00    +0.000 A 
ATOM      9  S   UNL     1       5.847   3.936  16.016  0.00  0.00    +0.000 S 
ATOM     10  C   UNL     1       4.810   4.633  17.161  0.00  0.00    +0.000 A 
ATOM     11  C   UNL     1       5.177   5.919  17.505  0.00  0.00    +0.000 A 
BRANCH  10  12
ATOM     12  N   UNL     1       3.684   3.898  17.673  0.00  0.00    +0.000 N 
ATOM     13  O   UNL     1       2.830   4.562  18.277  0.00  0.00    +0.000 OA
ATOM     14  O   UNL     1       3.637   2.678  17.481  0.00  0.00    +0.000 OA
ENDBRANCH  10  12
ENDBRANCH   4   7
BRANCH   3  15
ATOM     15  C   UNL     1       9.097   9.866  18.766  0.00  0.00    +0.000 C 
BRANCH  15  16
ATOM     16  C   UNL     1       9.612  11.210  18.324  0.00  0.00    +0.000 A 
ATOM     17  C   UNL     1      10.951  11.350  17.920  0.00  0.00    +0.000 A 
ATOM     18  C   UNL     1      11.445  12.592  17.517  0.00  0.00    +0.000 A 
ATOM     19  C   UNL     1      10.600  13.697  17.505  0.00  0.00    +0.000 A 
ATOM     20  F   UNL     1      11.095  14.880  17.115  0.00  0.00    +0.000 F 
ATOM     21  C   UNL     1       9.267  13.573  17.889  0.00  0.00    +0.000 A 
ATOM     22 CL   UNL     1       8.218  14.938  17.870  0.00  0.00    +0.000 Cl
ATOM     23  C   UNL     1       8.770  12.333  18.296  0.00  0.00    +0.000 A 
ENDBRANCH  15  16
ENDBRANCH   3  15
TORSDOF 4
ENDMDL
MODEL 2
REMARK VINA RESULT:      -7.2      1.162      1.582
REMARK  Name = 
REMARK  4 active torsions:
REMARK  status: ('A' for Active; 'I' for Inactive)
REMARK    1  A    between atoms: N_3  and  C_4
REMARK    2  A    between atoms: C_4  and  C_5
REMARK    3  A    between atoms: N_13  and  C_14
REMARK    4  A    between atoms: C_17  and  N_18
REMARK                            x       y       z     vdW  Elec       q    Type
REMARK                         _______ _______ _______ _____ _____    ______ ____
ROOT
ATOM      1  O   UNL     1       8.333   6.999  18.788  0.00  0.00    +0.000 OA
ATOM      2  C   UNL     1       7.881   7.825  18.005  0.00  0.00    +0.000 C 
ATOM      3  N   UNL     1       8.279   9.147  18.025  0.00  0.00    +0.000 N 
ATOM      4  N   UNL     1       6.963   7.580  17.007  0.00  0.00    +0.000 N 
ATOM      5  H   UNL     1       7.619   9.826  17.675  0.00  0.00    +0.000 HD
ATOM      6  H   UNL     1       6.756   8.334  16.369  0.00  0.00    +0.000 HD
ENDROOT
BRANCH   4   7
ATOM      7  C   UNL     1       6.382   6.344  16.732  0.00  0.00    +0.000 A 
ATOM      8  C   UNL     1       6.820   5.417  15.806  0.00  0.00    +0.000 A 
ATOM      9  S   UNL     1       5.828   4.021  15.737  0.00  0.00    +0.000 S 
ATOM     10  C   UNL     1       4.812   4.631  16.948  0.00  0.00    +0.000 A 
ATOM     11  C   UNL     1       5.211   5.869  17.410  0.00  0.00    +0.000 A 
BRANCH  10  12
ATOM     12  N   UNL     1       3.669   3.878  17.393  0.00  0.00    +0.000 N 
ATOM     13  O   UNL     1       3.863   2.674  17.612  0.00  0.00    +0.000 OA
ATOM     14  O   UNL     1       2.590   4.466  17.528  0.00  0.00    +0.000 OA
ENDBRANCH  10  12
ENDBRANCH   4   7
BRANCH   3  15
ATOM     15  C   UNL     1       9.173   9.598  19.068  0.00  0.00    +0.000 C 
BRANCH  15  16
ATOM     16  C   UNL     1       9.522  11.053  18.897  0.00  0.00    +0.000 A 
ATOM     17  C   UNL     1       9.098  11.993  19.852  0.00  0.00    +0.000 A 
ATOM     18  C   UNL     1       9.405  13.347  19.701  0.00  0.00    +0.000 A 
ATOM     19  C   UNL     1      10.147  13.766  18.601  0.00  0.00    +0.000 A 
ATOM     20  F   UNL     1      10.431  15.070  18.476  0.00  0.00    +0.000 F 
ATOM     21  C   UNL     1      10.587  12.845  17.653  0.00  0.00    +0.000 A 
ATOM     22 CL   UNL     1      11.510  13.359  16.293  0.00  0.00    +0.000 Cl
ATOM     23  C   UNL     1      10.278  11.490  17.798  0.00  0.00    +0.000 A 
ENDBRANCH  15  16
ENDBRANCH   3  15
TORSDOF 4
ENDMDL
MODEL 3
REMARK VINA RESULT:      -7.2      6.811      8.590
REMARK  Name = 
REMARK  4 active torsions:
REMARK  status: ('A' for Active; 'I' for Inactive)
REMARK    1  A    between atoms: N_3  and  C_4
REMARK    2  A    between atoms: C_4  and  C_5
REMARK    3  A    between atoms: N_13  and  C_14
REMARK    4  A    between atoms: C_17  and  N_18
REMARK                            x       y       z     vdW  Elec       q    Type
REMARK                         _______ _______ _______ _____ _____    ______ ____
ROOT
ATOM      1  O   UNL     1       2.248   7.436  19.865  0.00  0.00    +0.000 OA
ATOM      2  C   UNL     1       2.296   7.967  18.762  0.00  0.00    +0.000 C 
ATOM      3  N   UNL     1       1.630   9.145  18.487  0.00  0.00    +0.000 N 
ATOM      4  N   UNL     1       3.008   7.513  17.673  0.00  0.00    +0.000 N 
ATOM      5  H   UNL     1       1.368   9.306  17.526  0.00  0.00    +0.000 HD
ATOM      6  H   UNL     1       3.039   8.106  16.857  0.00  0.00    +0.000 HD
ENDROOT
BRANCH   4   7
ATOM      7  C   UNL     1       3.784   6.356  17.642  0.00  0.00    +0.000 A 
ATOM      8  C   UNL     1       3.320   5.055  17.647  0.00  0.00    +0.000 A 
ATOM      9  S   UNL     1       4.582   3.896  17.626  0.00  0.00    +0.000 S 
ATOM     10  C   UNL     1       5.759   5.115  17.598  0.00  0.00    +0.000 A 
ATOM     11  C   UNL     1       5.216   6.385  17.597  0.00  0.00    +0.000 A 
BRANCH  10  12
ATOM     12  N   UNL     1       7.159   4.782  17.580  0.00  0.00    +0.000 N 
ATOM     13  O   UNL     1       7.645   4.535  16.467  0.00  0.00    +0.000 OA
ATOM     14  O   UNL     1       7.777   4.765  18.650  0.00  0.00    +0.000 OA
ENDBRANCH  10  12
ENDBRANCH   4   7
BRANCH   3  15
ATOM     15  C   UNL     1       0.761   9.714  19.494  0.00  0.00    +0.000 C 
BRANCH  15  16
ATOM     16  C   UNL     1      -0.487  10.287  18.877  0.00  0.00    +0.000 A 
ATOM     17  C   UNL     1      -1.177  11.325  19.526  0.00  0.00    +0.000 A 
ATOM     18  C   UNL     1      -2.342  11.859  18.971  0.00  0.00    +0.000 A 
ATOM     19  C   UNL     1      -2.816  11.366  17.759  0.00  0.00    +0.000 A 
ATOM     20  F   UNL     1      -3.936  11.893  17.244  0.00  0.00    +0.000 F 
ATOM     21  C   UNL     1      -2.136  10.347  17.096  0.00  0.00    +0.000 A 
ATOM     22 CL   UNL     1      -2.717   9.738  15.594  0.00  0.00    +0.000 Cl
ATOM     23  C   UNL     1      -0.973   9.807  17.650  0.00  0.00    +0.000 A 
ENDBRANCH  15  16
ENDBRANCH   3  15
TORSDOF 4
ENDMDL
MODEL 4
REMARK VINA RESULT:      -7.1      5.413      9.142
REMARK  Name = 
REMARK  4 active torsions:
REMARK  status: ('A' for Active; 'I' for Inactive)
REMARK    1  A    between atoms: N_3  and  C_4
REMARK    2  A    between atoms: C_4  and  C_5
REMARK    3  A    between atoms: N_13  and  C_14
REMARK    4  A    between atoms: C_17  and  N_18
REMARK                            x       y       z     vdW  Elec       q    Type
REMARK                         _______ _______ _______ _____ _____    ______ ____
ROOT
ATOM      1  O   UNL     1       8.604   7.484  18.765  0.00  0.00    +0.000 OA
ATOM      2  C   UNL     1       8.015   8.172  17.941  0.00  0.00    +0.000 C 
ATOM      3  N   UNL     1       7.086   7.637  17.070  0.00  0.00    +0.000 N 
ATOM      4  N   UNL     1       8.155   9.532  17.769  0.00  0.00    +0.000 N 
ATOM      5  H   UNL     1       6.953   8.120  16.194  0.00  0.00    +0.000 HD
ATOM      6  H   UNL     1       7.531   9.987  17.120  0.00  0.00    +0.000 HD
ENDROOT
BRANCH   4   7
ATOM      7  C   UNL     1       9.010  10.353  18.502  0.00  0.00    +0.000 A 
ATOM      8  C   UNL     1       9.061  10.467  19.877  0.00  0.00    +0.000 A 
ATOM      9  S   UNL     1      10.231  11.601  20.411  0.00  0.00    +0.000 S 
ATOM     10  C   UNL     1      10.690  11.943  18.816  0.00  0.00    +0.000 A 
ATOM     11  C   UNL     1       9.980  11.210  17.885  0.00  0.00    +0.000 A 
BRANCH  10  12
ATOM     12  N   UNL     1      11.719  12.910  18.541  0.00  0.00    +0.000 N 
ATOM     13  O   UNL     1      12.173  12.908  17.388  0.00  0.00    +0.000 OA
ATOM     14  O   UNL     1      12.076  13.668  19.450  0.00  0.00    +0.000 OA
ENDBRANCH  10  12
ENDBRANCH   4   7
BRANCH   3  15
ATOM     15  C   UNL     1       6.880   6.206  17.053  0.00  0.00    +0.000 C 
BRANCH  15  16
ATOM     16  C   UNL     1       5.442   5.858  17.339  0.00  0.00    +0.000 A 
ATOM     17  C   UNL     1       4.509   6.881  17.583  0.00  0.00    +0.000 A 
ATOM     18  C   UNL     1       3.176   6.574  17.859  0.00  0.00    +0.000 A 
ATOM     19  C   UNL     1       2.766   5.244  17.882  0.00  0.00    +0.000 A 
ATOM     20  F   UNL     1       1.481   4.972  18.150  0.00  0.00    +0.000 F 
ATOM     21  C   UNL     1       3.675   4.220  17.629  0.00  0.00    +0.000 A 
ATOM     22 CL   UNL     1       3.170   2.574  17.651  0.00  0.00    +0.000 Cl
ATOM     23  C   UNL     1       5.011   4.522  17.356  0.00  0.00    +0.000 A 
ENDBRANCH  15  16
ENDBRANCH   3  15
TORSDOF 4
ENDMDL
MODEL 5
REMARK VINA RESULT:      -7.0      1.402      1.681
REMARK  Name = 
REMARK  4 active torsions:
REMARK  status: ('A' for Active; 'I' for Inactive)
REMARK    1  A    between atoms: N_3  and  C_4
REMARK    2  A    between atoms: C_4  and  C_5
REMARK    3  A    between atoms: N_13  and  C_14
REMARK    4  A    between atoms: C_17  and  N_18
REMARK                            x       y       z     vdW  Elec       q    Type
REMARK                         _______ _______ _______ _____ _____    ______ ____
ROOT
ATOM      1  O   UNL     1       8.247   6.930  18.771  0.00  0.00    +0.000 OA
ATOM      2  C   UNL     1       7.821   7.733  17.950  0.00  0.00    +0.000 C 
ATOM      3  N   UNL     1       8.224   9.053  17.941  0.00  0.00    +0.000 N 
ATOM      4  N   UNL     1       6.930   7.461  16.935  0.00  0.00    +0.000 N 
ATOM      5  H   UNL     1       7.578   9.724  17.553  0.00  0.00    +0.000 HD
ATOM      6  H   UNL     1       6.745   8.196  16.268  0.00  0.00    +0.000 HD
ENDROOT
BRANCH   4   7
ATOM      7  C   UNL     1       6.351   6.220  16.682  0.00  0.00    +0.000 A 
ATOM      8  C   UNL     1       6.798   5.272  15.782  0.00  0.00    +0.000 A 
ATOM      9  S   UNL     1       5.806   3.876  15.733  0.00  0.00    +0.000 S 
ATOM     10  C   UNL     1       4.776   4.513  16.919  0.00  0.00    +0.000 A 
ATOM     11  C   UNL     1       5.173   5.761  17.358  0.00  0.00    +0.000 A 
BRANCH  10  12
ATOM     12  N   UNL     1       3.629   3.771  17.368  0.00  0.00    +0.000 N 
ATOM     13  O   UNL     1       3.819   2.572  17.616  0.00  0.00    +0.000 OA
ATOM     14  O   UNL     1       2.549   4.363  17.480  0.00  0.00    +0.000 OA
ENDBRANCH  10  12
ENDBRANCH   4   7
BRANCH   3  15
ATOM     15  C   UNL     1       9.091   9.533  18.995  0.00  0.00    +0.000 C 
BRANCH  15  16
ATOM     16  C   UNL     1       9.182  11.036  18.986  0.00  0.00    +0.000 A 
ATOM     17  C   UNL     1       8.856  11.751  17.821  0.00  0.00    +0.000 A 
ATOM     18  C   UNL     1       8.945  13.144  17.795  0.00  0.00    +0.000 A 
ATOM     19  C   UNL     1       9.348  13.830  18.936  0.00  0.00    +0.000 A 
ATOM     20  F   UNL     1       9.426  15.167  18.889  0.00  0.00    +0.000 F 
ATOM     21  C   UNL     1       9.661  13.137  20.104  0.00  0.00    +0.000 A 
ATOM     22 CL   UNL     1      10.155  13.983  21.519  0.00  0.00    +0.000 Cl
ATOM     23  C   UNL     1       9.577  11.743  20.133  0.00  0.00    +0.000 A 
ENDBRANCH  15  16
ENDBRANCH   3  15
TORSDOF 4
ENDMDL
MODEL 6
REMARK VINA RESULT:      -7.0      8.350     10.564
REMARK  Name = 
REMARK  4 active torsions:
REMARK  status: ('A' for Active; 'I' for Inactive)
REMARK    1  A    between atoms: N_3  and  C_4
REMARK    2  A    between atoms: C_4  and  C_5
REMARK    3  A    between atoms: N_13  and  C_14
REMARK    4  A    between atoms: C_17  and  N_18
REMARK                            x       y       z     vdW  Elec       q    Type
REMARK                         _______ _______ _______ _____ _____    ______ ____
ROOT
ATOM      1  O   UNL     1       1.809   8.646  17.683  0.00  0.00    +0.000 OA
ATOM      2  C   UNL     1       1.605   8.633  18.890  0.00  0.00    +0.000 C 
ATOM      3  N   UNL     1       2.259   7.756  19.733  0.00  0.00    +0.000 N 
ATOM      4  N   UNL     1       0.750   9.465  19.579  0.00  0.00    +0.000 N 
ATOM      5  H   UNL     1       1.784   7.507  20.588  0.00  0.00    +0.000 HD
ATOM      6  H   UNL     1       0.757   9.411  20.587  0.00  0.00    +0.000 HD
ENDROOT
BRANCH   4   7
ATOM      7  C   UNL     1      -0.042  10.458  19.006  0.00  0.00    +0.000 A 
ATOM      8  C   UNL     1       0.083  11.820  19.196  0.00  0.00    +0.000 A 
ATOM      9  S   UNL     1      -1.094  12.725  18.340  0.00  0.00    +0.000 S 
ATOM     10  C   UNL     1      -1.776  11.313  17.699  0.00  0.00    +0.000 A 
ATOM     11  C   UNL     1      -1.126  10.168  18.114  0.00  0.00    +0.000 A 
BRANCH  10  12
ATOM     12  N   UNL     1      -2.915  11.382  16.822  0.00  0.00    +0.000 N 
ATOM     13  O   UNL     1      -3.986  11.715  17.348  0.00  0.00    +0.000 OA
ATOM     14  O   UNL     1      -2.757  11.114  15.626  0.00  0.00    +0.000 OA
ENDBRANCH  10  12
ENDBRANCH   4   7
BRANCH   3  15
ATOM     15  C   UNL     1       3.129   6.749  19.166  0.00  0.00    +0.000 C 
BRANCH  15  16
ATOM     16  C   UNL     1       2.449   5.406  19.114  0.00  0.00    +0.000 A 
ATOM     17  C   UNL     1       2.050   4.870  17.877  0.00  0.00    +0.000 A 
ATOM     18  C   UNL     1       1.410   3.631  17.814  0.00  0.00    +0.000 A 
ATOM     19  C   UNL     1       1.176   2.917  18.985  0.00  0.00    +0.000 A 
ATOM     20  F   UNL     1       0.560   1.729  18.901  0.00  0.00    +0.000 F 
ATOM     21  C   UNL     1       1.577   3.428  20.217  0.00  0.00    +0.000 A 
ATOM     22 CL   UNL     1       1.294   2.544  21.667  0.00  0.00    +0.000 Cl
ATOM     23  C   UNL     1       2.215   4.669  20.285  0.00  0.00    +0.000 A 
ENDBRANCH  15  16
ENDBRANCH   3  15
TORSDOF 4
ENDMDL
MODEL 7
REMARK VINA RESULT:      -7.0      6.352      8.155
REMARK  Name = 
REMARK  4 active torsions:
REMARK  status: ('A' for Active; 'I' for Inactive)
REMARK    1  A    between atoms: N_3  and  C_4
REMARK    2  A    between atoms: C_4  and  C_5
REMARK    3  A    between atoms: N_13  and  C_14
REMARK    4  A    between atoms: C_17  and  N_18
REMARK                            x       y       z     vdW  Elec       q    Type
REMARK                         _______ _______ _______ _____ _____    ______ ____
ROOT
ATOM      1  O   UNL     1       2.582   5.809  20.400  0.00  0.00    +0.000 OA
ATOM      2  C   UNL     1       2.477   6.794  19.680  0.00  0.00    +0.000 C 
ATOM      3  N   UNL     1       1.757   7.909  20.063  0.00  0.00    +0.000 N 
ATOM      4  N   UNL     1       3.050   6.955  18.437  0.00  0.00    +0.000 N 
ATOM      5  H   UNL     1       1.370   8.477  19.324  0.00  0.00    +0.000 HD
ATOM      6  H   UNL     1       2.964   7.860  17.998  0.00  0.00    +0.000 HD
ENDROOT
BRANCH   4   7
ATOM      7  C   UNL     1       3.839   6.010  17.784  0.00  0.00    +0.000 A 
ATOM      8  C   UNL     1       3.448   4.746  17.390  0.00  0.00    +0.000 A 
ATOM      9  S   UNL     1       4.707   3.863  16.634  0.00  0.00    +0.000 S 
ATOM     10  C   UNL     1       5.783   5.160  16.814  0.00  0.00    +0.000 A 
ATOM     11  C   UNL     1       5.206   6.253  17.429  0.00  0.00    +0.000 A 
BRANCH  10  12
ATOM     12  N   UNL     1       7.141   5.055  16.349  0.00  0.00    +0.000 N 
ATOM     13  O   UNL     1       7.406   5.661  15.301  0.00  0.00    +0.000 OA
ATOM     14  O   UNL     1       7.942   4.386  17.011  0.00  0.00    +0.000 OA
ENDBRANCH  10  12
ENDBRANCH   4   7
BRANCH   3  15
ATOM     15  C   UNL     1       1.015   7.875  21.304  0.00  0.00    +0.000 C 
BRANCH  15  16
ATOM     16  C   UNL     1       0.259   9.159  21.522  0.00  0.00    +0.000 A 
ATOM     17  C   UNL     1      -0.262   9.459  22.793  0.00  0.00    +0.000 A 
ATOM     18  C   UNL     1      -0.973  10.640  23.008  0.00  0.00    +0.000 A 
ATOM     19  C   UNL     1      -1.158  11.534  21.957  0.00  0.00    +0.000 A 
ATOM     20  F   UNL     1      -1.845  12.662  22.186  0.00  0.00    +0.000 F 
ATOM     21  C   UNL     1      -0.637  11.258  20.695  0.00  0.00    +0.000 A 
ATOM     22 CL   UNL     1      -0.859  12.364  19.394  0.00  0.00    +0.000 Cl
ATOM     23  C   UNL     1       0.073  10.075  20.475  0.00  0.00    +0.000 A 
ENDBRANCH  15  16
ENDBRANCH   3  15
TORSDOF 4
ENDMDL
MODEL 8
REMARK VINA RESULT:      -7.0      7.858     10.149
REMARK  Name = 
REMARK  4 active torsions:
REMARK  status: ('A' for Active; 'I' for Inactive)
REMARK    1  A    between atoms: N_3  and  C_4
REMARK    2  A    between atoms: C_4  and  C_5
REMARK    3  A    between atoms: N_13  and  C_14
REMARK    4  A    between atoms: C_17  and  N_18
REMARK                            x       y       z     vdW  Elec       q    Type
REMARK                         _______ _______ _______ _____ _____    ______ ____
ROOT
ATOM      1  O   UNL     1       2.018   9.398  17.221  0.00  0.00    +0.000 OA
ATOM      2  C   UNL     1       1.816   8.879  18.312  0.00  0.00    +0.000 C 
ATOM      3  N   UNL     1       2.535   7.782  18.745  0.00  0.00    +0.000 N 
ATOM      4  N   UNL     1       0.900   9.296  19.252  0.00  0.00    +0.000 N 
ATOM      5  H   UNL     1       2.081   7.174  19.409  0.00  0.00    +0.000 HD
ATOM      6  H   UNL     1       0.911   8.836  20.150  0.00  0.00    +0.000 HD
ENDROOT
BRANCH   4   7
ATOM      7  C   UNL     1       0.034  10.378  19.109  0.00  0.00    +0.000 A 
ATOM      8  C   UNL     1       0.316  11.700  19.394  0.00  0.00    +0.000 A 
ATOM      9  S   UNL     1      -1.015  12.743  19.112  0.00  0.00    +0.000 S 
ATOM     10  C   UNL     1      -1.977  11.447  18.597  0.00  0.00    +0.000 A 
ATOM     11  C   UNL     1      -1.309  10.238  18.627  0.00  0.00    +0.000 A 
BRANCH  10  12
ATOM     12  N   UNL     1      -3.340  11.663  18.189  0.00  0.00    +0.000 N 
ATOM     13  O   UNL     1      -3.584  11.476  16.988  0.00  0.00    +0.000 OA
ATOM     14  O   UNL     1      -4.164  12.011  19.041  0.00  0.00    +0.000 OA
ENDBRANCH  10  12
ENDBRANCH   4   7
BRANCH   3  15
ATOM     15  C   UNL     1       3.479   7.159  17.844  0.00  0.00    +0.000 C 
BRANCH  15  16
ATOM     16  C   UNL     1       3.313   5.662  17.829  0.00  0.00    +0.000 A 
ATOM     17  C   UNL     1       4.252   4.859  17.160  0.00  0.00    +0.000 A 
ATOM     18  C   UNL     1       4.106   3.471  17.129  0.00  0.00    +0.000 A 
ATOM     19  C   UNL     1       3.026   2.878  17.776  0.00  0.00    +0.000 A 
ATOM     20  F   UNL     1       2.905   1.544  17.734  0.00  0.00    +0.000 F 
ATOM     21  C   UNL     1       2.094   3.659  18.456  0.00  0.00    +0.000 A 
ATOM     22 CL   UNL     1       0.760   2.928  19.262  0.00  0.00    +0.000 Cl
ATOM     23  C   UNL     1       2.235   5.048  18.486  0.00  0.00    +0.000 A 
ENDBRANCH  15  16
ENDBRANCH   3  15
TORSDOF 4
ENDMDL
MODEL 9
REMARK VINA RESULT:      -6.9      7.154      8.616
REMARK  Name = 
REMARK  4 active torsions:
REMARK  status: ('A' for Active; 'I' for Inactive)
REMARK    1  A    between atoms: N_3  and  C_4
REMARK    2  A    between atoms: C_4  and  C_5
REMARK    3  A    between atoms: N_13  and  C_14
REMARK    4  A    between atoms: C_17  and  N_18
REMARK                            x       y       z     vdW  Elec       q    Type
REMARK                         _______ _______ _______ _____ _____    ______ ____
ROOT
ATOM      1  O   UNL     1       1.758   7.579  20.378  0.00  0.00    +0.000 OA
ATOM      2  C   UNL     1       1.921   7.963  19.226  0.00  0.00    +0.000 C 
ATOM      3  N   UNL     1       1.484   9.201  18.798  0.00  0.00    +0.000 N 
ATOM      4  N   UNL     1       2.557   7.267  18.221  0.00  0.00    +0.000 N 
ATOM      5  H   UNL     1       1.272   9.295  17.816  0.00  0.00    +0.000 HD
ATOM      6  H   UNL     1       2.709   7.748  17.346  0.00  0.00    +0.000 HD
ENDROOT
BRANCH   4   7
ATOM      7  C   UNL     1       3.111   5.996  18.346  0.00  0.00    +0.000 A 
ATOM      8  C   UNL     1       4.446   5.695  18.531  0.00  0.00    +0.000 A 
ATOM      9  S   UNL     1       4.747   4.011  18.617  0.00  0.00    +0.000 S 
ATOM     10  C   UNL     1       3.100   3.663  18.420  0.00  0.00    +0.000 A 
ATOM     11  C   UNL     1       2.324   4.798  18.298  0.00  0.00    +0.000 A 
BRANCH  10  12
ATOM     12  N   UNL     1       2.638   2.301  18.392  0.00  0.00    +0.000 N 
ATOM     13  O   UNL     1       1.410   2.142  18.459  0.00  0.00    +0.000 OA
ATOM     14  O   UNL     1       3.473   1.394  18.302  0.00  0.00    +0.000 OA
ENDBRANCH  10  12
ENDBRANCH   4   7
BRANCH   3  15
ATOM     15  C   UNL     1       0.715  10.028  19.703  0.00  0.00    +0.000 C 
BRANCH  15  16
ATOM     16  C   UNL     1      -0.557  10.507  19.056  0.00  0.00    +0.000 A 
ATOM     17  C   UNL     1      -1.337  11.491  19.688  0.00  0.00    +0.000 A 
ATOM     18  C   UNL     1      -2.524  11.939  19.105  0.00  0.00    +0.000 A 
ATOM     19  C   UNL     1      -2.932  11.413  17.883  0.00  0.00    +0.000 A 
ATOM     20  F   UNL     1      -4.075  11.857  17.342  0.00  0.00    +0.000 F 
ATOM     21  C   UNL     1      -2.163  10.448  17.237  0.00  0.00    +0.000 A 
ATOM     22 CL   UNL     1      -2.662   9.799  15.722  0.00  0.00    +0.000 Cl
ATOM     23  C   UNL     1      -0.977   9.995  17.818  0.00  0.00    +0.000 A 
ENDBRANCH  15  16
ENDBRANCH   3  15
TORSDOF 4
ENDMDL
