MODEL 1
REMARK VINA RESULT:      -6.7      0.000      0.000
REMARK  Name = 
REMARK  9 active torsions:
REMARK  status: ('A' for Active; 'I' for Inactive)
REMARK    1  A    between atoms: C_1  and  O_2
REMARK    2  A    between atoms: O_2  and  C_3
REMARK    3  A    between atoms: N_7  and  C_8
REMARK    4  A    between atoms: N_11  and  C_12
REMARK    5  A    between atoms: N_21  and  C_22
REMARK    6  A    between atoms: C_28  and  C_29
REMARK    7  A    between atoms: C_30  and  C_31
REMARK    8  A    between atoms: C_31  and  C_32
REMARK    9  A    between atoms: C_32  and  N_33
REMARK                            x       y       z     vdW  Elec       q    Type
REMARK                         _______ _______ _______ _____ _____    ______ ____
ROOT
ATOM      1  C   UNL     1      -4.255  11.386  17.590  0.00  0.00    +0.000 A 
ATOM      2  C   UNL     1      -3.821  11.872  18.818  0.00  0.00    +0.000 A 
ATOM      3  C   UNL     1      -2.475  12.164  19.081  0.00  0.00    +0.000 A 
ATOM      4  C   UNL     1      -2.018  12.623  20.324  0.00  0.00    +0.000 A 
ATOM      5  N   UNL     1      -2.899  12.711  21.429  0.00  0.00    +0.000 N 
ATOM      6  N   UNL     1      -0.712  12.855  20.514  0.00  0.00    +0.000 NA
ATOM      7  C   UNL     1       0.151  12.687  19.493  0.00  0.00    +0.000 A 
ATOM      8  N   UNL     1       1.496  12.896  19.731  0.00  0.00    +0.000 N 
ATOM      9  C   UNL     1       1.955  13.250  21.066  0.00  0.00    +0.000 C 
ATOM     10  C   UNL     1       2.577  14.646  21.138  0.00  0.00    +0.000 C 
ATOM     11  C   UNL     1       3.922  14.739  20.408  0.00  0.00    +0.000 C 
ATOM     12  N   UNL     1       3.847  15.064  18.978  0.00  0.00    +0.000 NA
ATOM     13  C   UNL     1       5.146  14.868  18.333  0.00  0.00    +0.000 C 
ATOM     14  C   UNL     1       2.760  14.399  18.234  0.00  0.00    +0.000 C 
ATOM     15  C   UNL     1       2.434  12.939  18.615  0.00  0.00    +0.000 C 
ATOM     16  N   UNL     1      -0.242  12.299  18.271  0.00  0.00    +0.000 NA
ATOM     17  C   UNL     1      -1.534  12.006  18.069  0.00  0.00    +0.000 A 
ATOM     18  C   UNL     1      -1.967  11.495  16.838  0.00  0.00    +0.000 A 
ATOM     19  C   UNL     1      -3.309  11.140  16.598  0.00  0.00    +0.000 A 
ATOM     20  H   UNL     1      -3.872  12.760  21.152  0.00  0.00    +0.000 HD
ENDROOT
BRANCH   5  21
ATOM     21  C   UNL     1      -2.598  13.733  22.432  0.00  0.00    +0.000 C 
ATOM     22  C   UNL     1      -3.291  13.403  23.773  0.00  0.00    +0.000 C 
ATOM     23  C   UNL     1      -3.037  14.516  24.797  0.00  0.00    +0.000 C 
ATOM     24  N   UNL     1      -3.472  15.822  24.281  0.00  0.00    +0.000 NA
ATOM     25  C   UNL     1      -3.270  16.868  25.287  0.00  0.00    +0.000 C 
ATOM     26  C   UNL     1      -2.763  16.170  23.042  0.00  0.00    +0.000 C 
ATOM     27  C   UNL     1      -3.015  15.129  21.952  0.00  0.00    +0.000 C 
ENDBRANCH   5  21
BRANCH   1  29
ATOM     28  C   UNL     1      -6.359  11.144  18.602  0.00  0.00    +0.000 C 
ATOM     29  O   UNL     1      -5.591  11.129  17.388  0.00  0.00    +0.000 OA
ENDBRANCH   1  29
BRANCH  19  30
ATOM     30  C   UNL     1      -3.673  10.508  15.351  0.00  0.00    +0.000 C 
ATOM     31  C   UNL     1      -4.044  10.015  14.330  0.00  0.00    +0.000 C 
BRANCH  31  32
ATOM     32  C   UNL     1      -4.591   9.477  13.070  0.00  0.00    +0.000 C 
BRANCH  32  33
ATOM     33  C   UNL     1      -3.672   9.771  11.885  0.00  0.00    +0.000 C 
BRANCH  33  34
ATOM     34  N   UNL     1      -2.271   9.491  12.206  0.00  0.00    +0.000 NA
ATOM     35  H   UNL     1      -2.156   9.423  13.216  0.00  0.00    +0.000 HD
ATOM     36  H   UNL     1      -1.697  10.279  11.908  0.00  0.00    +0.000 HD
ENDBRANCH  33  34
ENDBRANCH  32  33
ENDBRANCH  31  32
ENDBRANCH  19  30
TORSDOF 6
ENDMDL
MODEL 2
REMARK VINA RESULT:      -6.1      0.979      1.077
REMARK  Name = 
REMARK  9 active torsions:
REMARK  status: ('A' for Active; 'I' for Inactive)
REMARK    1  A    between atoms: C_1  and  O_2
REMARK    2  A    between atoms: O_2  and  C_3
REMARK    3  A    between atoms: N_7  and  C_8
REMARK    4  A    between atoms: N_11  and  C_12
REMARK    5  A    between atoms: N_21  and  C_22
REMARK    6  A    between atoms: C_28  and  C_29
REMARK    7  A    between atoms: C_30  and  C_31
REMARK    8  A    between atoms: C_31  and  C_32
REMARK    9  A    between atoms: C_32  and  N_33
REMARK                            x       y       z     vdW  Elec       q    Type
REMARK                         _______ _______ _______ _____ _____    ______ ____
ROOT
ATOM      1  C   UNL     1      -4.284  11.422  17.302  0.00  0.00    +0.000 A 
ATOM      2  C   UNL     1      -3.878  11.915  18.536  0.00  0.00    +0.000 A 
ATOM      3  C   UNL     1      -2.535  12.186  18.835  0.00  0.00    +0.000 A 
ATOM      4  C   UNL     1      -2.106  12.651  20.087  0.00  0.00    +0.000 A 
ATOM      5  N   UNL     1      -3.017  12.767  21.164  0.00  0.00    +0.000 N 
ATOM      6  N   UNL     1      -0.802  12.862  20.311  0.00  0.00    +0.000 NA
ATOM      7  C   UNL     1       0.087  12.668  19.318  0.00  0.00    +0.000 A 
ATOM      8  N   UNL     1       1.428  12.856  19.592  0.00  0.00    +0.000 N 
ATOM      9  C   UNL     1       1.855  13.217  20.936  0.00  0.00    +0.000 C 
ATOM     10  C   UNL     1       2.499  14.602  21.012  0.00  0.00    +0.000 C 
ATOM     11  C   UNL     1       3.866  14.664  20.320  0.00  0.00    +0.000 C 
ATOM     12  N   UNL     1       3.838  14.974  18.885  0.00  0.00    +0.000 NA
ATOM     13  C   UNL     1       5.151  14.748  18.280  0.00  0.00    +0.000 C 
ATOM     14  C   UNL     1       2.761  14.319  18.117  0.00  0.00    +0.000 C 
ATOM     15  C   UNL     1       2.399  12.870  18.504  0.00  0.00    +0.000 C 
ATOM     16  N   UNL     1      -0.277  12.273  18.089  0.00  0.00    +0.000 NA
ATOM     17  C   UNL     1      -1.567  12.000  17.853  0.00  0.00    +0.000 A 
ATOM     18  C   UNL     1      -1.974  11.483  16.615  0.00  0.00    +0.000 A 
ATOM     19  C   UNL     1      -3.315  11.149  16.340  0.00  0.00    +0.000 A 
ATOM     20  H   UNL     1      -3.980  12.830  20.858  0.00  0.00    +0.000 HD
ENDROOT
BRANCH   5  21
ATOM     21  C   UNL     1      -2.726  13.794  22.165  0.00  0.00    +0.000 C 
ATOM     22  C   UNL     1      -1.609  13.324  23.122  0.00  0.00    +0.000 C 
ATOM     23  C   UNL     1      -1.364  14.371  24.216  0.00  0.00    +0.000 C 
ATOM     24  N   UNL     1      -2.601  14.673  24.951  0.00  0.00    +0.000 NA
ATOM     25  C   UNL     1      -2.343  15.636  26.024  0.00  0.00    +0.000 C 
ATOM     26  C   UNL     1      -3.644  15.186  24.052  0.00  0.00    +0.000 C 
ATOM     27  C   UNL     1      -3.982  14.170  22.962  0.00  0.00    +0.000 C 
ENDBRANCH   5  21
BRANCH   1  29
ATOM     28  C   UNL     1      -6.386  11.020  18.267  0.00  0.00    +0.000 C 
ATOM     29  O   UNL     1      -5.618  11.187  17.064  0.00  0.00    +0.000 OA
ENDBRANCH   1  29
BRANCH  19  30
ATOM     30  C   UNL     1      -3.654  10.510  15.091  0.00  0.00    +0.000 C 
ATOM     31  C   UNL     1      -3.900  10.038  14.022  0.00  0.00    +0.000 C 
BRANCH  31  32
ATOM     32  C   UNL     1      -4.123   9.524  12.658  0.00  0.00    +0.000 C 
BRANCH  32  33
ATOM     33  C   UNL     1      -5.611   9.446  12.321  0.00  0.00    +0.000 C 
BRANCH  33  34
ATOM     34  N   UNL     1      -5.911  10.104  11.047  0.00  0.00    +0.000 NA
ATOM     35  H   UNL     1      -6.255  11.048  11.219  0.00  0.00    +0.000 HD
ATOM     36  H   UNL     1      -6.672   9.606  10.586  0.00  0.00    +0.000 HD
ENDBRANCH  33  34
ENDBRANCH  32  33
ENDBRANCH  31  32
ENDBRANCH  19  30
TORSDOF 6
ENDMDL
MODEL 3
REMARK VINA RESULT:      -6.0      1.136      1.391
REMARK  Name = 
REMARK  9 active torsions:
REMARK  status: ('A' for Active; 'I' for Inactive)
REMARK    1  A    between atoms: C_1  and  O_2
REMARK    2  A    between atoms: O_2  and  C_3
REMARK    3  A    between atoms: N_7  and  C_8
REMARK    4  A    between atoms: N_11  and  C_12
REMARK    5  A    between atoms: N_21  and  C_22
REMARK    6  A    between atoms: C_28  and  C_29
REMARK    7  A    between atoms: C_30  and  C_31
REMARK    8  A    between atoms: C_31  and  C_32
REMARK    9  A    between atoms: C_32  and  N_33
REMARK                            x       y       z     vdW  Elec       q    Type
REMARK                         _______ _______ _______ _____ _____    ______ ____
ROOT
ATOM      1  C   UNL     1      -3.800  11.244  17.742  0.00  0.00    +0.000 A 
ATOM      2  C   UNL     1      -3.529  11.787  18.992  0.00  0.00    +0.000 A 
ATOM      3  C   UNL     1      -2.288  12.355  19.315  0.00  0.00    +0.000 A 
ATOM      4  C   UNL     1      -1.989  12.876  20.582  0.00  0.00    +0.000 A 
ATOM      5  N   UNL     1      -2.910  12.751  21.649  0.00  0.00    +0.000 N 
ATOM      6  N   UNL     1      -0.772  13.379  20.828  0.00  0.00    +0.000 NA
ATOM      7  C   UNL     1       0.146  13.422  19.843  0.00  0.00    +0.000 A 
ATOM      8  N   UNL     1       1.404  13.910  20.139  0.00  0.00    +0.000 N 
ATOM      9  C   UNL     1       1.725  14.327  21.496  0.00  0.00    +0.000 C 
ATOM     10  C   UNL     1       2.028  15.822  21.611  0.00  0.00    +0.000 C 
ATOM     11  C   UNL     1       3.349  16.216  20.939  0.00  0.00    +0.000 C 
ATOM     12  N   UNL     1       3.260  16.547  19.511  0.00  0.00    +0.000 NA
ATOM     13  C   UNL     1       4.594  16.648  18.918  0.00  0.00    +0.000 C 
ATOM     14  C   UNL     1       2.371  15.679  18.714  0.00  0.00    +0.000 C 
ATOM     15  C   UNL     1       2.353  14.176  19.064  0.00  0.00    +0.000 C 
ATOM     16  N   UNL     1      -0.107  12.983  18.601  0.00  0.00    +0.000 NA
ATOM     17  C   UNL     1      -1.296  12.424  18.342  0.00  0.00    +0.000 A 
ATOM     18  C   UNL     1      -1.562  11.857  17.087  0.00  0.00    +0.000 A 
ATOM     19  C   UNL     1      -2.786  11.227  16.787  0.00  0.00    +0.000 A 
ATOM     20  H   UNL     1      -3.859  12.595  21.332  0.00  0.00    +0.000 HD
ENDROOT
BRANCH   5  21
ATOM     21  C   UNL     1      -2.875  13.792  22.676  0.00  0.00    +0.000 C 
ATOM     22  C   UNL     1      -3.003  15.193  22.038  0.00  0.00    +0.000 C 
ATOM     23  C   UNL     1      -2.886  16.284  23.110  0.00  0.00    +0.000 C 
ATOM     24  N   UNL     1      -1.631  16.157  23.864  0.00  0.00    +0.000 NA
ATOM     25  C   UNL     1      -1.509  17.234  24.850  0.00  0.00    +0.000 C 
ATOM     26  C   UNL     1      -1.538  14.850  24.530  0.00  0.00    +0.000 C 
ATOM     27  C   UNL     1      -1.593  13.710  23.514  0.00  0.00    +0.000 C 
ENDBRANCH   5  21
BRANCH   1  29
ATOM     28  C   UNL     1      -5.947  10.819  18.591  0.00  0.00    +0.000 C 
ATOM     29  O   UNL     1      -5.040  10.711  17.481  0.00  0.00    +0.000 OA
ENDBRANCH   1  29
BRANCH  19  30
ATOM     30  C   UNL     1      -2.957  10.557  15.519  0.00  0.00    +0.000 C 
ATOM     31  C   UNL     1      -3.059  10.060  14.439  0.00  0.00    +0.000 C 
BRANCH  31  32
ATOM     32  C   UNL     1      -3.099   9.511  13.071  0.00  0.00    +0.000 C 
BRANCH  32  33
ATOM     33  C   UNL     1      -4.388   9.895  12.346  0.00  0.00    +0.000 C 
BRANCH  33  34
ATOM     34  N   UNL     1      -4.406   9.386  10.973  0.00  0.00    +0.000 NA
ATOM     35  H   UNL     1      -5.348   9.462  10.590  0.00  0.00    +0.000 HD
ATOM     36  H   UNL     1      -4.184   8.392  10.983  0.00  0.00    +0.000 HD
ENDBRANCH  33  34
ENDBRANCH  32  33
ENDBRANCH  31  32
ENDBRANCH  19  30
TORSDOF 6
ENDMDL
MODEL 4
REMARK VINA RESULT:      -5.6      0.814      1.148
REMARK  Name = 
REMARK  9 active torsions:
REMARK  status: ('A' for Active; 'I' for Inactive)
REMARK    1  A    between atoms: C_1  and  O_2
REMARK    2  A    between atoms: O_2  and  C_3
REMARK    3  A    between atoms: N_7  and  C_8
REMARK    4  A    between atoms: N_11  and  C_12
REMARK    5  A    between atoms: N_21  and  C_22
REMARK    6  A    between atoms: C_28  and  C_29
REMARK    7  A    between atoms: C_30  and  C_31
REMARK    8  A    between atoms: C_31  and  C_32
REMARK    9  A    between atoms: C_32  and  N_33
REMARK                            x       y       z     vdW  Elec       q    Type
REMARK                         _______ _______ _______ _____ _____    ______ ____
ROOT
ATOM      1  C   UNL     1      -4.470  11.467  17.635  0.00  0.00    +0.000 A 
ATOM      2  C   UNL     1      -4.019  11.935  18.864  0.00  0.00    +0.000 A 
ATOM      3  C   UNL     1      -2.667  12.207  19.118  0.00  0.00    +0.000 A 
ATOM      4  C   UNL     1      -2.193  12.646  20.362  0.00  0.00    +0.000 A 
ATOM      5  N   UNL     1      -3.063  12.734  21.475  0.00  0.00    +0.000 N 
ATOM      6  N   UNL     1      -0.882  12.859  20.542  0.00  0.00    +0.000 NA
ATOM      7  C   UNL     1      -0.031  12.692  19.513  0.00  0.00    +0.000 A 
ATOM      8  N   UNL     1       1.319  12.880  19.740  0.00  0.00    +0.000 N 
ATOM      9  C   UNL     1       1.795  13.214  21.074  0.00  0.00    +0.000 C 
ATOM     10  C   UNL     1       2.435  14.601  21.156  0.00  0.00    +0.000 C 
ATOM     11  C   UNL     1       3.775  14.684  20.415  0.00  0.00    +0.000 C 
ATOM     12  N   UNL     1       3.692  15.025  18.989  0.00  0.00    +0.000 NA
ATOM     13  C   UNL     1       4.982  14.819  18.330  0.00  0.00    +0.000 C 
ATOM     14  C   UNL     1       2.589  14.382  18.248  0.00  0.00    +0.000 C 
ATOM     15  C   UNL     1       2.248  12.922  18.616  0.00  0.00    +0.000 C 
ATOM     16  N   UNL     1      -0.439  12.321  18.290  0.00  0.00    +0.000 NA
ATOM     17  C   UNL     1      -1.736  12.047  18.096  0.00  0.00    +0.000 A 
ATOM     18  C   UNL     1      -2.187  11.555  16.863  0.00  0.00    +0.000 A 
ATOM     19  C   UNL     1      -3.536  11.219  16.632  0.00  0.00    +0.000 A 
ATOM     20  H   UNL     1      -4.038  12.799  21.207  0.00  0.00    +0.000 HD
ENDROOT
BRANCH   5  21
ATOM     21  C   UNL     1      -2.740  13.742  22.486  0.00  0.00    +0.000 C 
ATOM     22  C   UNL     1      -2.706  15.153  21.860  0.00  0.00    +0.000 C 
ATOM     23  C   UNL     1      -2.290  16.195  22.906  0.00  0.00    +0.000 C 
ATOM     24  N   UNL     1      -0.995  15.852  23.513  0.00  0.00    +0.000 NA
ATOM     25  C   UNL     1      -0.586  16.879  24.474  0.00  0.00    +0.000 C 
ATOM     26  C   UNL     1      -1.045  14.538  24.170  0.00  0.00    +0.000 C 
ATOM     27  C   UNL     1      -1.402  13.437  23.173  0.00  0.00    +0.000 C 
ENDBRANCH   5  21
BRANCH   1  29
ATOM     28  C   UNL     1      -6.499  10.867  18.650  0.00  0.00    +0.000 C 
ATOM     29  O   UNL     1      -5.811  11.230  17.442  0.00  0.00    +0.000 OA
ENDBRANCH   1  29
BRANCH  19  30
ATOM     30  C   UNL     1      -3.919  10.606  15.382  0.00  0.00    +0.000 C 
ATOM     31  C   UNL     1      -4.175  10.053  14.356  0.00  0.00    +0.000 C 
BRANCH  31  32
ATOM     32  C   UNL     1      -4.421   9.288  13.120  0.00  0.00    +0.000 C 
BRANCH  32  33
ATOM     33  C   UNL     1      -3.543   9.776  11.969  0.00  0.00    +0.000 C 
BRANCH  33  34
ATOM     34  N   UNL     1      -2.124   9.521  12.228  0.00  0.00    +0.000 NA
ATOM     35  H   UNL     1      -1.870   9.886  13.145  0.00  0.00    +0.000 HD
ATOM     36  H   UNL     1      -1.563  10.038  11.552  0.00  0.00    +0.000 HD
ENDBRANCH  33  34
ENDBRANCH  32  33
ENDBRANCH  31  32
ENDBRANCH  19  30
TORSDOF 6
ENDMDL
MODEL 5
REMARK VINA RESULT:      -5.6      3.339      5.635
REMARK  Name = 
REMARK  9 active torsions:
REMARK  status: ('A' for Active; 'I' for Inactive)
REMARK    1  A    between atoms: C_1  and  O_2
REMARK    2  A    between atoms: O_2  and  C_3
REMARK    3  A    between atoms: N_7  and  C_8
REMARK    4  A    between atoms: N_11  and  C_12
REMARK    5  A    between atoms: N_21  and  C_22
REMARK    6  A    between atoms: C_28  and  C_29
REMARK    7  A    between atoms: C_30  and  C_31
REMARK    8  A    between atoms: C_31  and  C_32
REMARK    9  A    between atoms: C_32  and  N_33
REMARK                            x       y       z     vdW  Elec       q    Type
REMARK                         _______ _______ _______ _____ _____    ______ ____
ROOT
ATOM      1  C   UNL     1      -1.714  10.662  17.850  0.00  0.00    +0.000 A 
ATOM      2  C   UNL     1      -2.806  11.359  18.354  0.00  0.00    +0.000 A 
ATOM      3  C   UNL     1      -2.770  12.033  19.582  0.00  0.00    +0.000 A 
ATOM      4  C   UNL     1      -3.874  12.711  20.118  0.00  0.00    +0.000 A 
ATOM      5  N   UNL     1      -5.136  12.652  19.480  0.00  0.00    +0.000 N 
ATOM      6  N   UNL     1      -3.776  13.311  21.313  0.00  0.00    +0.000 NA
ATOM      7  C   UNL     1      -2.602  13.296  21.973  0.00  0.00    +0.000 A 
ATOM      8  N   UNL     1      -2.544  13.889  23.220  0.00  0.00    +0.000 N 
ATOM      9  C   UNL     1      -3.739  14.475  23.807  0.00  0.00    +0.000 C 
ATOM     10  C   UNL     1      -3.635  15.989  24.001  0.00  0.00    +0.000 C 
ATOM     11  C   UNL     1      -2.635  16.383  25.094  0.00  0.00    +0.000 C 
ATOM     12  N   UNL     1      -1.243  16.543  24.654  0.00  0.00    +0.000 NA
ATOM     13  C   UNL     1      -0.345  16.655  25.803  0.00  0.00    +0.000 C 
ATOM     14  C   UNL     1      -0.767  15.539  23.682  0.00  0.00    +0.000 C 
ATOM     15  C   UNL     1      -1.254  14.087  23.872  0.00  0.00    +0.000 C 
ATOM     16  N   UNL     1      -1.503  12.705  21.481  0.00  0.00    +0.000 NA
ATOM     17  C   UNL     1      -1.588  12.049  20.316  0.00  0.00    +0.000 A 
ATOM     18  C   UNL     1      -0.493  11.329  19.819  0.00  0.00    +0.000 A 
ATOM     19  C   UNL     1      -0.553  10.597  18.617  0.00  0.00    +0.000 A 
ATOM     20  H   UNL     1      -5.069  12.406  18.500  0.00  0.00    +0.000 HD
ENDROOT
BRANCH   5  21
ATOM     21  C   UNL     1      -6.020  13.804  19.661  0.00  0.00    +0.000 C 
ATOM     22  C   UNL     1      -5.201  15.083  19.946  0.00  0.00    +0.000 C 
ATOM     23  C   UNL     1      -6.134  16.270  20.213  0.00  0.00    +0.000 C 
ATOM     24  N   UNL     1      -7.064  15.979  21.314  0.00  0.00    +0.000 NA
ATOM     25  C   UNL     1      -7.916  17.139  21.591  0.00  0.00    +0.000 C 
ATOM     26  C   UNL     1      -7.893  14.804  21.015  0.00  0.00    +0.000 C 
ATOM     27  C   UNL     1      -7.031  13.563  20.790  0.00  0.00    +0.000 C 
ENDBRANCH   5  21
BRANCH   1  29
ATOM     28  C   UNL     1      -3.144  10.009  16.107  0.00  0.00    +0.000 C 
ATOM     29  O   UNL     1      -1.806  10.029  16.632  0.00  0.00    +0.000 OA
ENDBRANCH   1  29
BRANCH  19  30
ATOM     30  C   UNL     1       0.568   9.779  18.217  0.00  0.00    +0.000 C 
ATOM     31  C   UNL     1       1.495   9.074  17.956  0.00  0.00    +0.000 C 
BRANCH  31  32
ATOM     32  C   UNL     1       2.615   8.142  17.727  0.00  0.00    +0.000 C 
BRANCH  32  33
ATOM     33  C   UNL     1       2.624   7.007  18.750  0.00  0.00    +0.000 C 
BRANCH  33  34
ATOM     34  N   UNL     1       3.302   5.818  18.230  0.00  0.00    +0.000 NA
ATOM     35  H   UNL     1       2.792   5.453  17.427  0.00  0.00    +0.000 HD
ATOM     36  H   UNL     1       3.277   5.084  18.938  0.00  0.00    +0.000 HD
ENDBRANCH  33  34
ENDBRANCH  32  33
ENDBRANCH  31  32
ENDBRANCH  19  30
TORSDOF 6
ENDMDL
MODEL 6
REMARK VINA RESULT:      -5.5      4.757      7.499
REMARK  Name = 
REMARK  9 active torsions:
REMARK  status: ('A' for Active; 'I' for Inactive)
REMARK    1  A    between atoms: C_1  and  O_2
REMARK    2  A    between atoms: O_2  and  C_3
REMARK    3  A    between atoms: N_7  and  C_8
REMARK    4  A    between atoms: N_11  and  C_12
REMARK    5  A    between atoms: N_21  and  C_22
REMARK    6  A    between atoms: C_28  and  C_29
REMARK    7  A    between atoms: C_30  and  C_31
REMARK    8  A    between atoms: C_31  and  C_32
REMARK    9  A    between atoms: C_32  and  N_33
REMARK                            x       y       z     vdW  Elec       q    Type
REMARK                         _______ _______ _______ _____ _____    ______ ____
ROOT
ATOM      1  C   UNL     1       2.321   7.661  19.251  0.00  0.00    +0.000 A 
ATOM      2  C   UNL     1       2.196   8.984  18.844  0.00  0.00    +0.000 A 
ATOM      3  C   UNL     1       1.257   9.861  19.405  0.00  0.00    +0.000 A 
ATOM      4  C   UNL     1       1.096  11.188  18.982  0.00  0.00    +0.000 A 
ATOM      5  N   UNL     1       1.818  11.682  17.869  0.00  0.00    +0.000 N 
ATOM      6  N   UNL     1       0.158  11.962  19.545  0.00  0.00    +0.000 NA
ATOM      7  C   UNL     1      -0.598  11.473  20.546  0.00  0.00    +0.000 A 
ATOM      8  N   UNL     1      -1.584  12.282  21.079  0.00  0.00    +0.000 N 
ATOM      9  C   UNL     1      -1.810  13.612  20.533  0.00  0.00    +0.000 C 
ATOM     10  C   UNL     1      -1.513  14.731  21.532  0.00  0.00    +0.000 C 
ATOM     11  C   UNL     1      -2.524  14.788  22.684  0.00  0.00    +0.000 C 
ATOM     12  N   UNL     1      -2.214  13.941  23.843  0.00  0.00    +0.000 NA
ATOM     13  C   UNL     1      -3.357  13.868  24.753  0.00  0.00    +0.000 C 
ATOM     14  C   UNL     1      -1.681  12.602  23.525  0.00  0.00    +0.000 C 
ATOM     15  C   UNL     1      -2.276  11.879  22.298  0.00  0.00    +0.000 C 
ATOM     16  N   UNL     1      -0.450  10.227  21.022  0.00  0.00    +0.000 NA
ATOM     17  C   UNL     1       0.441   9.414  20.440  0.00  0.00    +0.000 A 
ATOM     18  C   UNL     1       0.552   8.074  20.836  0.00  0.00    +0.000 A 
ATOM     19  C   UNL     1       1.451   7.177  20.224  0.00  0.00    +0.000 A 
ATOM     20  H   UNL     1       2.651  11.141  17.669  0.00  0.00    +0.000 HD
ENDROOT
BRANCH   5  21
ATOM     21  C   UNL     1       2.120  13.114  17.862  0.00  0.00    +0.000 C 
ATOM     22  C   UNL     1       3.487  13.387  18.528  0.00  0.00    +0.000 C 
ATOM     23  C   UNL     1       3.763  14.894  18.589  0.00  0.00    +0.000 C 
ATOM     24  N   UNL     1       2.682  15.605  19.286  0.00  0.00    +0.000 NA
ATOM     25  C   UNL     1       2.981  17.036  19.381  0.00  0.00    +0.000 C 
ATOM     26  C   UNL     1       1.390  15.403  18.614  0.00  0.00    +0.000 C 
ATOM     27  C   UNL     1       1.021  13.922  18.564  0.00  0.00    +0.000 C 
ENDBRANCH   5  21
BRANCH   1  29
ATOM     28  C   UNL     1       3.765   7.368  17.423  0.00  0.00    +0.000 C 
ATOM     29  O   UNL     1       3.270   6.852  18.670  0.00  0.00    +0.000 OA
ENDBRANCH   1  29
BRANCH  19  30
ATOM     30  C   UNL     1       1.436   5.781  20.593  0.00  0.00    +0.000 C 
ATOM     31  C   UNL     1       1.400   4.611  20.828  0.00  0.00    +0.000 C 
BRANCH  31  32
ATOM     32  C   UNL     1       1.355   3.148  21.005  0.00  0.00    +0.000 C 
BRANCH  32  33
ATOM     33  C   UNL     1       2.246   2.429  19.994  0.00  0.00    +0.000 C 
BRANCH  33  34
ATOM     34  N   UNL     1       1.461   1.851  18.899  0.00  0.00    +0.000 NA
ATOM     35  H   UNL     1       2.032   1.801  18.056  0.00  0.00    +0.000 HD
ATOM     36  H   UNL     1       0.686   2.476  18.679  0.00  0.00    +0.000 HD
ENDBRANCH  33  34
ENDBRANCH  32  33
ENDBRANCH  31  32
ENDBRANCH  19  30
TORSDOF 6
ENDMDL
MODEL 7
REMARK VINA RESULT:      -5.3      4.990      9.672
REMARK  Name = 
REMARK  9 active torsions:
REMARK  status: ('A' for Active; 'I' for Inactive)
REMARK    1  A    between atoms: C_1  and  O_2
REMARK    2  A    between atoms: O_2  and  C_3
REMARK    3  A    between atoms: N_7  and  C_8
REMARK    4  A    between atoms: N_11  and  C_12
REMARK    5  A    between atoms: N_21  and  C_22
REMARK    6  A    between atoms: C_28  and  C_29
REMARK    7  A    between atoms: C_30  and  C_31
REMARK    8  A    between atoms: C_31  and  C_32
REMARK    9  A    between atoms: C_32  and  N_33
REMARK                            x       y       z     vdW  Elec       q    Type
REMARK                         _______ _______ _______ _____ _____    ______ ____
ROOT
ATOM      1  C   UNL     1       2.048  15.638  19.604  0.00  0.00    +0.000 A 
ATOM      2  C   UNL     1       3.428  15.480  19.546  0.00  0.00    +0.000 A 
ATOM      3  C   UNL     1       4.197  15.140  20.668  0.00  0.00    +0.000 A 
ATOM      4  C   UNL     1       5.592  15.010  20.632  0.00  0.00    +0.000 A 
ATOM      5  N   UNL     1       6.316  15.331  19.459  0.00  0.00    +0.000 N 
ATOM      6  N   UNL     1       6.266  14.710  21.751  0.00  0.00    +0.000 NA
ATOM      7  C   UNL     1       5.594  14.490  22.897  0.00  0.00    +0.000 A 
ATOM      8  N   UNL     1       6.319  14.222  24.042  0.00  0.00    +0.000 N 
ATOM      9  C   UNL     1       7.774  14.218  24.001  0.00  0.00    +0.000 C 
ATOM     10  C   UNL     1       8.381  12.845  24.294  0.00  0.00    +0.000 C 
ATOM     11  C   UNL     1       8.199  12.411  25.753  0.00  0.00    +0.000 C 
ATOM     12  N   UNL     1       6.949  11.701  26.053  0.00  0.00    +0.000 NA
ATOM     13  C   UNL     1       6.760  11.571  27.498  0.00  0.00    +0.000 C 
ATOM     14  C   UNL     1       5.744  12.234  25.389  0.00  0.00    +0.000 C 
ATOM     15  C   UNL     1       5.635  13.767  25.247  0.00  0.00    +0.000 C 
ATOM     16  N   UNL     1       4.256  14.552  22.973  0.00  0.00    +0.000 NA
ATOM     17  C   UNL     1       3.561  14.906  21.883  0.00  0.00    +0.000 A 
ATOM     18  C   UNL     1       2.173  15.086  21.948  0.00  0.00    +0.000 A 
ATOM     19  C   UNL     1       1.412  15.493  20.834  0.00  0.00    +0.000 A 
ATOM     20  H   UNL     1       5.743  15.305  18.624  0.00  0.00    +0.000 HD
ENDROOT
BRANCH   5  21
ATOM     21  C   UNL     1       7.573  14.613  19.243  0.00  0.00    +0.000 C 
ATOM     22  C   UNL     1       8.771  15.586  19.275  0.00  0.00    +0.000 C 
ATOM     23  C   UNL     1      10.077  14.841  18.970  0.00  0.00    +0.000 C 
ATOM     24  N   UNL     1       9.999  14.138  17.681  0.00  0.00    +0.000 NA
ATOM     25  C   UNL     1      11.268  13.471  17.379  0.00  0.00    +0.000 C 
ATOM     26  C   UNL     1       8.902  13.160  17.673  0.00  0.00    +0.000 C 
ATOM     27  C   UNL     1       7.556  13.840  17.917  0.00  0.00    +0.000 C 
ENDBRANCH   5  21
BRANCH   1  29
ATOM     28  C   UNL     1       1.623  17.289  17.991  0.00  0.00    +0.000 C 
ATOM     29  O   UNL     1       1.347  15.961  18.466  0.00  0.00    +0.000 OA
ENDBRANCH   1  29
BRANCH  19  30
ATOM     30  C   UNL     1       0.005  15.777  20.991  0.00  0.00    +0.000 C 
ATOM     31  C   UNL     1      -1.170  15.938  21.133  0.00  0.00    +0.000 C 
BRANCH  31  32
ATOM     32  C   UNL     1      -2.624  16.034  21.358  0.00  0.00    +0.000 C 
BRANCH  32  33
ATOM     33  C   UNL     1      -3.278  14.655  21.422  0.00  0.00    +0.000 C 
BRANCH  33  34
ATOM     34  N   UNL     1      -3.034  13.886  20.199  0.00  0.00    +0.000 NA
ATOM     35  H   UNL     1      -2.127  13.426  20.257  0.00  0.00    +0.000 HD
ATOM     36  H   UNL     1      -2.977  14.527  19.408  0.00  0.00    +0.000 HD
ENDBRANCH  33  34
ENDBRANCH  32  33
ENDBRANCH  31  32
ENDBRANCH  19  30
TORSDOF 6
ENDMDL
MODEL 8
REMARK VINA RESULT:      -5.2      3.018      9.212
REMARK  Name = 
REMARK  9 active torsions:
REMARK  status: ('A' for Active; 'I' for Inactive)
REMARK    1  A    between atoms: C_1  and  O_2
REMARK    2  A    between atoms: O_2  and  C_3
REMARK    3  A    between atoms: N_7  and  C_8
REMARK    4  A    between atoms: N_11  and  C_12
REMARK    5  A    between atoms: N_21  and  C_22
REMARK    6  A    between atoms: C_28  and  C_29
REMARK    7  A    between atoms: C_30  and  C_31
REMARK    8  A    between atoms: C_31  and  C_32
REMARK    9  A    between atoms: C_32  and  N_33
REMARK                            x       y       z     vdW  Elec       q    Type
REMARK                         _______ _______ _______ _____ _____    ______ ____
ROOT
ATOM      1  C   UNL     1       4.197  14.854  19.973  0.00  0.00    +0.000 A 
ATOM      2  C   UNL     1       3.162  13.933  19.860  0.00  0.00    +0.000 A 
ATOM      3  C   UNL     1       2.032  13.963  20.690  0.00  0.00    +0.000 A 
ATOM      4  C   UNL     1       0.996  13.021  20.611  0.00  0.00    +0.000 A 
ATOM      5  N   UNL     1       1.098  11.910  19.741  0.00  0.00    +0.000 N 
ATOM      6  N   UNL     1      -0.041  13.094  21.457  0.00  0.00    +0.000 NA
ATOM      7  C   UNL     1      -0.104  14.098  22.351  0.00  0.00    +0.000 A 
ATOM      8  N   UNL     1      -1.165  14.123  23.236  0.00  0.00    +0.000 N 
ATOM      9  C   UNL     1      -2.160  13.061  23.212  0.00  0.00    +0.000 C 
ATOM     10  C   UNL     1      -3.555  13.551  22.819  0.00  0.00    +0.000 C 
ATOM     11  C   UNL     1      -4.200  14.437  23.892  0.00  0.00    +0.000 C 
ATOM     12  N   UNL     1      -3.889  15.870  23.803  0.00  0.00    +0.000 NA
ATOM     13  C   UNL     1      -4.331  16.572  25.009  0.00  0.00    +0.000 C 
ATOM     14  C   UNL     1      -2.490  16.194  23.463  0.00  0.00    +0.000 C 
ATOM     15  C   UNL     1      -1.390  15.298  24.071  0.00  0.00    +0.000 C 
ATOM     16  N   UNL     1       0.836  15.052  22.435  0.00  0.00    +0.000 NA
ATOM     17  C   UNL     1       1.911  14.972  21.640  0.00  0.00    +0.000 A 
ATOM     18  C   UNL     1       2.965  15.888  21.769  0.00  0.00    +0.000 A 
ATOM     19  C   UNL     1       4.129  15.816  20.978  0.00  0.00    +0.000 A 
ATOM     20  H   UNL     1       1.760  12.058  18.990  0.00  0.00    +0.000 HD
ENDROOT
BRANCH   5  21
ATOM     21  C   UNL     1      -0.156  11.364  19.220  0.00  0.00    +0.000 C 
ATOM     22  C   UNL     1       0.112  10.130  18.331  0.00  0.00    +0.000 C 
ATOM     23  C   UNL     1      -1.197   9.609  17.725  0.00  0.00    +0.000 C 
ATOM     24  N   UNL     1      -1.891  10.664  16.972  0.00  0.00    +0.000 NA
ATOM     25  C   UNL     1      -3.114  10.142  16.357  0.00  0.00    +0.000 C 
ATOM     26  C   UNL     1      -2.210  11.812  17.833  0.00  0.00    +0.000 C 
ATOM     27  C   UNL     1      -0.943  12.420  18.433  0.00  0.00    +0.000 C 
ENDBRANCH   5  21
BRANCH   1  29
ATOM     28  C   UNL     1       4.950  15.144  17.769  0.00  0.00    +0.000 C 
ATOM     29  O   UNL     1       5.274  14.781  19.121  0.00  0.00    +0.000 OA
ENDBRANCH   1  29
BRANCH  19  30
ATOM     30  C   UNL     1       5.230  16.713  21.237  0.00  0.00    +0.000 C 
ATOM     31  C   UNL     1       6.153  17.457  21.376  0.00  0.00    +0.000 C 
BRANCH  31  32
ATOM     32  C   UNL     1       7.284  18.401  21.438  0.00  0.00    +0.000 C 
BRANCH  32  33
ATOM     33  C   UNL     1       8.372  18.045  20.425  0.00  0.00    +0.000 C 
BRANCH  33  34
ATOM     34  N   UNL     1       7.929  18.290  19.050  0.00  0.00    +0.000 NA
ATOM     35  H   UNL     1       6.934  18.086  18.967  0.00  0.00    +0.000 HD
ATOM     36  H   UNL     1       8.404  17.638  18.426  0.00  0.00    +0.000 HD
ENDBRANCH  33  34
ENDBRANCH  32  33
ENDBRANCH  31  32
ENDBRANCH  19  30
TORSDOF 6
ENDMDL
MODEL 9
REMARK VINA RESULT:      -5.2      3.843      7.700
REMARK  Name = 
REMARK  9 active torsions:
REMARK  status: ('A' for Active; 'I' for Inactive)
REMARK    1  A    between atoms: C_1  and  O_2
REMARK    2  A    between atoms: O_2  and  C_3
REMARK    3  A    between atoms: N_7  and  C_8
REMARK    4  A    between atoms: N_11  and  C_12
REMARK    5  A    between atoms: N_21  and  C_22
REMARK    6  A    between atoms: C_28  and  C_29
REMARK    7  A    between atoms: C_30  and  C_31
REMARK    8  A    between atoms: C_31  and  C_32
REMARK    9  A    between atoms: C_32  and  N_33
REMARK                            x       y       z     vdW  Elec       q    Type
REMARK                         _______ _______ _______ _____ _____    ______ ____
ROOT
ATOM      1  C   UNL     1      -2.139  13.100  23.078  0.00  0.00    +0.000 A 
ATOM      2  C   UNL     1      -1.404  12.349  22.168  0.00  0.00    +0.000 A 
ATOM      3  C   UNL     1      -0.388  12.904  21.378  0.00  0.00    +0.000 A 
ATOM      4  C   UNL     1       0.339  12.166  20.433  0.00  0.00    +0.000 A 
ATOM      5  N   UNL     1      -0.002  10.823  20.149  0.00  0.00    +0.000 N 
ATOM      6  N   UNL     1       1.279  12.769  19.691  0.00  0.00    +0.000 NA
ATOM      7  C   UNL     1       1.551  14.073  19.890  0.00  0.00    +0.000 A 
ATOM      8  N   UNL     1       2.497  14.676  19.082  0.00  0.00    +0.000 N 
ATOM      9  C   UNL     1       3.145  13.916  18.024  0.00  0.00    +0.000 C 
ATOM     10  C   UNL     1       4.650  13.744  18.241  0.00  0.00    +0.000 C 
ATOM     11  C   UNL     1       5.429  15.055  18.082  0.00  0.00    +0.000 C 
ATOM     12  N   UNL     1       5.549  15.873  19.296  0.00  0.00    +0.000 NA
ATOM     13  C   UNL     1       6.071  17.202  18.976  0.00  0.00    +0.000 C 
ATOM     14  C   UNL     1       4.335  15.948  20.132  0.00  0.00    +0.000 C 
ATOM     15  C   UNL     1       2.978  16.016  19.400  0.00  0.00    +0.000 C 
ATOM     16  N   UNL     1       0.920  14.811  20.816  0.00  0.00    +0.000 NA
ATOM     17  C   UNL     1      -0.063  14.248  21.531  0.00  0.00    +0.000 A 
ATOM     18  C   UNL     1      -0.818  15.011  22.433  0.00  0.00    +0.000 A 
ATOM     19  C   UNL     1      -1.883  14.466  23.177  0.00  0.00    +0.000 A 
ATOM     20  H   UNL     1      -0.530  10.386  20.895  0.00  0.00    +0.000 HD
ENDROOT
BRANCH   5  21
ATOM     21  C   UNL     1       1.082   9.946  19.705  0.00  0.00    +0.000 C 
ATOM     22  C   UNL     1       0.962   9.650  18.194  0.00  0.00    +0.000 C 
ATOM     23  C   UNL     1       2.054   8.670  17.749  0.00  0.00    +0.000 C 
ATOM     24  N   UNL     1       2.009   7.430  18.539  0.00  0.00    +0.000 NA
ATOM     25  C   UNL     1       3.024   6.483  18.072  0.00  0.00    +0.000 C 
ATOM     26  C   UNL     1       2.193   7.702  19.971  0.00  0.00    +0.000 C 
ATOM     27  C   UNL     1       1.104   8.634  20.500  0.00  0.00    +0.000 C 
ENDBRANCH   5  21
BRANCH   1  29
ATOM     28  C   UNL     1      -4.423  12.582  23.240  0.00  0.00    +0.000 C 
ATOM     29  O   UNL     1      -3.117  12.496  23.834  0.00  0.00    +0.000 OA
ENDBRANCH   1  29
BRANCH  19  30
ATOM     30  C   UNL     1      -2.700  15.326  23.999  0.00  0.00    +0.000 C 
ATOM     31  C   UNL     1      -3.361  16.094  24.630  0.00  0.00    +0.000 C 
BRANCH  31  32
ATOM     32  C   UNL     1      -4.178  17.110  25.319  0.00  0.00    +0.000 C 
BRANCH  32  33
ATOM     33  C   UNL     1      -5.558  17.253  24.679  0.00  0.00    +0.000 C 
BRANCH  33  34
ATOM     34  N   UNL     1      -6.125  15.950  24.323  0.00  0.00    +0.000 NA
ATOM     35  H   UNL     1      -5.544  15.205  24.706  0.00  0.00    +0.000 HD
ATOM     36  H   UNL     1      -6.096  15.839  23.310  0.00  0.00    +0.000 HD
ENDBRANCH  33  34
ENDBRANCH  32  33
ENDBRANCH  31  32
ENDBRANCH  19  30
TORSDOF 6
ENDMDL
