MODEL 1
REMARK VINA RESULT:      -8.7      0.000      0.000
REMARK  Name = 
REMARK  10 active torsions:
REMARK  status: ('A' for Active; 'I' for Inactive)
REMARK    1  A    between atoms: C_1  and  C_2
REMARK    2  A    between atoms: C_2  and  C_3
REMARK    3  A    between atoms: C_3  and  C_4
REMARK    4  A    between atoms: C_4  and  C_5
REMARK    5  A    between atoms: N_7  and  C_8
REMARK    6  A    between atoms: N_7  and  C_24
REMARK    7  A    between atoms: C_8  and  C_9
REMARK    8  A    between atoms: C_12  and  C_13
REMARK    9  A    between atoms: C_18  and  C_19
REMARK   10  A    between atoms: C_19  and  O_21
REMARK                            x       y       z     vdW  Elec       q    Type
REMARK                         _______ _______ _______ _____ _____    ______ ____
ROOT
ATOM      1  C   UNL     1       2.935   6.954  19.167  0.00  0.00    +0.000 A 
ATOM      2  C   UNL     1       2.940   7.666  17.962  0.00  0.00    +0.000 A 
ATOM      3  C   UNL     1       2.079   8.770  17.775  0.00  0.00    +0.000 A 
ATOM      4  C   UNL     1       1.253   9.248  18.805  0.00  0.00    +0.000 A 
ATOM      5  C   UNL     1       1.348   8.584  20.039  0.00  0.00    +0.000 A 
ATOM      6  C   UNL     1       2.113   7.433  20.193  0.00  0.00    +0.000 A 
ENDROOT
BRANCH   4   7
ATOM      7  C   UNL     1       0.245  10.330  18.639  0.00  0.00    +0.000 A 
ATOM      8  C   UNL     1      -1.115   9.935  18.512  0.00  0.00    +0.000 A 
ATOM      9  C   UNL     1      -2.161  10.846  18.344  0.00  0.00    +0.000 A 
ATOM     10  C   UNL     1      -1.881  12.199  18.262  0.00  0.00    +0.000 A 
ATOM     11  C   UNL     1      -0.559  12.628  18.361  0.00  0.00    +0.000 A 
ATOM     12  C   UNL     1       0.503  11.716  18.561  0.00  0.00    +0.000 A 
BRANCH  12  13
ATOM     13  C   UNL     1       1.843  12.355  18.649  0.00  0.00    +0.000 C 
ATOM     14  O   UNL     1       2.268  12.828  19.691  0.00  0.00    +0.000 OA
BRANCH  13  15
ATOM     15  O   UNL     1       2.588  12.286  17.528  0.00  0.00    +0.000 OA
ATOM     16  H   UNL     1       2.965  13.132  17.223  0.00  0.00    +0.000 HD
ENDBRANCH  13  15
ENDBRANCH  12  13
ENDBRANCH   4   7
BRANCH   1  17
ATOM     17  C   UNL     1       3.626   5.614  19.334  0.00  0.00    +0.000 C 
BRANCH  17  20
ATOM     18  C   UNL     1       4.840   4.537  17.366  0.00  0.00    +0.000 C 
ATOM     19  O   UNL     1       5.014   3.636  16.547  0.00  0.00    +0.000 OA
ATOM     20  N   UNL     1       3.713   4.643  18.212  0.00  0.00    +0.000 N 
BRANCH  20  21
ATOM     21  C   UNL     1       2.715   3.534  18.332  0.00  0.00    +0.000 C 
ATOM     22  C   UNL     1       3.234   2.403  19.231  0.00  0.00    +0.000 C 
ATOM     23  C   UNL     1       3.024   2.734  20.700  0.00  0.00    +0.000 C 
ATOM     24  C   UNL     1       1.536   2.866  20.999  0.00  0.00    +0.000 C 
ATOM     25  C   UNL     1       0.855   3.913  20.126  0.00  0.00    +0.000 C 
ATOM     26  C   UNL     1       1.235   3.837  18.647  0.00  0.00    +0.000 C 
ENDBRANCH  20  21
BRANCH  18  27
ATOM     27  C   UNL     1       5.902   5.619  17.503  0.00  0.00    +0.000 C 
BRANCH  27  28
ATOM     28  C   UNL     1       7.167   5.305  18.292  0.00  0.00    +0.000 C 
BRANCH  28  30
ATOM     29  C   UNL     1       7.596   7.719  17.542  0.00  0.00    +0.000 C 
ATOM     30  C   UNL     1       7.904   6.630  18.554  0.00  0.00    +0.000 C 
ENDBRANCH  28  30
ENDBRANCH  27  28
ENDBRANCH  18  27
ENDBRANCH  17  20
ENDBRANCH   1  17
TORSDOF 9
ENDMDL
MODEL 2
REMARK VINA RESULT:      -8.5      1.194      1.379
REMARK  Name = 
REMARK  10 active torsions:
REMARK  status: ('A' for Active; 'I' for Inactive)
REMARK    1  A    between atoms: C_1  and  C_2
REMARK    2  A    between atoms: C_2  and  C_3
REMARK    3  A    between atoms: C_3  and  C_4
REMARK    4  A    between atoms: C_4  and  C_5
REMARK    5  A    between atoms: N_7  and  C_8
REMARK    6  A    between atoms: N_7  and  C_24
REMARK    7  A    between atoms: C_8  and  C_9
REMARK    8  A    between atoms: C_12  and  C_13
REMARK    9  A    between atoms: C_18  and  C_19
REMARK   10  A    between atoms: C_19  and  O_21
REMARK                            x       y       z     vdW  Elec       q    Type
REMARK                         _______ _______ _______ _____ _____    ______ ____
ROOT
ATOM      1  C   UNL     1       2.970   7.013  18.893  0.00  0.00    +0.000 A 
ATOM      2  C   UNL     1       2.858   7.930  17.841  0.00  0.00    +0.000 A 
ATOM      3  C   UNL     1       1.895   8.962  17.885  0.00  0.00    +0.000 A 
ATOM      4  C   UNL     1       1.076   9.163  19.008  0.00  0.00    +0.000 A 
ATOM      5  C   UNL     1       1.284   8.299  20.094  0.00  0.00    +0.000 A 
ATOM      6  C   UNL     1       2.155   7.217  20.012  0.00  0.00    +0.000 A 
ENDROOT
BRANCH   4   7
ATOM      7  C   UNL     1      -0.031  10.156  19.073  0.00  0.00    +0.000 A 
ATOM      8  C   UNL     1      -0.981  10.138  18.014  0.00  0.00    +0.000 A 
ATOM      9  C   UNL     1      -2.064  11.018  17.947  0.00  0.00    +0.000 A 
ATOM     10  C   UNL     1      -2.223  11.981  18.928  0.00  0.00    +0.000 A 
ATOM     11  C   UNL     1      -1.303  12.047  19.973  0.00  0.00    +0.000 A 
ATOM     12  C   UNL     1      -0.220  11.142  20.065  0.00  0.00    +0.000 A 
BRANCH  12  13
ATOM     13  C   UNL     1       0.653  11.360  21.249  0.00  0.00    +0.000 C 
ATOM     14  O   UNL     1       0.523  10.716  22.278  0.00  0.00    +0.000 OA
BRANCH  13  15
ATOM     15  O   UNL     1       1.655  12.244  21.071  0.00  0.00    +0.000 OA
ATOM     16  H   UNL     1       1.591  12.794  20.269  0.00  0.00    +0.000 HD
ENDBRANCH  13  15
ENDBRANCH  12  13
ENDBRANCH   4   7
BRANCH   1  17
ATOM     17  C   UNL     1       3.784   5.737  18.790  0.00  0.00    +0.000 C 
BRANCH  17  20
ATOM     18  C   UNL     1       4.908   5.020  16.615  0.00  0.00    +0.000 C 
ATOM     19  O   UNL     1       5.060   4.259  15.661  0.00  0.00    +0.000 OA
ATOM     20  N   UNL     1       3.832   4.951  17.530  0.00  0.00    +0.000 N 
BRANCH  20  21
ATOM     21  C   UNL     1       2.881   3.795  17.537  0.00  0.00    +0.000 C 
ATOM     22  C   UNL     1       3.500   2.559  18.204  0.00  0.00    +0.000 C 
ATOM     23  C   UNL     1       3.389   2.643  19.717  0.00  0.00    +0.000 C 
ATOM     24  C   UNL     1       1.923   2.662  20.135  0.00  0.00    +0.000 C 
ATOM     25  C   UNL     1       1.147   3.804  19.490  0.00  0.00    +0.000 C 
ATOM     26  C   UNL     1       1.419   3.981  17.996  0.00  0.00    +0.000 C 
ENDBRANCH  20  21
BRANCH  18  27
ATOM     27  C   UNL     1       5.940   6.112  16.855  0.00  0.00    +0.000 C 
BRANCH  27  28
ATOM     28  C   UNL     1       7.296   5.723  17.431  0.00  0.00    +0.000 C 
BRANCH  28  30
ATOM     29  C   UNL     1       7.792   8.233  17.601  0.00  0.00    +0.000 C 
ATOM     30  C   UNL     1       7.792   6.889  18.305  0.00  0.00    +0.000 C 
ENDBRANCH  28  30
ENDBRANCH  27  28
ENDBRANCH  18  27
ENDBRANCH  17  20
ENDBRANCH   1  17
TORSDOF 9
ENDMDL
MODEL 3
REMARK VINA RESULT:      -8.3      1.534      2.248
REMARK  Name = 
REMARK  10 active torsions:
REMARK  status: ('A' for Active; 'I' for Inactive)
REMARK    1  A    between atoms: C_1  and  C_2
REMARK    2  A    between atoms: C_2  and  C_3
REMARK    3  A    between atoms: C_3  and  C_4
REMARK    4  A    between atoms: C_4  and  C_5
REMARK    5  A    between atoms: N_7  and  C_8
REMARK    6  A    between atoms: N_7  and  C_24
REMARK    7  A    between atoms: C_8  and  C_9
REMARK    8  A    between atoms: C_12  and  C_13
REMARK    9  A    between atoms: C_18  and  C_19
REMARK   10  A    between atoms: C_19  and  O_21
REMARK                            x       y       z     vdW  Elec       q    Type
REMARK                         _______ _______ _______ _____ _____    ______ ____
ROOT
ATOM      1  C   UNL     1       2.502   7.002  19.222  0.00  0.00    +0.000 A 
ATOM      2  C   UNL     1       1.834   7.578  20.309  0.00  0.00    +0.000 A 
ATOM      3  C   UNL     1       1.209   8.838  20.184  0.00  0.00    +0.000 A 
ATOM      4  C   UNL     1       1.159   9.522  18.958  0.00  0.00    +0.000 A 
ATOM      5  C   UNL     1       1.741   8.872  17.858  0.00  0.00    +0.000 A 
ATOM      6  C   UNL     1       2.449   7.683  18.001  0.00  0.00    +0.000 A 
ENDROOT
BRANCH   4   7
ATOM      7  C   UNL     1       0.619  10.898  18.786  0.00  0.00    +0.000 A 
ATOM      8  C   UNL     1       1.445  11.976  19.206  0.00  0.00    +0.000 A 
ATOM      9  C   UNL     1       1.060  13.315  19.108  0.00  0.00    +0.000 A 
ATOM     10  C   UNL     1      -0.193  13.630  18.611  0.00  0.00    +0.000 A 
ATOM     11  C   UNL     1      -1.043  12.603  18.206  0.00  0.00    +0.000 A 
ATOM     12  C   UNL     1      -0.650  11.246  18.274  0.00  0.00    +0.000 A 
BRANCH  12  13
ATOM     13  C   UNL     1      -1.683  10.290  17.794  0.00  0.00    +0.000 C 
ATOM     14  O   UNL     1      -1.535   9.633  16.776  0.00  0.00    +0.000 OA
BRANCH  13  15
ATOM     15  O   UNL     1      -2.744  10.130  18.610  0.00  0.00    +0.000 OA
ATOM     16  H   UNL     1      -2.589  10.351  19.546  0.00  0.00    +0.000 HD
ENDBRANCH  13  15
ENDBRANCH  12  13
ENDBRANCH   4   7
BRANCH   1  17
ATOM     17  C   UNL     1       3.413   5.797  19.360  0.00  0.00    +0.000 C 
BRANCH  17  20
ATOM     18  C   UNL     1       4.712   4.854  17.377  0.00  0.00    +0.000 C 
ATOM     19  O   UNL     1       4.978   3.972  16.563  0.00  0.00    +0.000 OA
ATOM     20  N   UNL     1       3.595   4.833  18.244  0.00  0.00    +0.000 N 
BRANCH  20  21
ATOM     21  C   UNL     1       2.739   3.613  18.391  0.00  0.00    +0.000 C 
ATOM     22  C   UNL     1       3.398   2.569  19.303  0.00  0.00    +0.000 C 
ATOM     23  C   UNL     1       3.161   2.897  20.768  0.00  0.00    +0.000 C 
ATOM     24  C   UNL     1       1.670   2.854  21.080  0.00  0.00    +0.000 C 
ATOM     25  C   UNL     1       0.861   3.796  20.196  0.00  0.00    +0.000 C 
ATOM     26  C   UNL     1       1.236   3.741  18.716  0.00  0.00    +0.000 C 
ENDBRANCH  20  21
BRANCH  18  27
ATOM     27  C   UNL     1       5.639   6.056  17.487  0.00  0.00    +0.000 C 
BRANCH  27  28
ATOM     28  C   UNL     1       7.143   5.830  17.389  0.00  0.00    +0.000 C 
BRANCH  28  30
ATOM     29  C   UNL     1       7.963   8.236  17.728  0.00  0.00    +0.000 C 
ATOM     30  C   UNL     1       7.836   6.843  18.318  0.00  0.00    +0.000 C 
ENDBRANCH  28  30
ENDBRANCH  27  28
ENDBRANCH  18  27
ENDBRANCH  17  20
ENDBRANCH   1  17
TORSDOF 9
ENDMDL
MODEL 4
REMARK VINA RESULT:      -8.2      1.610      2.331
REMARK  Name = 
REMARK  10 active torsions:
REMARK  status: ('A' for Active; 'I' for Inactive)
REMARK    1  A    between atoms: C_1  and  C_2
REMARK    2  A    between atoms: C_2  and  C_3
REMARK    3  A    between atoms: C_3  and  C_4
REMARK    4  A    between atoms: C_4  and  C_5
REMARK    5  A    between atoms: N_7  and  C_8
REMARK    6  A    between atoms: N_7  and  C_24
REMARK    7  A    between atoms: C_8  and  C_9
REMARK    8  A    between atoms: C_12  and  C_13
REMARK    9  A    between atoms: C_18  and  C_19
REMARK   10  A    between atoms: C_19  and  O_21
REMARK                            x       y       z     vdW  Elec       q    Type
REMARK                         _______ _______ _______ _____ _____    ______ ____
ROOT
ATOM      1  C   UNL     1       2.581   6.965  19.195  0.00  0.00    +0.000 A 
ATOM      2  C   UNL     1       1.798   7.496  20.228  0.00  0.00    +0.000 A 
ATOM      3  C   UNL     1       1.221   8.779  20.107  0.00  0.00    +0.000 A 
ATOM      4  C   UNL     1       1.335   9.534  18.928  0.00  0.00    +0.000 A 
ATOM      5  C   UNL     1       2.032   8.934  17.868  0.00  0.00    +0.000 A 
ATOM      6  C   UNL     1       2.692   7.718  18.021  0.00  0.00    +0.000 A 
ENDROOT
BRANCH   4   7
ATOM      7  C   UNL     1       0.850  10.933  18.777  0.00  0.00    +0.000 A 
ATOM      8  C   UNL     1       1.754  11.974  19.125  0.00  0.00    +0.000 A 
ATOM      9  C   UNL     1       1.426  13.329  19.037  0.00  0.00    +0.000 A 
ATOM     10  C   UNL     1       0.157  13.699  18.627  0.00  0.00    +0.000 A 
ATOM     11  C   UNL     1      -0.767  12.710  18.296  0.00  0.00    +0.000 A 
ATOM     12  C   UNL     1      -0.435  11.336  18.353  0.00  0.00    +0.000 A 
BRANCH  12  13
ATOM     13  C   UNL     1      -1.544  10.427  17.960  0.00  0.00    +0.000 C 
ATOM     14  O   UNL     1      -2.544  10.290  18.647  0.00  0.00    +0.000 OA
BRANCH  13  15
ATOM     15  O   UNL     1      -1.412   9.845  16.752  0.00  0.00    +0.000 OA
ATOM     16  H   UNL     1      -1.226  10.453  16.012  0.00  0.00    +0.000 HD
ENDBRANCH  13  15
ENDBRANCH  12  13
ENDBRANCH   4   7
BRANCH   1  17
ATOM     17  C   UNL     1       3.442   5.728  19.367  0.00  0.00    +0.000 C 
BRANCH  17  20
ATOM     18  C   UNL     1       5.458   4.965  18.003  0.00  0.00    +0.000 C 
ATOM     19  O   UNL     1       6.000   4.265  17.149  0.00  0.00    +0.000 OA
ATOM     20  N   UNL     1       4.061   5.048  18.200  0.00  0.00    +0.000 N 
BRANCH  20  21
ATOM     21  C   UNL     1       3.114   4.114  17.511  0.00  0.00    +0.000 C 
ATOM     22  C   UNL     1       3.569   2.654  17.639  0.00  0.00    +0.000 C 
ATOM     23  C   UNL     1       3.151   2.068  18.978  0.00  0.00    +0.000 C 
ATOM     24  C   UNL     1       1.632   2.052  19.092  0.00  0.00    +0.000 C 
ATOM     25  C   UNL     1       1.018   3.436  18.913  0.00  0.00    +0.000 C 
ATOM     26  C   UNL     1       1.592   4.228  17.738  0.00  0.00    +0.000 C 
ENDBRANCH  20  21
BRANCH  18  27
ATOM     27  C   UNL     1       6.329   5.800  18.929  0.00  0.00    +0.000 C 
BRANCH  27  28
ATOM     28  C   UNL     1       7.672   6.303  18.413  0.00  0.00    +0.000 C 
BRANCH  28  30
ATOM     29  C   UNL     1       8.097   8.770  17.856  0.00  0.00    +0.000 C 
ATOM     30  C   UNL     1       7.404   7.479  17.458  0.00  0.00    +0.000 C 
ENDBRANCH  28  30
ENDBRANCH  27  28
ENDBRANCH  18  27
ENDBRANCH  17  20
ENDBRANCH   1  17
TORSDOF 9
ENDMDL
MODEL 5
REMARK VINA RESULT:      -8.2      1.847      2.356
REMARK  Name = 
REMARK  10 active torsions:
REMARK  status: ('A' for Active; 'I' for Inactive)
REMARK    1  A    between atoms: C_1  and  C_2
REMARK    2  A    between atoms: C_2  and  C_3
REMARK    3  A    between atoms: C_3  and  C_4
REMARK    4  A    between atoms: C_4  and  C_5
REMARK    5  A    between atoms: N_7  and  C_8
REMARK    6  A    between atoms: N_7  and  C_24
REMARK    7  A    between atoms: C_8  and  C_9
REMARK    8  A    between atoms: C_12  and  C_13
REMARK    9  A    between atoms: C_18  and  C_19
REMARK   10  A    between atoms: C_19  and  O_21
REMARK                            x       y       z     vdW  Elec       q    Type
REMARK                         _______ _______ _______ _____ _____    ______ ____
ROOT
ATOM      1  C   UNL     1       2.734   6.283  18.363  0.00  0.00    +0.000 A 
ATOM      2  C   UNL     1       2.554   7.577  17.859  0.00  0.00    +0.000 A 
ATOM      3  C   UNL     1       1.894   8.562  18.626  0.00  0.00    +0.000 A 
ATOM      4  C   UNL     1       1.470   8.316  19.942  0.00  0.00    +0.000 A 
ATOM      5  C   UNL     1       1.761   7.046  20.463  0.00  0.00    +0.000 A 
ATOM      6  C   UNL     1       2.314   6.041  19.675  0.00  0.00    +0.000 A 
ENDROOT
BRANCH   4   7
ATOM      7  C   UNL     1       0.671   9.270  20.759  0.00  0.00    +0.000 A 
ATOM      8  C   UNL     1       0.654   9.063  22.166  0.00  0.00    +0.000 A 
ATOM      9  C   UNL     1      -0.060   9.879  23.047  0.00  0.00    +0.000 A 
ATOM     10  C   UNL     1      -0.817  10.924  22.549  0.00  0.00    +0.000 A 
ATOM     11  C   UNL     1      -0.845  11.150  21.174  0.00  0.00    +0.000 A 
ATOM     12  C   UNL     1      -0.102  10.348  20.276  0.00  0.00    +0.000 A 
BRANCH  12  13
ATOM     13  C   UNL     1      -0.249  10.740  18.849  0.00  0.00    +0.000 C 
ATOM     14  O   UNL     1      -1.098  10.244  18.125  0.00  0.00    +0.000 OA
BRANCH  13  15
ATOM     15  O   UNL     1       0.551  11.745  18.443  0.00  0.00    +0.000 OA
ATOM     16  H   UNL     1       0.378  12.082  17.545  0.00  0.00    +0.000 HD
ENDBRANCH  13  15
ENDBRANCH  12  13
ENDBRANCH   4   7
BRANCH   1  17
ATOM     17  C   UNL     1       3.185   5.119  17.501  0.00  0.00    +0.000 C 
BRANCH  17  20
ATOM     18  C   UNL     1       5.580   4.753  18.298  0.00  0.00    +0.000 C 
ATOM     19  O   UNL     1       6.475   4.077  18.803  0.00  0.00    +0.000 OA
ATOM     20  N   UNL     1       4.319   4.249  17.907  0.00  0.00    +0.000 N 
BRANCH  20  21
ATOM     21  C   UNL     1       3.879   2.865  18.272  0.00  0.00    +0.000 C 
ATOM     22  C   UNL     1       4.086   2.584  19.767  0.00  0.00    +0.000 C 
ATOM     23  C   UNL     1       2.943   3.151  20.592  0.00  0.00    +0.000 C 
ATOM     24  C   UNL     1       1.634   2.472  20.209  0.00  0.00    +0.000 C 
ATOM     25  C   UNL     1       1.320   2.603  18.724  0.00  0.00    +0.000 C 
ATOM     26  C   UNL     1       2.511   2.325  17.806  0.00  0.00    +0.000 C 
ENDBRANCH  20  21
BRANCH  18  27
ATOM     27  C   UNL     1       5.820   6.240  18.078  0.00  0.00    +0.000 C 
BRANCH  27  28
ATOM     28  C   UNL     1       7.019   6.671  17.242  0.00  0.00    +0.000 C 
BRANCH  28  30
ATOM     29  C   UNL     1       8.096   8.904  17.898  0.00  0.00    +0.000 C 
ATOM     30  C   UNL     1       8.000   7.413  18.167  0.00  0.00    +0.000 C 
ENDBRANCH  28  30
ENDBRANCH  27  28
ENDBRANCH  18  27
ENDBRANCH  17  20
ENDBRANCH   1  17
TORSDOF 9
ENDMDL
MODEL 6
REMARK VINA RESULT:      -8.2      1.975      2.530
REMARK  Name = 
REMARK  10 active torsions:
REMARK  status: ('A' for Active; 'I' for Inactive)
REMARK    1  A    between atoms: C_1  and  C_2
REMARK    2  A    between atoms: C_2  and  C_3
REMARK    3  A    between atoms: C_3  and  C_4
REMARK    4  A    between atoms: C_4  and  C_5
REMARK    5  A    between atoms: N_7  and  C_8
REMARK    6  A    between atoms: N_7  and  C_24
REMARK    7  A    between atoms: C_8  and  C_9
REMARK    8  A    between atoms: C_12  and  C_13
REMARK    9  A    between atoms: C_18  and  C_19
REMARK   10  A    between atoms: C_19  and  O_21
REMARK                            x       y       z     vdW  Elec       q    Type
REMARK                         _______ _______ _______ _____ _____    ______ ____
ROOT
ATOM      1  C   UNL     1       2.787   6.495  19.328  0.00  0.00    +0.000 A 
ATOM      2  C   UNL     1       2.045   6.545  20.514  0.00  0.00    +0.000 A 
ATOM      3  C   UNL     1       1.273   7.684  20.832  0.00  0.00    +0.000 A 
ATOM      4  C   UNL     1       1.152   8.767  19.946  0.00  0.00    +0.000 A 
ATOM      5  C   UNL     1       1.817   8.645  18.716  0.00  0.00    +0.000 A 
ATOM      6  C   UNL     1       2.663   7.574  18.446  0.00  0.00    +0.000 A 
ENDROOT
BRANCH   4   7
ATOM      7  C   UNL     1       0.450  10.040  20.268  0.00  0.00    +0.000 A 
ATOM      8  C   UNL     1       0.236  10.952  19.198  0.00  0.00    +0.000 A 
ATOM      9  C   UNL     1      -0.402  12.183  19.362  0.00  0.00    +0.000 A 
ATOM     10  C   UNL     1      -0.826  12.570  20.621  0.00  0.00    +0.000 A 
ATOM     11  C   UNL     1      -0.619  11.715  21.702  0.00  0.00    +0.000 A 
ATOM     12  C   UNL     1       0.000  10.454  21.541  0.00  0.00    +0.000 A 
BRANCH  12  13
ATOM     13  C   UNL     1       0.133   9.677  22.803  0.00  0.00    +0.000 C 
ATOM     14  O   UNL     1       1.166   9.669  23.452  0.00  0.00    +0.000 OA
BRANCH  13  15
ATOM     15  O   UNL     1      -0.993   9.068  23.225  0.00  0.00    +0.000 OA
ATOM     16  H   UNL     1      -0.957   8.094  23.251  0.00  0.00    +0.000 HD
ENDBRANCH  13  15
ENDBRANCH  12  13
ENDBRANCH   4   7
BRANCH   1  17
ATOM     17  C   UNL     1       3.836   5.433  19.058  0.00  0.00    +0.000 C 
BRANCH  17  20
ATOM     18  C   UNL     1       4.730   4.893  16.730  0.00  0.00    +0.000 C 
ATOM     19  O   UNL     1       4.870   4.157  15.755  0.00  0.00    +0.000 OA
ATOM     20  N   UNL     1       3.834   4.647  17.796  0.00  0.00    +0.000 N 
BRANCH  20  21
ATOM     21  C   UNL     1       3.118   3.340  17.933  0.00  0.00    +0.000 C 
ATOM     22  C   UNL     1       3.762   2.454  19.008  0.00  0.00    +0.000 C 
ATOM     23  C   UNL     1       3.285   2.847  20.397  0.00  0.00    +0.000 C 
ATOM     24  C   UNL     1       1.782   2.632  20.515  0.00  0.00    +0.000 C 
ATOM     25  C   UNL     1       0.997   3.400  19.457  0.00  0.00    +0.000 C 
ATOM     26  C   UNL     1       1.579   3.295  18.048  0.00  0.00    +0.000 C 
ENDBRANCH  20  21
BRANCH  18  27
ATOM     27  C   UNL     1       5.573   6.156  16.823  0.00  0.00    +0.000 C 
BRANCH  27  28
ATOM     28  C   UNL     1       7.090   6.019  16.871  0.00  0.00    +0.000 C 
BRANCH  28  30
ATOM     29  C   UNL     1       7.886   8.311  17.702  0.00  0.00    +0.000 C 
ATOM     30  C   UNL     1       7.606   6.861  18.052  0.00  0.00    +0.000 C 
ENDBRANCH  28  30
ENDBRANCH  27  28
ENDBRANCH  18  27
ENDBRANCH  17  20
ENDBRANCH   1  17
TORSDOF 9
ENDMDL
MODEL 7
REMARK VINA RESULT:      -8.1      0.959      1.305
REMARK  Name = 
REMARK  10 active torsions:
REMARK  status: ('A' for Active; 'I' for Inactive)
REMARK    1  A    between atoms: C_1  and  C_2
REMARK    2  A    between atoms: C_2  and  C_3
REMARK    3  A    between atoms: C_3  and  C_4
REMARK    4  A    between atoms: C_4  and  C_5
REMARK    5  A    between atoms: N_7  and  C_8
REMARK    6  A    between atoms: N_7  and  C_24
REMARK    7  A    between atoms: C_8  and  C_9
REMARK    8  A    between atoms: C_12  and  C_13
REMARK    9  A    between atoms: C_18  and  C_19
REMARK   10  A    between atoms: C_19  and  O_21
REMARK                            x       y       z     vdW  Elec       q    Type
REMARK                         _______ _______ _______ _____ _____    ______ ____
ROOT
ATOM      1  C   UNL     1       2.931   6.889  19.135  0.00  0.00    +0.000 A 
ATOM      2  C   UNL     1       2.914   7.581  17.917  0.00  0.00    +0.000 A 
ATOM      3  C   UNL     1       2.058   8.688  17.730  0.00  0.00    +0.000 A 
ATOM      4  C   UNL     1       1.258   9.189  18.770  0.00  0.00    +0.000 A 
ATOM      5  C   UNL     1       1.375   8.547  20.012  0.00  0.00    +0.000 A 
ATOM      6  C   UNL     1       2.135   7.392  20.170  0.00  0.00    +0.000 A 
ENDROOT
BRANCH   4   7
ATOM      7  C   UNL     1       0.254  10.276  18.607  0.00  0.00    +0.000 A 
ATOM      8  C   UNL     1      -1.104   9.886  18.449  0.00  0.00    +0.000 A 
ATOM      9  C   UNL     1      -2.145  10.802  18.281  0.00  0.00    +0.000 A 
ATOM     10  C   UNL     1      -1.862  12.156  18.230  0.00  0.00    +0.000 A 
ATOM     11  C   UNL     1      -0.542  12.581  18.360  0.00  0.00    +0.000 A 
ATOM     12  C   UNL     1       0.516  11.663  18.560  0.00  0.00    +0.000 A 
BRANCH  12  13
ATOM     13  C   UNL     1       1.855  12.298  18.682  0.00  0.00    +0.000 C 
ATOM     14  O   UNL     1       2.256  12.766  19.736  0.00  0.00    +0.000 OA
BRANCH  13  15
ATOM     15  O   UNL     1       2.627  12.232  17.580  0.00  0.00    +0.000 OA
ATOM     16  H   UNL     1       2.795  13.082  17.134  0.00  0.00    +0.000 HD
ENDBRANCH  13  15
ENDBRANCH  12  13
ENDBRANCH   4   7
BRANCH   1  17
ATOM     17  C   UNL     1       3.615   5.547  19.309  0.00  0.00    +0.000 C 
BRANCH  17  20
ATOM     18  C   UNL     1       4.485   4.179  17.339  0.00  0.00    +0.000 C 
ATOM     19  O   UNL     1       4.481   3.193  16.605  0.00  0.00    +0.000 OA
ATOM     20  N   UNL     1       3.482   4.472  18.291  0.00  0.00    +0.000 N 
BRANCH  20  21
ATOM     21  C   UNL     1       2.415   3.481  18.638  0.00  0.00    +0.000 C 
ATOM     22  C   UNL     1       2.996   2.256  19.357  0.00  0.00    +0.000 C 
ATOM     23  C   UNL     1       3.198   2.537  20.837  0.00  0.00    +0.000 C 
ATOM     24  C   UNL     1       1.858   2.825  21.503  0.00  0.00    +0.000 C 
ATOM     25  C   UNL     1       1.117   3.984  20.848  0.00  0.00    +0.000 C 
ATOM     26  C   UNL     1       1.108   3.937  19.320  0.00  0.00    +0.000 C 
ENDBRANCH  20  21
BRANCH  18  27
ATOM     27  C   UNL     1       5.644   5.161  17.243  0.00  0.00    +0.000 C 
BRANCH  27  28
ATOM     28  C   UNL     1       6.898   4.740  16.487  0.00  0.00    +0.000 C 
BRANCH  28  30
ATOM     29  C   UNL     1       6.445   4.070  14.053  0.00  0.00    +0.000 C 
ATOM     30  C   UNL     1       6.746   5.197  15.025  0.00  0.00    +0.000 C 
ENDBRANCH  28  30
ENDBRANCH  27  28
ENDBRANCH  18  27
ENDBRANCH  17  20
ENDBRANCH   1  17
TORSDOF 9
ENDMDL
MODEL 8
REMARK VINA RESULT:      -8.1      1.301      3.961
REMARK  Name = 
REMARK  10 active torsions:
REMARK  status: ('A' for Active; 'I' for Inactive)
REMARK    1  A    between atoms: C_1  and  C_2
REMARK    2  A    between atoms: C_2  and  C_3
REMARK    3  A    between atoms: C_3  and  C_4
REMARK    4  A    between atoms: C_4  and  C_5
REMARK    5  A    between atoms: N_7  and  C_8
REMARK    6  A    between atoms: N_7  and  C_24
REMARK    7  A    between atoms: C_8  and  C_9
REMARK    8  A    between atoms: C_12  and  C_13
REMARK    9  A    between atoms: C_18  and  C_19
REMARK   10  A    between atoms: C_19  and  O_21
REMARK                            x       y       z     vdW  Elec       q    Type
REMARK                         _______ _______ _______ _____ _____    ______ ____
ROOT
ATOM      1  C   UNL     1       3.098   6.637  19.285  0.00  0.00    +0.000 A 
ATOM      2  C   UNL     1       3.083   7.428  18.129  0.00  0.00    +0.000 A 
ATOM      3  C   UNL     1       2.164   8.491  17.997  0.00  0.00    +0.000 A 
ATOM      4  C   UNL     1       1.293   8.852  19.039  0.00  0.00    +0.000 A 
ATOM      5  C   UNL     1       1.404   8.114  20.228  0.00  0.00    +0.000 A 
ATOM      6  C   UNL     1       2.232   6.999  20.322  0.00  0.00    +0.000 A 
ENDROOT
BRANCH   4   7
ATOM      7  C   UNL     1       0.227   9.884  18.923  0.00  0.00    +0.000 A 
ATOM      8  C   UNL     1      -0.677   9.762  17.833  0.00  0.00    +0.000 A 
ATOM      9  C   UNL     1      -1.719  10.664  17.602  0.00  0.00    +0.000 A 
ATOM     10  C   UNL     1      -1.877  11.753  18.441  0.00  0.00    +0.000 A 
ATOM     11  C   UNL     1      -1.000  11.922  19.510  0.00  0.00    +0.000 A 
ATOM     12  C   UNL     1       0.039  10.998  19.769  0.00  0.00    +0.000 A 
BRANCH  12  13
ATOM     13  C   UNL     1       0.871  11.337  20.954  0.00  0.00    +0.000 C 
ATOM     14  O   UNL     1       1.773  12.159  20.899  0.00  0.00    +0.000 OA
BRANCH  13  15
ATOM     15  O   UNL     1       0.498  10.750  22.108  0.00  0.00    +0.000 OA
ATOM     16  H   UNL     1       0.821  11.181  22.921  0.00  0.00    +0.000 HD
ENDBRANCH  13  15
ENDBRANCH  12  13
ENDBRANCH   4   7
BRANCH   1  17
ATOM     17  C   UNL     1       3.861   5.329  19.378  0.00  0.00    +0.000 C 
BRANCH  17  20
ATOM     18  C   UNL     1       2.650   3.825  17.712  0.00  0.00    +0.000 C 
ATOM     19  O   UNL     1       2.596   3.147  16.686  0.00  0.00    +0.000 OA
ATOM     20  N   UNL     1       3.842   4.342  18.268  0.00  0.00    +0.000 N 
BRANCH  20  21
ATOM     21  C   UNL     1       5.143   4.282  17.529  0.00  0.00    +0.000 C 
ATOM     22  C   UNL     1       5.019   4.879  16.120  0.00  0.00    +0.000 C 
ATOM     23  C   UNL     1       5.124   6.395  16.158  0.00  0.00    +0.000 C 
ATOM     24  C   UNL     1       6.495   6.811  16.677  0.00  0.00    +0.000 C 
ATOM     25  C   UNL     1       6.800   6.232  18.053  0.00  0.00    +0.000 C 
ATOM     26  C   UNL     1       6.451   4.751  18.199  0.00  0.00    +0.000 C 
ENDBRANCH  20  21
BRANCH  18  27
ATOM     27  C   UNL     1       1.357   4.151  18.444  0.00  0.00    +0.000 C 
BRANCH  27  28
ATOM     28  C   UNL     1       0.764   3.107  19.382  0.00  0.00    +0.000 C 
BRANCH  28  30
ATOM     29  C   UNL     1       2.166   2.753  21.500  0.00  0.00    +0.000 C 
ATOM     30  C   UNL     1       1.059   3.545  20.828  0.00  0.00    +0.000 C 
ENDBRANCH  28  30
ENDBRANCH  27  28
ENDBRANCH  18  27
ENDBRANCH  17  20
ENDBRANCH   1  17
TORSDOF 9
ENDMDL
MODEL 9
REMARK VINA RESULT:      -8.1      0.920      1.330
REMARK  Name = 
REMARK  10 active torsions:
REMARK  status: ('A' for Active; 'I' for Inactive)
REMARK    1  A    between atoms: C_1  and  C_2
REMARK    2  A    between atoms: C_2  and  C_3
REMARK    3  A    between atoms: C_3  and  C_4
REMARK    4  A    between atoms: C_4  and  C_5
REMARK    5  A    between atoms: N_7  and  C_8
REMARK    6  A    between atoms: N_7  and  C_24
REMARK    7  A    between atoms: C_8  and  C_9
REMARK    8  A    between atoms: C_12  and  C_13
REMARK    9  A    between atoms: C_18  and  C_19
REMARK   10  A    between atoms: C_19  and  O_21
REMARK                            x       y       z     vdW  Elec       q    Type
REMARK                         _______ _______ _______ _____ _____    ______ ____
ROOT
ATOM      1  C   UNL     1       2.479   7.324  18.925  0.00  0.00    +0.000 A 
ATOM      2  C   UNL     1       1.896   7.732  20.131  0.00  0.00    +0.000 A 
ATOM      3  C   UNL     1       1.109   8.903  20.190  0.00  0.00    +0.000 A 
ATOM      4  C   UNL     1       0.812   9.654  19.041  0.00  0.00    +0.000 A 
ATOM      5  C   UNL     1       1.317   9.163  17.827  0.00  0.00    +0.000 A 
ATOM      6  C   UNL     1       2.180   8.072  17.781  0.00  0.00    +0.000 A 
ENDROOT
BRANCH   4   7
ATOM      7  C   UNL     1       0.087  10.954  19.052  0.00  0.00    +0.000 A 
ATOM      8  C   UNL     1      -1.322  10.910  19.233  0.00  0.00    +0.000 A 
ATOM      9  C   UNL     1      -2.124  12.053  19.257  0.00  0.00    +0.000 A 
ATOM     10  C   UNL     1      -1.546  13.296  19.067  0.00  0.00    +0.000 A 
ATOM     11  C   UNL     1      -0.170  13.384  18.866  0.00  0.00    +0.000 A 
ATOM     12  C   UNL     1       0.654  12.234  18.869  0.00  0.00    +0.000 A 
BRANCH  12  13
ATOM     13  C   UNL     1       2.096  12.521  18.644  0.00  0.00    +0.000 C 
ATOM     14  O   UNL     1       2.818  12.942  19.533  0.00  0.00    +0.000 OA
BRANCH  13  15
ATOM     15  O   UNL     1       2.566  12.191  17.425  0.00  0.00    +0.000 OA
ATOM     16  H   UNL     1       3.500  11.915  17.396  0.00  0.00    +0.000 HD
ENDBRANCH  13  15
ENDBRANCH  12  13
ENDBRANCH   4   7
BRANCH   1  17
ATOM     17  C   UNL     1       3.543   6.245  18.849  0.00  0.00    +0.000 C 
BRANCH  17  20
ATOM     18  C   UNL     1       4.841   5.578  16.756  0.00  0.00    +0.000 C 
ATOM     19  O   UNL     1       5.115   4.809  15.836  0.00  0.00    +0.000 OA
ATOM     20  N   UNL     1       3.732   5.431  17.620  0.00  0.00    +0.000 N 
BRANCH  20  21
ATOM     21  C   UNL     1       2.896   4.188  17.619  0.00  0.00    +0.000 C 
ATOM     22  C   UNL     1       3.679   2.982  18.154  0.00  0.00    +0.000 C 
ATOM     23  C   UNL     1       3.682   2.963  19.674  0.00  0.00    +0.000 C 
ATOM     24  C   UNL     1       2.259   2.813  20.198  0.00  0.00    +0.000 C 
ATOM     25  C   UNL     1       1.331   3.910  19.690  0.00  0.00    +0.000 C 
ATOM     26  C   UNL     1       1.465   4.202  18.196  0.00  0.00    +0.000 C 
ENDBRANCH  20  21
BRANCH  18  27
ATOM     27  C   UNL     1       5.750   6.772  17.010  0.00  0.00    +0.000 C 
BRANCH  27  28
ATOM     28  C   UNL     1       7.259   6.563  16.975  0.00  0.00    +0.000 C 
BRANCH  28  30
ATOM     29  C   UNL     1       8.106   8.805  17.885  0.00  0.00    +0.000 C 
ATOM     30  C   UNL     1       7.872   7.331  18.160  0.00  0.00    +0.000 C 
ENDBRANCH  28  30
ENDBRANCH  27  28
ENDBRANCH  18  27
ENDBRANCH  17  20
ENDBRANCH   1  17
TORSDOF 9
ENDMDL
