MODEL 1
REMARK VINA RESULT:      -8.3      0.000      0.000
REMARK  Name = 
REMARK  9 active torsions:
REMARK  status: ('A' for Active; 'I' for Inactive)
REMARK    1  A    between atoms: C_1  and  O_2
REMARK    2  A    between atoms: O_2  and  C_3
REMARK    3  A    between atoms: C_6  and  N_7
REMARK    4  A    between atoms: C_15  and  C_16
REMARK    5  A    between atoms: C_21  and  O_22
REMARK    6  A    between atoms: O_22  and  C_23
REMARK    7  A    between atoms: C_23  and  C_24
REMARK    8  A    between atoms: C_24  and  N_25
REMARK    9  A    between atoms: C_28  and  C_29
REMARK                            x       y       z     vdW  Elec       q    Type
REMARK                         _______ _______ _______ _____ _____    ______ ____
ROOT
ATOM      1  C   UNL     1       0.260  10.598  22.071  0.00  0.00    +0.000 A 
ATOM      2  C   UNL     1       0.606   9.324  22.559  0.00  0.00    +0.000 A 
ATOM      3  C   UNL     1       1.095   8.302  21.700  0.00  0.00    +0.000 A 
ATOM      4  C   UNL     1       1.287   8.565  20.350  0.00  0.00    +0.000 A 
ATOM      5  C   UNL     1       0.957   9.848  19.881  0.00  0.00    +0.000 A 
ATOM      6  C   UNL     1       0.474  10.862  20.717  0.00  0.00    +0.000 A 
ENDROOT
BRANCH   4   7
ATOM      7  N   UNL     1       1.889   7.662  19.431  0.00  0.00    +0.000 N 
ATOM      8  C   UNL     1       2.203   8.149  18.110  0.00  0.00    +0.000 C 
ATOM      9  C   UNL     1       3.347   7.282  17.765  0.00  0.00    +0.000 A 
ATOM     10  C   UNL     1       4.631   7.640  17.385  0.00  0.00    +0.000 A 
ATOM     11  C   UNL     1       5.623   6.656  17.398  0.00  0.00    +0.000 A 
ATOM     12 CL   UNL     1       7.252   7.171  17.156  0.00  0.00    +0.000 Cl
ATOM     13  C   UNL     1       5.270   5.306  17.584  0.00  0.00    +0.000 A 
ATOM     14 CL   UNL     1       6.422   4.046  17.293  0.00  0.00    +0.000 Cl
ATOM     15  C   UNL     1       3.938   4.973  17.921  0.00  0.00    +0.000 A 
ATOM     16  C   UNL     1       3.257   3.912  17.047  0.00  0.00    +0.000 C 
ATOM     17  C   UNL     1       3.102   6.031  18.285  0.00  0.00    +0.000 A 
ATOM     18  C   UNL     1       2.422   6.370  19.594  0.00  0.00    +0.000 C 
ATOM     19  O   UNL     1       2.443   5.655  20.592  0.00  0.00    +0.000 OA
ENDBRANCH   4   7
BRANCH   1  21
ATOM     20  C   UNL     1      -1.665  11.848  22.826  0.00  0.00    +0.000 C 
ATOM     21  O   UNL     1      -0.265  11.612  22.814  0.00  0.00    +0.000 OA
ENDBRANCH   1  21
BRANCH   6  22
ATOM     22  O   UNL     1       0.203  12.017  20.031  0.00  0.00    +0.000 OA
BRANCH  22  23
ATOM     23  C   UNL     1      -0.041  11.940  18.618  0.00  0.00    +0.000 C 
BRANCH  23  24
ATOM     24  C   UNL     1      -1.541  12.237  18.397  0.00  0.00    +0.000 C 
BRANCH  24  25
ATOM     25  N   UNL     1      -2.496  11.127  18.582  0.00  0.00    +0.000 NA
ATOM     26  C   UNL     1      -1.988   9.882  17.978  0.00  0.00    +0.000 C 
ATOM     27  C   UNL     1      -2.056   9.873  16.446  0.00  0.00    +0.000 C 
ATOM     28  C   UNL     1      -3.492  10.096  15.967  0.00  0.00    +0.000 C 
ATOM     29  C   UNL     1      -3.554  10.189  14.444  0.00  0.00    +0.000 C 
ATOM     30  C   UNL     1      -4.084  11.353  16.620  0.00  0.00    +0.000 C 
ATOM     31  C   UNL     1      -3.870  11.384  18.137  0.00  0.00    +0.000 C 
ENDBRANCH  24  25
ENDBRANCH  23  24
ENDBRANCH  22  23
ENDBRANCH   6  22
TORSDOF 6
ENDMDL
MODEL 2
REMARK VINA RESULT:      -8.1      1.768      2.578
REMARK  Name = 
REMARK  9 active torsions:
REMARK  status: ('A' for Active; 'I' for Inactive)
REMARK    1  A    between atoms: C_1  and  O_2
REMARK    2  A    between atoms: O_2  and  C_3
REMARK    3  A    between atoms: C_6  and  N_7
REMARK    4  A    between atoms: C_15  and  C_16
REMARK    5  A    between atoms: C_21  and  O_22
REMARK    6  A    between atoms: O_22  and  C_23
REMARK    7  A    between atoms: C_23  and  C_24
REMARK    8  A    between atoms: C_24  and  N_25
REMARK    9  A    between atoms: C_28  and  C_29
REMARK                            x       y       z     vdW  Elec       q    Type
REMARK                         _______ _______ _______ _____ _____    ______ ____
ROOT
ATOM      1  C   UNL     1      -0.558  11.437  21.761  0.00  0.00    +0.000 A 
ATOM      2  C   UNL     1      -0.490  10.277  22.555  0.00  0.00    +0.000 A 
ATOM      3  C   UNL     1       0.176   9.103  22.108  0.00  0.00    +0.000 A 
ATOM      4  C   UNL     1       0.823   9.098  20.879  0.00  0.00    +0.000 A 
ATOM      5  C   UNL     1       0.763  10.270  20.107  0.00  0.00    +0.000 A 
ATOM      6  C   UNL     1       0.110  11.432  20.535  0.00  0.00    +0.000 A 
ENDROOT
BRANCH   4   7
ATOM      7  N   UNL     1       1.624   8.029  20.395  0.00  0.00    +0.000 N 
ATOM      8  C   UNL     1       1.899   6.929  21.287  0.00  0.00    +0.000 C 
ATOM      9  C   UNL     1       2.077   5.830  20.317  0.00  0.00    +0.000 A 
ATOM     10  C   UNL     1       1.410   4.618  20.237  0.00  0.00    +0.000 A 
ATOM     11  C   UNL     1       1.538   3.867  19.065  0.00  0.00    +0.000 A 
ATOM     12 CL   UNL     1       0.515   2.489  18.891  0.00  0.00    +0.000 Cl
ATOM     13  C   UNL     1       2.487   4.240  18.095  0.00  0.00    +0.000 A 
ATOM     14 CL   UNL     1       2.886   3.165  16.795  0.00  0.00    +0.000 Cl
ATOM     15  C   UNL     1       3.188   5.459  18.235  0.00  0.00    +0.000 A 
ATOM     16  C   UNL     1       4.717   5.384  18.146  0.00  0.00    +0.000 C 
ATOM     17  C   UNL     1       2.718   6.341  19.211  0.00  0.00    +0.000 A 
ATOM     18  C   UNL     1       2.101   7.719  19.106  0.00  0.00    +0.000 C 
ATOM     19  O   UNL     1       1.987   8.351  18.060  0.00  0.00    +0.000 OA
ENDBRANCH   4   7
BRANCH   1  21
ATOM     20  C   UNL     1      -1.668  12.799  23.419  0.00  0.00    +0.000 C 
ATOM     21  O   UNL     1      -1.221  12.580  22.089  0.00  0.00    +0.000 OA
ENDBRANCH   1  21
BRANCH   6  22
ATOM     22  O   UNL     1       0.168  12.436  19.604  0.00  0.00    +0.000 OA
BRANCH  22  23
ATOM     23  C   UNL     1      -0.407  12.211  18.308  0.00  0.00    +0.000 C 
BRANCH  23  24
ATOM     24  C   UNL     1      -1.929  12.437  18.439  0.00  0.00    +0.000 C 
BRANCH  24  25
ATOM     25  N   UNL     1      -2.794  11.248  18.564  0.00  0.00    +0.000 NA
ATOM     26  C   UNL     1      -2.130  10.049  18.020  0.00  0.00    +0.000 C 
ATOM     27  C   UNL     1      -2.075  10.022  16.488  0.00  0.00    +0.000 C 
ATOM     28  C   UNL     1      -3.483  10.111  15.894  0.00  0.00    +0.000 C 
ATOM     29  C   UNL     1      -3.431  10.186  14.370  0.00  0.00    +0.000 C 
ATOM     30  C   UNL     1      -4.234  11.314  16.480  0.00  0.00    +0.000 C 
ATOM     31  C   UNL     1      -4.145  11.377  18.009  0.00  0.00    +0.000 C 
ENDBRANCH  24  25
ENDBRANCH  23  24
ENDBRANCH  22  23
ENDBRANCH   6  22
TORSDOF 6
ENDMDL
MODEL 3
REMARK VINA RESULT:      -8.0      3.628      8.372
REMARK  Name = 
REMARK  9 active torsions:
REMARK  status: ('A' for Active; 'I' for Inactive)
REMARK    1  A    between atoms: C_1  and  O_2
REMARK    2  A    between atoms: O_2  and  C_3
REMARK    3  A    between atoms: C_6  and  N_7
REMARK    4  A    between atoms: C_15  and  C_16
REMARK    5  A    between atoms: C_21  and  O_22
REMARK    6  A    between atoms: O_22  and  C_23
REMARK    7  A    between atoms: C_23  and  C_24
REMARK    8  A    between atoms: C_24  and  N_25
REMARK    9  A    between atoms: C_28  and  C_29
REMARK                            x       y       z     vdW  Elec       q    Type
REMARK                         _______ _______ _______ _____ _____    ______ ____
ROOT
ATOM      1  C   UNL     1       3.072   3.300  19.832  0.00  0.00    +0.000 A 
ATOM      2  C   UNL     1       1.738   3.688  20.061  0.00  0.00    +0.000 A 
ATOM      3  C   UNL     1       1.358   5.056  20.124  0.00  0.00    +0.000 A 
ATOM      4  C   UNL     1       2.305   6.049  19.909  0.00  0.00    +0.000 A 
ATOM      5  C   UNL     1       3.628   5.646  19.661  0.00  0.00    +0.000 A 
ATOM      6  C   UNL     1       4.015   4.302  19.598  0.00  0.00    +0.000 A 
ENDROOT
BRANCH   4   7
ATOM      7  N   UNL     1       2.012   7.437  19.821  0.00  0.00    +0.000 N 
ATOM      8  C   UNL     1       2.244   8.100  18.561  0.00  0.00    +0.000 C 
ATOM      9  C   UNL     1       1.241   9.181  18.633  0.00  0.00    +0.000 A 
ATOM     10  C   UNL     1       0.219   9.485  17.749  0.00  0.00    +0.000 A 
ATOM     11  C   UNL     1      -0.785  10.361  18.171  0.00  0.00    +0.000 A 
ATOM     12 CL   UNL     1      -2.165  10.536  17.151  0.00  0.00    +0.000 Cl
ATOM     13  C   UNL     1      -0.633  11.071  19.378  0.00  0.00    +0.000 A 
ATOM     14 CL   UNL     1      -1.695  12.382  19.767  0.00  0.00    +0.000 Cl
ATOM     15  C   UNL     1       0.452  10.770  20.233  0.00  0.00    +0.000 A 
ATOM     16  C   UNL     1       1.318  11.954  20.680  0.00  0.00    +0.000 C 
ATOM     17  C   UNL     1       1.177   9.613  19.939  0.00  0.00    +0.000 A 
ATOM     18  C   UNL     1       1.355   8.318  20.701  0.00  0.00    +0.000 C 
ATOM     19  O   UNL     1       0.912   8.109  21.827  0.00  0.00    +0.000 OA
ENDBRANCH   4   7
BRANCH   1  21
ATOM     20  C   UNL     1       3.612   1.299  18.589  0.00  0.00    +0.000 C 
ATOM     21  O   UNL     1       3.528   2.016  19.811  0.00  0.00    +0.000 OA
ENDBRANCH   1  21
BRANCH   6  22
ATOM     22  O   UNL     1       5.357   4.156  19.364  0.00  0.00    +0.000 OA
BRANCH  22  23
ATOM     23  C   UNL     1       6.178   5.333  19.296  0.00  0.00    +0.000 C 
BRANCH  23  24
ATOM     24  C   UNL     1       6.991   5.246  17.986  0.00  0.00    +0.000 C 
BRANCH  24  25
ATOM     25  N   UNL     1       6.680   6.215  16.917  0.00  0.00    +0.000 NA
ATOM     26  C   UNL     1       5.257   6.147  16.535  0.00  0.00    +0.000 C 
ATOM     27  C   UNL     1       4.906   4.905  15.707  0.00  0.00    +0.000 C 
ATOM     28  C   UNL     1       5.754   4.845  14.435  0.00  0.00    +0.000 C 
ATOM     29  C   UNL     1       5.482   3.561  13.654  0.00  0.00    +0.000 C 
ATOM     30  C   UNL     1       7.244   4.974  14.781  0.00  0.00    +0.000 C 
ATOM     31  C   UNL     1       7.531   6.148  15.724  0.00  0.00    +0.000 C 
ENDBRANCH  24  25
ENDBRANCH  23  24
ENDBRANCH  22  23
ENDBRANCH   6  22
TORSDOF 6
ENDMDL
MODEL 4
REMARK VINA RESULT:      -8.0      3.728      8.641
REMARK  Name = 
REMARK  9 active torsions:
REMARK  status: ('A' for Active; 'I' for Inactive)
REMARK    1  A    between atoms: C_1  and  O_2
REMARK    2  A    between atoms: O_2  and  C_3
REMARK    3  A    between atoms: C_6  and  N_7
REMARK    4  A    between atoms: C_15  and  C_16
REMARK    5  A    between atoms: C_21  and  O_22
REMARK    6  A    between atoms: O_22  and  C_23
REMARK    7  A    between atoms: C_23  and  C_24
REMARK    8  A    between atoms: C_24  and  N_25
REMARK    9  A    between atoms: C_28  and  C_29
REMARK                            x       y       z     vdW  Elec       q    Type
REMARK                         _______ _______ _______ _____ _____    ______ ____
ROOT
ATOM      1  C   UNL     1       2.412   4.079  19.587  0.00  0.00    +0.000 A 
ATOM      2  C   UNL     1       1.820   4.625  20.741  0.00  0.00    +0.000 A 
ATOM      3  C   UNL     1       1.597   6.022  20.878  0.00  0.00    +0.000 A 
ATOM      4  C   UNL     1       1.924   6.881  19.837  0.00  0.00    +0.000 A 
ATOM      5  C   UNL     1       2.496   6.319  18.683  0.00  0.00    +0.000 A 
ATOM      6  C   UNL     1       2.721   4.945  18.537  0.00  0.00    +0.000 A 
ENDROOT
BRANCH   4   7
ATOM      7  N   UNL     1       1.627   8.271  19.815  0.00  0.00    +0.000 N 
ATOM      8  C   UNL     1       1.591   8.937  18.536  0.00  0.00    +0.000 C 
ATOM      9  C   UNL     1       0.632  10.023  18.821  0.00  0.00    +0.000 A 
ATOM     10  C   UNL     1      -0.553  10.335  18.174  0.00  0.00    +0.000 A 
ATOM     11  C   UNL     1      -1.438  11.215  18.801  0.00  0.00    +0.000 A 
ATOM     12 CL   UNL     1      -3.002  11.401  18.097  0.00  0.00    +0.000 Cl
ATOM     13  C   UNL     1      -1.030  11.920  19.949  0.00  0.00    +0.000 A 
ATOM     14 CL   UNL     1      -1.977  13.237  20.557  0.00  0.00    +0.000 Cl
ATOM     15  C   UNL     1       0.210  11.611  20.554  0.00  0.00    +0.000 A 
ATOM     16  C   UNL     1       1.158  12.789  20.809  0.00  0.00    +0.000 C 
ATOM     17  C   UNL     1       0.850  10.451  20.111  0.00  0.00    +0.000 A 
ATOM     18  C   UNL     1       1.177   9.153  20.816  0.00  0.00    +0.000 C 
ATOM     19  O   UNL     1       0.982   8.943  22.010  0.00  0.00    +0.000 OA
ENDBRANCH   4   7
BRANCH   1  21
ATOM     20  C   UNL     1       1.685   1.825  19.106  0.00  0.00    +0.000 C 
ATOM     21  O   UNL     1       2.710   2.763  19.400  0.00  0.00    +0.000 OA
ENDBRANCH   1  21
BRANCH   6  22
ATOM     22  O   UNL     1       3.306   4.638  17.337  0.00  0.00    +0.000 OA
BRANCH  22  23
ATOM     23  C   UNL     1       4.395   3.701  17.319  0.00  0.00    +0.000 C 
BRANCH  23  24
ATOM     24  C   UNL     1       5.561   4.342  18.102  0.00  0.00    +0.000 C 
BRANCH  24  25
ATOM     25  N   UNL     1       6.863   4.466  17.419  0.00  0.00    +0.000 NA
ATOM     26  C   UNL     1       7.915   4.906  18.354  0.00  0.00    +0.000 C 
ATOM     27  C   UNL     1       7.813   6.388  18.734  0.00  0.00    +0.000 C 
ATOM     28  C   UNL     1       7.871   7.273  17.487  0.00  0.00    +0.000 C 
ATOM     29  C   UNL     1       7.670   8.743  17.847  0.00  0.00    +0.000 C 
ATOM     30  C   UNL     1       6.830   6.810  16.457  0.00  0.00    +0.000 C 
ATOM     31  C   UNL     1       6.876   5.298  16.211  0.00  0.00    +0.000 C 
ENDBRANCH  24  25
ENDBRANCH  23  24
ENDBRANCH  22  23
ENDBRANCH   6  22
TORSDOF 6
ENDMDL
MODEL 5
REMARK VINA RESULT:      -8.0      3.607      8.488
REMARK  Name = 
REMARK  9 active torsions:
REMARK  status: ('A' for Active; 'I' for Inactive)
REMARK    1  A    between atoms: C_1  and  O_2
REMARK    2  A    between atoms: O_2  and  C_3
REMARK    3  A    between atoms: C_6  and  N_7
REMARK    4  A    between atoms: C_15  and  C_16
REMARK    5  A    between atoms: C_21  and  O_22
REMARK    6  A    between atoms: O_22  and  C_23
REMARK    7  A    between atoms: C_23  and  C_24
REMARK    8  A    between atoms: C_24  and  N_25
REMARK    9  A    between atoms: C_28  and  C_29
REMARK                            x       y       z     vdW  Elec       q    Type
REMARK                         _______ _______ _______ _____ _____    ______ ____
ROOT
ATOM      1  C   UNL     1       2.694   3.811  19.778  0.00  0.00    +0.000 A 
ATOM      2  C   UNL     1       2.305   4.450  20.970  0.00  0.00    +0.000 A 
ATOM      3  C   UNL     1       2.043   5.847  21.019  0.00  0.00    +0.000 A 
ATOM      4  C   UNL     1       2.122   6.607  19.859  0.00  0.00    +0.000 A 
ATOM      5  C   UNL     1       2.492   5.951  18.673  0.00  0.00    +0.000 A 
ATOM      6  C   UNL     1       2.753   4.577  18.612  0.00  0.00    +0.000 A 
ENDROOT
BRANCH   4   7
ATOM      7  N   UNL     1       1.757   7.978  19.768  0.00  0.00    +0.000 N 
ATOM      8  C   UNL     1       1.845   8.618  18.479  0.00  0.00    +0.000 C 
ATOM      9  C   UNL     1       0.803   9.655  18.617  0.00  0.00    +0.000 A 
ATOM     10  C   UNL     1      -0.307   9.889  17.822  0.00  0.00    +0.000 A 
ATOM     11  C   UNL     1      -1.309  10.730  18.314  0.00  0.00    +0.000 A 
ATOM     12 CL   UNL     1      -2.781  10.817  17.418  0.00  0.00    +0.000 Cl
ATOM     13  C   UNL     1      -1.084  11.476  19.486  0.00  0.00    +0.000 A 
ATOM     14 CL   UNL     1      -2.168  12.749  19.941  0.00  0.00    +0.000 Cl
ATOM     15  C   UNL     1       0.085  11.247  20.247  0.00  0.00    +0.000 A 
ATOM     16  C   UNL     1       0.931  12.480  20.588  0.00  0.00    +0.000 C 
ATOM     17  C   UNL     1       0.835  10.117  19.914  0.00  0.00    +0.000 A 
ATOM     18  C   UNL     1       1.140   8.851  20.685  0.00  0.00    +0.000 C 
ATOM     19  O   UNL     1       0.810   8.651  21.850  0.00  0.00    +0.000 OA
ENDBRANCH   4   7
BRANCH   1  21
ATOM     20  C   UNL     1       4.261   2.007  20.138  0.00  0.00    +0.000 C 
ATOM     21  O   UNL     1       3.016   2.492  19.658  0.00  0.00    +0.000 OA
ENDBRANCH   1  21
BRANCH   6  22
ATOM     22  O   UNL     1       3.114   4.170  17.355  0.00  0.00    +0.000 OA
BRANCH  22  23
ATOM     23  C   UNL     1       4.488   3.836  17.105  0.00  0.00    +0.000 C 
BRANCH  23  24
ATOM     24  C   UNL     1       4.782   4.186  15.630  0.00  0.00    +0.000 C 
BRANCH  24  25
ATOM     25  N   UNL     1       5.660   5.340  15.359  0.00  0.00    +0.000 NA
ATOM     26  C   UNL     1       7.082   4.960  15.451  0.00  0.00    +0.000 C 
ATOM     27  C   UNL     1       7.566   4.750  16.891  0.00  0.00    +0.000 C 
ATOM     28  C   UNL     1       7.344   6.014  17.726  0.00  0.00    +0.000 C 
ATOM     29  C   UNL     1       7.731   5.781  19.186  0.00  0.00    +0.000 C 
ATOM     30  C   UNL     1       5.887   6.482  17.610  0.00  0.00    +0.000 C 
ATOM     31  C   UNL     1       5.402   6.543  16.157  0.00  0.00    +0.000 C 
ENDBRANCH  24  25
ENDBRANCH  23  24
ENDBRANCH  22  23
ENDBRANCH   6  22
TORSDOF 6
ENDMDL
MODEL 6
REMARK VINA RESULT:      -7.8      2.600      3.931
REMARK  Name = 
REMARK  9 active torsions:
REMARK  status: ('A' for Active; 'I' for Inactive)
REMARK    1  A    between atoms: C_1  and  O_2
REMARK    2  A    between atoms: O_2  and  C_3
REMARK    3  A    between atoms: C_6  and  N_7
REMARK    4  A    between atoms: C_15  and  C_16
REMARK    5  A    between atoms: C_21  and  O_22
REMARK    6  A    between atoms: O_22  and  C_23
REMARK    7  A    between atoms: C_23  and  C_24
REMARK    8  A    between atoms: C_24  and  N_25
REMARK    9  A    between atoms: C_28  and  C_29
REMARK                            x       y       z     vdW  Elec       q    Type
REMARK                         _______ _______ _______ _____ _____    ______ ____
ROOT
ATOM      1  C   UNL     1      -1.218  12.119  20.116  0.00  0.00    +0.000 A 
ATOM      2  C   UNL     1      -0.234  11.864  21.089  0.00  0.00    +0.000 A 
ATOM      3  C   UNL     1       0.636  10.744  20.997  0.00  0.00    +0.000 A 
ATOM      4  C   UNL     1       0.559   9.895  19.901  0.00  0.00    +0.000 A 
ATOM      5  C   UNL     1      -0.415  10.174  18.927  0.00  0.00    +0.000 A 
ATOM      6  C   UNL     1      -1.278  11.273  19.007  0.00  0.00    +0.000 A 
ENDROOT
BRANCH   4   7
ATOM      7  N   UNL     1       1.461   8.826  19.644  0.00  0.00    +0.000 N 
ATOM      8  C   UNL     1       1.775   7.929  20.729  0.00  0.00    +0.000 C 
ATOM      9  C   UNL     1       2.081   6.693  19.981  0.00  0.00    +0.000 A 
ATOM     10  C   UNL     1       1.511   5.436  20.099  0.00  0.00    +0.000 A 
ATOM     11  C   UNL     1       1.750   4.502  19.088  0.00  0.00    +0.000 A 
ATOM     12 CL   UNL     1       0.843   3.035  19.133  0.00  0.00    +0.000 Cl
ATOM     13  C   UNL     1       2.714   4.772  18.098  0.00  0.00    +0.000 A 
ATOM     14 CL   UNL     1       3.253   3.521  17.028  0.00  0.00    +0.000 Cl
ATOM     15  C   UNL     1       3.313   6.051  18.037  0.00  0.00    +0.000 A 
ATOM     16  C   UNL     1       4.846   6.087  18.014  0.00  0.00    +0.000 C 
ATOM     17  C   UNL     1       2.733   7.051  18.822  0.00  0.00    +0.000 A 
ATOM     18  C   UNL     1       2.019   8.333  18.450  0.00  0.00    +0.000 C 
ATOM     19  O   UNL     1       1.908   8.757  17.303  0.00  0.00    +0.000 OA
ENDBRANCH   4   7
BRANCH   1  21
ATOM     20  C   UNL     1      -3.182  13.121  21.105  0.00  0.00    +0.000 C 
ATOM     21  O   UNL     1      -2.125  13.135  20.157  0.00  0.00    +0.000 OA
ENDBRANCH   1  21
BRANCH   6  22
ATOM     22  O   UNL     1      -2.153  11.326  17.954  0.00  0.00    +0.000 OA
BRANCH  22  23
ATOM     23  C   UNL     1      -3.452  10.733  18.105  0.00  0.00    +0.000 C 
BRANCH  23  24
ATOM     24  C   UNL     1      -4.481  11.738  17.543  0.00  0.00    +0.000 C 
BRANCH  24  25
ATOM     25  N   UNL     1      -5.902  11.337  17.536  0.00  0.00    +0.000 NA
ATOM     26  C   UNL     1      -6.781  12.500  17.315  0.00  0.00    +0.000 C 
ATOM     27  C   UNL     1      -6.899  13.419  18.537  0.00  0.00    +0.000 C 
ATOM     28  C   UNL     1      -7.416  12.642  19.750  0.00  0.00    +0.000 C 
ATOM     29  C   UNL     1      -7.442  13.525  20.996  0.00  0.00    +0.000 C 
ATOM     30  C   UNL     1      -6.564  11.386  19.982  0.00  0.00    +0.000 C 
ATOM     31  C   UNL     1      -6.357  10.571  18.701  0.00  0.00    +0.000 C 
ENDBRANCH  24  25
ENDBRANCH  23  24
ENDBRANCH  22  23
ENDBRANCH   6  22
TORSDOF 6
ENDMDL
MODEL 7
REMARK VINA RESULT:      -7.7      2.811      4.927
REMARK  Name = 
REMARK  9 active torsions:
REMARK  status: ('A' for Active; 'I' for Inactive)
REMARK    1  A    between atoms: C_1  and  O_2
REMARK    2  A    between atoms: O_2  and  C_3
REMARK    3  A    between atoms: C_6  and  N_7
REMARK    4  A    between atoms: C_15  and  C_16
REMARK    5  A    between atoms: C_21  and  O_22
REMARK    6  A    between atoms: O_22  and  C_23
REMARK    7  A    between atoms: C_23  and  C_24
REMARK    8  A    between atoms: C_24  and  N_25
REMARK    9  A    between atoms: C_28  and  C_29
REMARK                            x       y       z     vdW  Elec       q    Type
REMARK                         _______ _______ _______ _____ _____    ______ ____
ROOT
ATOM      1  C   UNL     1      -0.871  11.733  19.795  0.00  0.00    +0.000 A 
ATOM      2  C   UNL     1      -0.622  11.072  18.578  0.00  0.00    +0.000 A 
ATOM      3  C   UNL     1       0.278   9.976  18.492  0.00  0.00    +0.000 A 
ATOM      4  C   UNL     1       0.901   9.499  19.639  0.00  0.00    +0.000 A 
ATOM      5  C   UNL     1       0.627  10.157  20.850  0.00  0.00    +0.000 A 
ATOM      6  C   UNL     1      -0.256  11.238  20.947  0.00  0.00    +0.000 A 
ENDROOT
BRANCH   4   7
ATOM      7  N   UNL     1       1.714   8.335  19.690  0.00  0.00    +0.000 N 
ATOM      8  C   UNL     1       1.607   7.484  20.849  0.00  0.00    +0.000 C 
ATOM      9  C   UNL     1       1.974   6.178  20.264  0.00  0.00    +0.000 A 
ATOM     10  C   UNL     1       1.258   4.992  20.257  0.00  0.00    +0.000 A 
ATOM     11  C   UNL     1       1.669   3.976  19.390  0.00  0.00    +0.000 A 
ATOM     12 CL   UNL     1       0.629   2.610  19.222  0.00  0.00    +0.000 Cl
ATOM     13  C   UNL     1       2.897   4.088  18.711  0.00  0.00    +0.000 A 
ATOM     14 CL   UNL     1       3.574   2.723  17.886  0.00  0.00    +0.000 Cl
ATOM     15  C   UNL     1       3.626   5.296  18.782  0.00  0.00    +0.000 A 
ATOM     16  C   UNL     1       5.098   5.183  19.201  0.00  0.00    +0.000 C 
ATOM     17  C   UNL     1       2.963   6.396  19.331  0.00  0.00    +0.000 A 
ATOM     18  C   UNL     1       2.530   7.713  18.725  0.00  0.00    +0.000 C 
ATOM     19  O   UNL     1       2.796   8.071  17.581  0.00  0.00    +0.000 OA
ENDBRANCH   4   7
BRANCH   1  21
ATOM     20  C   UNL     1      -1.113  14.122  20.067  0.00  0.00    +0.000 C 
ATOM     21  O   UNL     1      -1.673  12.823  19.952  0.00  0.00    +0.000 OA
ENDBRANCH   1  21
BRANCH   6  22
ATOM     22  O   UNL     1      -0.346  11.725  22.224  0.00  0.00    +0.000 OA
BRANCH  22  23
ATOM     23  C   UNL     1      -1.337  11.173  23.106  0.00  0.00    +0.000 C 
BRANCH  23  24
ATOM     24  C   UNL     1      -2.599  12.055  22.983  0.00  0.00    +0.000 C 
BRANCH  24  25
ATOM     25  N   UNL     1      -2.967  12.894  24.139  0.00  0.00    +0.000 NA
ATOM     26  C   UNL     1      -4.290  12.517  24.670  0.00  0.00    +0.000 C 
ATOM     27  C   UNL     1      -5.457  12.975  23.786  0.00  0.00    +0.000 C 
ATOM     28  C   UNL     1      -5.425  14.493  23.591  0.00  0.00    +0.000 C 
ATOM     29  C   UNL     1      -6.524  14.945  22.631  0.00  0.00    +0.000 C 
ATOM     30  C   UNL     1      -4.042  14.938  23.096  0.00  0.00    +0.000 C 
ATOM     31  C   UNL     1      -2.899  14.344  23.926  0.00  0.00    +0.000 C 
ENDBRANCH  24  25
ENDBRANCH  23  24
ENDBRANCH  22  23
ENDBRANCH   6  22
TORSDOF 6
ENDMDL
MODEL 8
REMARK VINA RESULT:      -7.7      3.689      8.647
REMARK  Name = 
REMARK  9 active torsions:
REMARK  status: ('A' for Active; 'I' for Inactive)
REMARK    1  A    between atoms: C_1  and  O_2
REMARK    2  A    between atoms: O_2  and  C_3
REMARK    3  A    between atoms: C_6  and  N_7
REMARK    4  A    between atoms: C_15  and  C_16
REMARK    5  A    between atoms: C_21  and  O_22
REMARK    6  A    between atoms: O_22  and  C_23
REMARK    7  A    between atoms: C_23  and  C_24
REMARK    8  A    between atoms: C_24  and  N_25
REMARK    9  A    between atoms: C_28  and  C_29
REMARK                            x       y       z     vdW  Elec       q    Type
REMARK                         _______ _______ _______ _____ _____    ______ ____
ROOT
ATOM      1  C   UNL     1       2.833   4.314  19.724  0.00  0.00    +0.000 A 
ATOM      2  C   UNL     1       1.896   4.696  20.702  0.00  0.00    +0.000 A 
ATOM      3  C   UNL     1       1.491   6.049  20.862  0.00  0.00    +0.000 A 
ATOM      4  C   UNL     1       1.986   7.026  20.008  0.00  0.00    +0.000 A 
ATOM      5  C   UNL     1       2.905   6.626  19.023  0.00  0.00    +0.000 A 
ATOM      6  C   UNL     1       3.313   5.297  18.857  0.00  0.00    +0.000 A 
ENDROOT
BRANCH   4   7
ATOM      7  N   UNL     1       1.552   8.379  19.994  0.00  0.00    +0.000 N 
ATOM      8  C   UNL     1       1.570   9.084  18.735  0.00  0.00    +0.000 C 
ATOM      9  C   UNL     1       0.482  10.059  18.954  0.00  0.00    +0.000 A 
ATOM     10  C   UNL     1      -0.661  10.275  18.203  0.00  0.00    +0.000 A 
ATOM     11  C   UNL     1      -1.687  11.041  18.764  0.00  0.00    +0.000 A 
ATOM     12 CL   UNL     1      -3.189  11.096  17.915  0.00  0.00    +0.000 Cl
ATOM     13  C   UNL     1      -1.463  11.741  19.964  0.00  0.00    +0.000 A 
ATOM     14 CL   UNL     1      -2.593  12.935  20.511  0.00  0.00    +0.000 Cl
ATOM     15  C   UNL     1      -0.261  11.535  20.679  0.00  0.00    +0.000 A 
ATOM     16  C   UNL     1       0.534  12.790  21.056  0.00  0.00    +0.000 C 
ATOM     17  C   UNL     1       0.533  10.460  20.270  0.00  0.00    +0.000 A 
ATOM     18  C   UNL     1       0.922   9.176  20.969  0.00  0.00    +0.000 C 
ATOM     19  O   UNL     1       0.638   8.905  22.132  0.00  0.00    +0.000 OA
ENDBRANCH   4   7
BRANCH   1  21
ATOM     20  C   UNL     1       2.468   2.018  19.065  0.00  0.00    +0.000 C 
ATOM     21  O   UNL     1       3.315   3.053  19.542  0.00  0.00    +0.000 OA
ENDBRANCH   1  21
BRANCH   6  22
ATOM     22  O   UNL     1       4.228   5.155  17.847  0.00  0.00    +0.000 OA
BRANCH  22  23
ATOM     23  C   UNL     1       4.427   6.248  16.936  0.00  0.00    +0.000 C 
BRANCH  23  24
ATOM     24  C   UNL     1       5.255   5.708  15.750  0.00  0.00    +0.000 C 
BRANCH  24  25
ATOM     25  N   UNL     1       6.704   5.988  15.737  0.00  0.00    +0.000 NA
ATOM     26  C   UNL     1       7.479   4.799  16.136  0.00  0.00    +0.000 C 
ATOM     27  C   UNL     1       7.406   4.497  17.638  0.00  0.00    +0.000 C 
ATOM     28  C   UNL     1       7.897   5.695  18.455  0.00  0.00    +0.000 C 
ATOM     29  C   UNL     1       7.735   5.441  19.952  0.00  0.00    +0.000 C 
ATOM     30  C   UNL     1       7.158   6.971  18.029  0.00  0.00    +0.000 C 
ATOM     31  C   UNL     1       7.136   7.159  16.508  0.00  0.00    +0.000 C 
ENDBRANCH  24  25
ENDBRANCH  23  24
ENDBRANCH  22  23
ENDBRANCH   6  22
TORSDOF 6
ENDMDL
MODEL 9
REMARK VINA RESULT:      -7.7      4.533      8.907
REMARK  Name = 
REMARK  9 active torsions:
REMARK  status: ('A' for Active; 'I' for Inactive)
REMARK    1  A    between atoms: C_1  and  O_2
REMARK    2  A    between atoms: O_2  and  C_3
REMARK    3  A    between atoms: C_6  and  N_7
REMARK    4  A    between atoms: C_15  and  C_16
REMARK    5  A    between atoms: C_21  and  O_22
REMARK    6  A    between atoms: O_22  and  C_23
REMARK    7  A    between atoms: C_23  and  C_24
REMARK    8  A    between atoms: C_24  and  N_25
REMARK    9  A    between atoms: C_28  and  C_29
REMARK                            x       y       z     vdW  Elec       q    Type
REMARK                         _______ _______ _______ _____ _____    ______ ____
ROOT
ATOM      1  C   UNL     1       2.122   8.111  18.523  0.00  0.00    +0.000 A 
ATOM      2  C   UNL     1       1.748   9.284  17.840  0.00  0.00    +0.000 A 
ATOM      3  C   UNL     1       0.989  10.307  18.471  0.00  0.00    +0.000 A 
ATOM      4  C   UNL     1       0.638  10.184  19.809  0.00  0.00    +0.000 A 
ATOM      5  C   UNL     1       1.035   9.016  20.483  0.00  0.00    +0.000 A 
ATOM      6  C   UNL     1       1.782   8.002  19.872  0.00  0.00    +0.000 A 
ENDROOT
BRANCH   4   7
ATOM      7  N   UNL     1      -0.004  11.198  20.570  0.00  0.00    +0.000 N 
ATOM      8  C   UNL     1      -0.678  12.256  19.858  0.00  0.00    +0.000 C 
ATOM      9  C   UNL     1      -1.719  12.625  20.837  0.00  0.00    +0.000 A 
ATOM     10  C   UNL     1      -3.095  12.661  20.679  0.00  0.00    +0.000 A 
ATOM     11  C   UNL     1      -3.892  12.750  21.823  0.00  0.00    +0.000 A 
ATOM     12 CL   UNL     1      -5.594  12.551  21.621  0.00  0.00    +0.000 Cl
ATOM     13  C   UNL     1      -3.297  13.011  23.072  0.00  0.00    +0.000 A 
ATOM     14 CL   UNL     1      -4.273  13.436  24.440  0.00  0.00    +0.000 Cl
ATOM     15  C   UNL     1      -1.889  13.017  23.188  0.00  0.00    +0.000 A 
ATOM     16  C   UNL     1      -1.262  14.255  23.840  0.00  0.00    +0.000 C 
ATOM     17  C   UNL     1      -1.170  12.524  22.096  0.00  0.00    +0.000 A 
ATOM     18  C   UNL     1      -0.277  11.311  21.947  0.00  0.00    +0.000 C 
ATOM     19  O   UNL     1       0.038  10.564  22.868  0.00  0.00    +0.000 OA
ENDBRANCH   4   7
BRANCH   1  21
ATOM     20  C   UNL     1       4.172   7.187  17.637  0.00  0.00    +0.000 C 
ATOM     21  O   UNL     1       2.799   7.062  17.977  0.00  0.00    +0.000 OA
ENDBRANCH   1  21
BRANCH   6  22
ATOM     22  O   UNL     1       2.032   6.956  20.721  0.00  0.00    +0.000 OA
BRANCH  22  23
ATOM     23  C   UNL     1       1.305   5.730  20.540  0.00  0.00    +0.000 C 
BRANCH  23  24
ATOM     24  C   UNL     1       2.271   4.573  20.875  0.00  0.00    +0.000 C 
BRANCH  24  25
ATOM     25  N   UNL     1       2.062   3.282  20.191  0.00  0.00    +0.000 NA
ATOM     26  C   UNL     1       3.327   2.536  20.065  0.00  0.00    +0.000 C 
ATOM     27  C   UNL     1       4.271   3.108  19.000  0.00  0.00    +0.000 C 
ATOM     28  C   UNL     1       3.586   3.141  17.632  0.00  0.00    +0.000 C 
ATOM     29  C   UNL     1       4.482   3.801  16.586  0.00  0.00    +0.000 C 
ATOM     30  C   UNL     1       2.232   3.857  17.729  0.00  0.00    +0.000 C 
ATOM     31  C   UNL     1       1.378   3.347  18.895  0.00  0.00    +0.000 C 
ENDBRANCH  24  25
ENDBRANCH  23  24
ENDBRANCH  22  23
ENDBRANCH   6  22
TORSDOF 6
ENDMDL
