MODEL 1
REMARK VINA RESULT:      -8.5      0.000      0.000
REMARK  Name = 
REMARK  3 active torsions:
REMARK  status: ('A' for Active; 'I' for Inactive)
REMARK    1  A    between atoms: C_2  and  C_3
REMARK    2  A    between atoms: C_2  and  C_9
REMARK    3  A    between atoms: C_12  and  C_13
REMARK                            x       y       z     vdW  Elec       q    Type
REMARK                         _______ _______ _______ _____ _____    ______ ____
ROOT
ATOM      1  C   UNL     1       5.651   5.173  16.752  0.00  0.00    +0.000 A 
ATOM      2  N   UNL     1       5.136   6.388  16.728  0.00  0.00    +0.000 NA
ATOM      3  N   UNL     1       3.932   6.317  17.380  0.00  0.00    +0.000 NA
ATOM      4  C   UNL     1       3.792   5.068  17.782  0.00  0.00    +0.000 A 
ATOM      5  O   UNL     1       4.858   4.280  17.428  0.00  0.00    +0.000 OA
ENDROOT
BRANCH   4   6
ATOM      6  C   UNL     1       2.706   4.480  18.547  0.00  0.00    +0.000 A 
ATOM      7  C   UNL     1       2.329   5.085  19.760  0.00  0.00    +0.000 A 
ATOM      8  C   UNL     1       1.344   4.518  20.572  0.00  0.00    +0.000 A 
ATOM      9  C   UNL     1       0.713   3.342  20.179  0.00  0.00    +0.000 A 
ATOM     10  C   UNL     1       1.052   2.748  18.963  0.00  0.00    +0.000 A 
ATOM     11  C   UNL     1       2.036   3.320  18.156  0.00  0.00    +0.000 A 
ATOM     12  F   UNL     1       2.322   2.713  16.996  0.00  0.00    +0.000 F 
ENDBRANCH   4   6
BRANCH   1  14
ATOM     13  O   UNL     1       7.930   4.526  16.739  0.00  0.00    +0.000 OA
ATOM     14  C   UNL     1       6.886   4.755  16.131  0.00  0.00    +0.000 C 
BRANCH  14  15
ATOM     15  C   UNL     1       6.886   4.581  14.649  0.00  0.00    +0.000 A 
ATOM     16  C   UNL     1       7.751   5.326  13.828  0.00  0.00    +0.000 A 
ATOM     17  C   UNL     1       7.751   5.131  12.449  0.00  0.00    +0.000 A 
ATOM     18  C   UNL     1       6.879   4.208  11.876  0.00  0.00    +0.000 A 
ATOM     19  C   UNL     1       5.999   3.482  12.681  0.00  0.00    +0.000 A 
ATOM     20  C   UNL     1       5.996   3.669  14.066  0.00  0.00    +0.000 A 
ENDBRANCH  14  15
ENDBRANCH   1  14
TORSDOF 3
ENDMDL
MODEL 2
REMARK VINA RESULT:      -8.4      1.300      1.678
REMARK  Name = 
REMARK  3 active torsions:
REMARK  status: ('A' for Active; 'I' for Inactive)
REMARK    1  A    between atoms: C_2  and  C_3
REMARK    2  A    between atoms: C_2  and  C_9
REMARK    3  A    between atoms: C_12  and  C_13
REMARK                            x       y       z     vdW  Elec       q    Type
REMARK                         _______ _______ _______ _____ _____    ______ ____
ROOT
ATOM      1  C   UNL     1       6.191   4.940  17.274  0.00  0.00    +0.000 A 
ATOM      2  N   UNL     1       6.770   4.395  18.327  0.00  0.00    +0.000 NA
ATOM      3  N   UNL     1       5.762   3.973  19.155  0.00  0.00    +0.000 NA
ATOM      4  C   UNL     1       4.627   4.265  18.549  0.00  0.00    +0.000 A 
ATOM      5  O   UNL     1       4.821   4.874  17.336  0.00  0.00    +0.000 OA
ENDROOT
BRANCH   4   6
ATOM      6  C   UNL     1       3.270   3.994  18.992  0.00  0.00    +0.000 A 
ATOM      7  C   UNL     1       2.734   4.765  20.040  0.00  0.00    +0.000 A 
ATOM      8  C   UNL     1       1.464   4.495  20.555  0.00  0.00    +0.000 A 
ATOM      9  C   UNL     1       0.705   3.457  20.022  0.00  0.00    +0.000 A 
ATOM     10  C   UNL     1       1.209   2.705  18.960  0.00  0.00    +0.000 A 
ATOM     11  C   UNL     1       2.478   2.980  18.450  0.00  0.00    +0.000 A 
ATOM     12  F   UNL     1       2.915   2.232  17.428  0.00  0.00    +0.000 F 
ENDBRANCH   4   6
BRANCH   1  14
ATOM     13  O   UNL     1       7.542   6.596  16.251  0.00  0.00    +0.000 OA
ATOM     14  C   UNL     1       6.859   5.578  16.164  0.00  0.00    +0.000 C 
BRANCH  14  15
ATOM     15  C   UNL     1       6.713   4.945  14.819  0.00  0.00    +0.000 A 
ATOM     16  C   UNL     1       5.673   4.039  14.549  0.00  0.00    +0.000 A 
ATOM     17  C   UNL     1       5.542   3.478  13.281  0.00  0.00    +0.000 A 
ATOM     18  C   UNL     1       6.455   3.801  12.279  0.00  0.00    +0.000 A 
ATOM     19  C   UNL     1       7.507   4.680  12.546  0.00  0.00    +0.000 A 
ATOM     20  C   UNL     1       7.641   5.249  13.815  0.00  0.00    +0.000 A 
ENDBRANCH  14  15
ENDBRANCH   1  14
TORSDOF 3
ENDMDL
MODEL 3
REMARK VINA RESULT:      -8.3      1.304      1.308
REMARK  Name = 
REMARK  3 active torsions:
REMARK  status: ('A' for Active; 'I' for Inactive)
REMARK    1  A    between atoms: C_2  and  C_3
REMARK    2  A    between atoms: C_2  and  C_9
REMARK    3  A    between atoms: C_12  and  C_13
REMARK                            x       y       z     vdW  Elec       q    Type
REMARK                         _______ _______ _______ _____ _____    ______ ____
ROOT
ATOM      1  C   UNL     1       6.184   4.930  17.273  0.00  0.00    +0.000 A 
ATOM      2  N   UNL     1       6.760   4.377  18.323  0.00  0.00    +0.000 NA
ATOM      3  N   UNL     1       5.748   3.947  19.144  0.00  0.00    +0.000 NA
ATOM      4  C   UNL     1       4.616   4.244  18.535  0.00  0.00    +0.000 A 
ATOM      5  O   UNL     1       4.815   4.862  17.328  0.00  0.00    +0.000 OA
ENDROOT
BRANCH   4   6
ATOM      6  C   UNL     1       3.257   3.968  18.969  0.00  0.00    +0.000 A 
ATOM      7  C   UNL     1       2.708   4.743  20.007  0.00  0.00    +0.000 A 
ATOM      8  C   UNL     1       1.436   4.470  20.514  0.00  0.00    +0.000 A 
ATOM      9  C   UNL     1       0.687   3.423  19.984  0.00  0.00    +0.000 A 
ATOM     10  C   UNL     1       1.203   2.667  18.932  0.00  0.00    +0.000 A 
ATOM     11  C   UNL     1       2.475   2.945  18.430  0.00  0.00    +0.000 A 
ATOM     12  F   UNL     1       2.924   2.192  17.416  0.00  0.00    +0.000 F 
ENDBRANCH   4   6
BRANCH   1  14
ATOM     13  O   UNL     1       7.546   6.591  16.270  0.00  0.00    +0.000 OA
ATOM     14  C   UNL     1       6.857   5.577  16.170  0.00  0.00    +0.000 C 
BRANCH  14  15
ATOM     15  C   UNL     1       6.710   4.961  14.818  0.00  0.00    +0.000 A 
ATOM     16  C   UNL     1       7.616   5.250  13.784  0.00  0.00    +0.000 A 
ATOM     17  C   UNL     1       7.474   4.646  12.537  0.00  0.00    +0.000 A 
ATOM     18  C   UNL     1       6.420   3.765  12.306  0.00  0.00    +0.000 A 
ATOM     19  C   UNL     1       5.500   3.492  13.320  0.00  0.00    +0.000 A 
ATOM     20  C   UNL     1       5.639   4.091  14.575  0.00  0.00    +0.000 A 
ENDBRANCH  14  15
ENDBRANCH   1  14
TORSDOF 3
ENDMDL
MODEL 4
REMARK VINA RESULT:      -8.3      0.788      1.343
REMARK  Name = 
REMARK  3 active torsions:
REMARK  status: ('A' for Active; 'I' for Inactive)
REMARK    1  A    between atoms: C_2  and  C_3
REMARK    2  A    between atoms: C_2  and  C_9
REMARK    3  A    between atoms: C_12  and  C_13
REMARK                            x       y       z     vdW  Elec       q    Type
REMARK                         _______ _______ _______ _____ _____    ______ ____
ROOT
ATOM      1  C   UNL     1       5.626   5.053  16.873  0.00  0.00    +0.000 A 
ATOM      2  N   UNL     1       4.964   6.185  16.729  0.00  0.00    +0.000 NA
ATOM      3  N   UNL     1       3.816   6.065  17.469  0.00  0.00    +0.000 NA
ATOM      4  C   UNL     1       3.855   4.875  18.038  0.00  0.00    +0.000 A 
ATOM      5  O   UNL     1       4.989   4.176  17.714  0.00  0.00    +0.000 OA
ENDROOT
BRANCH   4   6
ATOM      6  C   UNL     1       2.895   4.276  18.948  0.00  0.00    +0.000 A 
ATOM      7  C   UNL     1       3.313   3.943  20.250  0.00  0.00    +0.000 A 
ATOM      8  C   UNL     1       2.453   3.295  21.139  0.00  0.00    +0.000 A 
ATOM      9  C   UNL     1       1.156   2.980  20.745  0.00  0.00    +0.000 A 
ATOM     10  C   UNL     1       0.715   3.334  19.470  0.00  0.00    +0.000 A 
ATOM     11  C   UNL     1       1.579   3.981  18.586  0.00  0.00    +0.000 A 
ATOM     12  F   UNL     1       1.106   4.303  17.374  0.00  0.00    +0.000 F 
ENDBRANCH   4   6
BRANCH   1  14
ATOM     13  O   UNL     1       7.938   4.534  16.810  0.00  0.00    +0.000 OA
ATOM     14  C   UNL     1       6.869   4.700  16.226  0.00  0.00    +0.000 C 
BRANCH  14  15
ATOM     15  C   UNL     1       6.844   4.517  14.745  0.00  0.00    +0.000 A 
ATOM     16  C   UNL     1       5.949   3.620  14.137  0.00  0.00    +0.000 A 
ATOM     17  C   UNL     1       5.926   3.481  12.751  0.00  0.00    +0.000 A 
ATOM     18  C   UNL     1       6.806   4.220  11.963  0.00  0.00    +0.000 A 
ATOM     19  C   UNL     1       7.717   5.094  12.561  0.00  0.00    +0.000 A 
ATOM     20  C   UNL     1       7.742   5.241  13.950  0.00  0.00    +0.000 A 
ENDBRANCH  14  15
ENDBRANCH   1  14
TORSDOF 3
ENDMDL
MODEL 5
REMARK VINA RESULT:      -8.3      1.048      1.501
REMARK  Name = 
REMARK  3 active torsions:
REMARK  status: ('A' for Active; 'I' for Inactive)
REMARK    1  A    between atoms: C_2  and  C_3
REMARK    2  A    between atoms: C_2  and  C_9
REMARK    3  A    between atoms: C_12  and  C_13
REMARK                            x       y       z     vdW  Elec       q    Type
REMARK                         _______ _______ _______ _____ _____    ______ ____
ROOT
ATOM      1  C   UNL     1       5.630   5.082  16.704  0.00  0.00    +0.000 A 
ATOM      2  N   UNL     1       5.057   6.269  16.647  0.00  0.00    +0.000 NA
ATOM      3  N   UNL     1       3.860   6.159  17.307  0.00  0.00    +0.000 NA
ATOM      4  C   UNL     1       3.782   4.916  17.745  0.00  0.00    +0.000 A 
ATOM      5  O   UNL     1       4.883   4.171  17.409  0.00  0.00    +0.000 OA
ENDROOT
BRANCH   4   6
ATOM      6  C   UNL     1       2.729   4.300  18.533  0.00  0.00    +0.000 A 
ATOM      7  C   UNL     1       2.118   3.129  18.046  0.00  0.00    +0.000 A 
ATOM      8  C   UNL     1       1.049   2.539  18.725  0.00  0.00    +0.000 A 
ATOM      9  C   UNL     1       0.581   3.105  19.907  0.00  0.00    +0.000 A 
ATOM     10  C   UNL     1       1.197   4.246  20.420  0.00  0.00    +0.000 A 
ATOM     11  C   UNL     1       2.265   4.830  19.738  0.00  0.00    +0.000 A 
ATOM     12  F   UNL     1       2.825   5.923  20.274  0.00  0.00    +0.000 F 
ENDBRANCH   4   6
BRANCH   1  14
ATOM     13  O   UNL     1       7.926   4.493  16.705  0.00  0.00    +0.000 OA
ATOM     14  C   UNL     1       6.882   4.706  16.090  0.00  0.00    +0.000 C 
BRANCH  14  15
ATOM     15  C   UNL     1       6.903   4.557  14.605  0.00  0.00    +0.000 A 
ATOM     16  C   UNL     1       7.761   5.332  13.807  0.00  0.00    +0.000 A 
ATOM     17  C   UNL     1       7.781   5.161  12.425  0.00  0.00    +0.000 A 
ATOM     18  C   UNL     1       6.934   4.231  11.827  0.00  0.00    +0.000 A 
ATOM     19  C   UNL     1       6.059   3.475  12.610  0.00  0.00    +0.000 A 
ATOM     20  C   UNL     1       6.037   3.639  13.997  0.00  0.00    +0.000 A 
ENDBRANCH  14  15
ENDBRANCH   1  14
TORSDOF 3
ENDMDL
MODEL 6
REMARK VINA RESULT:      -8.2      1.049      1.851
REMARK  Name = 
REMARK  3 active torsions:
REMARK  status: ('A' for Active; 'I' for Inactive)
REMARK    1  A    between atoms: C_2  and  C_3
REMARK    2  A    between atoms: C_2  and  C_9
REMARK    3  A    between atoms: C_12  and  C_13
REMARK                            x       y       z     vdW  Elec       q    Type
REMARK                         _______ _______ _______ _____ _____    ______ ____
ROOT
ATOM      1  C   UNL     1       5.639   5.106  16.699  0.00  0.00    +0.000 A 
ATOM      2  N   UNL     1       5.083   6.302  16.675  0.00  0.00    +0.000 NA
ATOM      3  N   UNL     1       3.888   6.192  17.339  0.00  0.00    +0.000 NA
ATOM      4  C   UNL     1       3.795   4.940  17.747  0.00  0.00    +0.000 A 
ATOM      5  O   UNL     1       4.884   4.188  17.386  0.00  0.00    +0.000 OA
ENDROOT
BRANCH   4   6
ATOM      6  C   UNL     1       2.738   4.319  18.525  0.00  0.00    +0.000 A 
ATOM      7  C   UNL     1       2.108   3.169  18.014  0.00  0.00    +0.000 A 
ATOM      8  C   UNL     1       1.035   2.577  18.684  0.00  0.00    +0.000 A 
ATOM      9  C   UNL     1       0.581   3.121  19.882  0.00  0.00    +0.000 A 
ATOM     10  C   UNL     1       1.216   4.240  20.420  0.00  0.00    +0.000 A 
ATOM     11  C   UNL     1       2.288   4.826  19.745  0.00  0.00    +0.000 A 
ATOM     12  F   UNL     1       2.866   5.898  20.305  0.00  0.00    +0.000 F 
ENDBRANCH   4   6
BRANCH   1  14
ATOM     13  O   UNL     1       7.941   4.542  16.666  0.00  0.00    +0.000 OA
ATOM     14  C   UNL     1       6.883   4.728  16.068  0.00  0.00    +0.000 C 
BRANCH  14  15
ATOM     15  C   UNL     1       6.873   4.542  14.587  0.00  0.00    +0.000 A 
ATOM     16  C   UNL     1       6.004   3.623  13.974  0.00  0.00    +0.000 A 
ATOM     17  C   UNL     1       5.995   3.482  12.588  0.00  0.00    +0.000 A 
ATOM     18  C   UNL     1       6.863   4.240  11.806  0.00  0.00    +0.000 A 
ATOM     19  C   UNL     1       7.749   5.136  12.409  0.00  0.00    +0.000 A 
ATOM     20  C   UNL     1       7.760   5.286  13.798  0.00  0.00    +0.000 A 
ENDBRANCH  14  15
ENDBRANCH   1  14
TORSDOF 3
ENDMDL
MODEL 7
REMARK VINA RESULT:      -8.1      1.220      1.291
REMARK  Name = 
REMARK  3 active torsions:
REMARK  status: ('A' for Active; 'I' for Inactive)
REMARK    1  A    between atoms: C_2  and  C_3
REMARK    2  A    between atoms: C_2  and  C_9
REMARK    3  A    between atoms: C_12  and  C_13
REMARK                            x       y       z     vdW  Elec       q    Type
REMARK                         _______ _______ _______ _____ _____    ______ ____
ROOT
ATOM      1  C   UNL     1       5.675   4.923  16.866  0.00  0.00    +0.000 A 
ATOM      2  N   UNL     1       4.931   6.000  16.700  0.00  0.00    +0.000 NA
ATOM      3  N   UNL     1       3.822   5.836  17.489  0.00  0.00    +0.000 NA
ATOM      4  C   UNL     1       3.964   4.679  18.107  0.00  0.00    +0.000 A 
ATOM      5  O   UNL     1       5.131   4.043  17.769  0.00  0.00    +0.000 OA
ENDROOT
BRANCH   4   6
ATOM      6  C   UNL     1       3.081   4.058  19.080  0.00  0.00    +0.000 A 
ATOM      7  C   UNL     1       1.719   4.411  19.078  0.00  0.00    +0.000 A 
ATOM      8  C   UNL     1       0.843   3.903  20.040  0.00  0.00    +0.000 A 
ATOM      9  C   UNL     1       1.313   3.026  21.013  0.00  0.00    +0.000 A 
ATOM     10  C   UNL     1       2.654   2.640  21.007  0.00  0.00    +0.000 A 
ATOM     11  C   UNL     1       3.523   3.151  20.043  0.00  0.00    +0.000 A 
ATOM     12  F   UNL     1       4.801   2.746  20.079  0.00  0.00    +0.000 F 
ENDBRANCH   4   6
BRANCH   1  14
ATOM     13  O   UNL     1       7.997   4.462  16.747  0.00  0.00    +0.000 OA
ATOM     14  C   UNL     1       6.914   4.625  16.187  0.00  0.00    +0.000 C 
BRANCH  14  15
ATOM     15  C   UNL     1       6.869   4.498  14.700  0.00  0.00    +0.000 A 
ATOM     16  C   UNL     1       7.716   5.260  13.877  0.00  0.00    +0.000 A 
ATOM     17  C   UNL     1       7.674   5.109  12.493  0.00  0.00    +0.000 A 
ATOM     18  C   UNL     1       6.776   4.212  11.919  0.00  0.00    +0.000 A 
ATOM     19  C   UNL     1       5.912   3.470  12.727  0.00  0.00    +0.000 A 
ATOM     20  C   UNL     1       5.953   3.614  14.115  0.00  0.00    +0.000 A 
ENDBRANCH  14  15
ENDBRANCH   1  14
TORSDOF 3
ENDMDL
MODEL 8
REMARK VINA RESULT:      -8.1      1.680      1.992
REMARK  Name = 
REMARK  3 active torsions:
REMARK  status: ('A' for Active; 'I' for Inactive)
REMARK    1  A    between atoms: C_2  and  C_3
REMARK    2  A    between atoms: C_2  and  C_9
REMARK    3  A    between atoms: C_12  and  C_13
REMARK                            x       y       z     vdW  Elec       q    Type
REMARK                         _______ _______ _______ _____ _____    ______ ____
ROOT
ATOM      1  C   UNL     1       6.220   4.899  17.257  0.00  0.00    +0.000 A 
ATOM      2  N   UNL     1       6.808   4.428  18.340  0.00  0.00    +0.000 NA
ATOM      3  N   UNL     1       5.813   3.933  19.144  0.00  0.00    +0.000 NA
ATOM      4  C   UNL     1       4.678   4.112  18.495  0.00  0.00    +0.000 A 
ATOM      5  O   UNL     1       4.860   4.713  17.275  0.00  0.00    +0.000 OA
ENDROOT
BRANCH   4   6
ATOM      6  C   UNL     1       3.336   3.730  18.898  0.00  0.00    +0.000 A 
ATOM      7  C   UNL     1       2.756   2.587  18.319  0.00  0.00    +0.000 A 
ATOM      8  C   UNL     1       1.441   2.219  18.613  0.00  0.00    +0.000 A 
ATOM      9  C   UNL     1       0.689   2.983  19.500  0.00  0.00    +0.000 A 
ATOM     10  C   UNL     1       1.261   4.100  20.109  0.00  0.00    +0.000 A 
ATOM     11  C   UNL     1       2.575   4.462  19.811  0.00  0.00    +0.000 A 
ATOM     12  F   UNL     1       3.079   5.541  20.425  0.00  0.00    +0.000 F 
ENDBRANCH   4   6
BRANCH   1  14
ATOM     13  O   UNL     1       7.527   6.605  16.259  0.00  0.00    +0.000 OA
ATOM     14  C   UNL     1       6.868   5.572  16.156  0.00  0.00    +0.000 C 
BRANCH  14  15
ATOM     15  C   UNL     1       6.731   4.961  14.801  0.00  0.00    +0.000 A 
ATOM     16  C   UNL     1       7.643   5.255  13.773  0.00  0.00    +0.000 A 
ATOM     17  C   UNL     1       7.510   4.656  12.523  0.00  0.00    +0.000 A 
ATOM     18  C   UNL     1       6.459   3.774  12.282  0.00  0.00    +0.000 A 
ATOM     19  C   UNL     1       5.532   3.497  13.289  0.00  0.00    +0.000 A 
ATOM     20  C   UNL     1       5.662   4.091  14.546  0.00  0.00    +0.000 A 
ENDBRANCH  14  15
ENDBRANCH   1  14
TORSDOF 3
ENDMDL
MODEL 9
REMARK VINA RESULT:      -8.0      1.679      2.242
REMARK  Name = 
REMARK  3 active torsions:
REMARK  status: ('A' for Active; 'I' for Inactive)
REMARK    1  A    between atoms: C_2  and  C_3
REMARK    2  A    between atoms: C_2  and  C_9
REMARK    3  A    between atoms: C_12  and  C_13
REMARK                            x       y       z     vdW  Elec       q    Type
REMARK                         _______ _______ _______ _____ _____    ______ ____
ROOT
ATOM      1  C   UNL     1       6.154   4.854  17.277  0.00  0.00    +0.000 A 
ATOM      2  N   UNL     1       6.759   4.361  18.341  0.00  0.00    +0.000 NA
ATOM      3  N   UNL     1       5.775   3.865  19.157  0.00  0.00    +0.000 NA
ATOM      4  C   UNL     1       4.629   4.065  18.534  0.00  0.00    +0.000 A 
ATOM      5  O   UNL     1       4.793   4.682  17.320  0.00  0.00    +0.000 OA
ENDROOT
BRANCH   4   6
ATOM      6  C   UNL     1       3.291   3.691  18.959  0.00  0.00    +0.000 A 
ATOM      7  C   UNL     1       2.778   2.444  18.558  0.00  0.00    +0.000 A 
ATOM      8  C   UNL     1       1.471   2.068  18.873  0.00  0.00    +0.000 A 
ATOM      9  C   UNL     1       0.659   2.929  19.605  0.00  0.00    +0.000 A 
ATOM     10  C   UNL     1       1.163   4.154  20.039  0.00  0.00    +0.000 A 
ATOM     11  C   UNL     1       2.471   4.524  19.721  0.00  0.00    +0.000 A 
ATOM     12  F   UNL     1       2.909   5.710  20.165  0.00  0.00    +0.000 F 
ENDBRANCH   4   6
BRANCH   1  14
ATOM     13  O   UNL     1       7.424   6.584  16.272  0.00  0.00    +0.000 OA
ATOM     14  C   UNL     1       6.786   5.538  16.173  0.00  0.00    +0.000 C 
BRANCH  14  15
ATOM     15  C   UNL     1       6.661   4.919  14.820  0.00  0.00    +0.000 A 
ATOM     16  C   UNL     1       5.583   4.075  14.502  0.00  0.00    +0.000 A 
ATOM     17  C   UNL     1       5.474   3.527  13.226  0.00  0.00    +0.000 A 
ATOM     18  C   UNL     1       6.444   3.800  12.265  0.00  0.00    +0.000 A 
ATOM     19  C   UNL     1       7.532   4.616  12.581  0.00  0.00    +0.000 A 
ATOM     20  C   UNL     1       7.646   5.173  13.857  0.00  0.00    +0.000 A 
ENDBRANCH  14  15
ENDBRANCH   1  14
TORSDOF 3
ENDMDL
