MODEL 1
REMARK VINA RESULT:      -3.6      0.000      0.000
REMARK  Name = 
REMARK  6 active torsions:
REMARK  status: ('A' for Active; 'I' for Inactive)
REMARK    1  A    between atoms: N_1  and  C_2
REMARK    2  A    between atoms: C_2  and  C_3
REMARK    3  A    between atoms: C_3  and  O_4
REMARK    4  A    between atoms: O_4  and  C_5
REMARK    5  A    between atoms: C_5  and  C_6
REMARK    6  A    between atoms: C_6  and  N_7
REMARK                            x       y       z     vdW  Elec       q    Type
REMARK                         _______ _______ _______ _____ _____    ______ ____
ROOT
ATOM      1  O   UNL     1       7.867   4.504  16.811  0.00  0.00    +0.000 OA
ENDROOT
BRANCH   1   2
ATOM      2  C   UNL     1       7.131   4.692  18.029  0.00  0.00    +0.000 C 
BRANCH   2   3
ATOM      3  C   UNL     1       7.754   5.836  18.837  0.00  0.00    +0.000 C 
BRANCH   3   4
ATOM      4  N   UNL     1       7.930   5.469  20.246  0.00  0.00    +0.000 NA
ATOM      5  H   UNL     1       7.789   6.290  20.830  0.00  0.00    +0.000 HD
ATOM      6  H   UNL     1       8.907   5.189  20.369  0.00  0.00    +0.000 HD
ENDBRANCH   3   4
ENDBRANCH   2   3
ENDBRANCH   1   2
BRANCH   1   7
ATOM      7  C   UNL     1       7.103   4.951  15.683  0.00  0.00    +0.000 C 
BRANCH   7   8
ATOM      8  C   UNL     1       6.125   3.853  15.254  0.00  0.00    +0.000 C 
BRANCH   8   9
ATOM      9  N   UNL     1       6.274   3.522  13.832  0.00  0.00    +0.000 NA
ATOM     10  H   UNL     1       7.021   4.112  13.457  0.00  0.00    +0.000 HD
ATOM     11  H   UNL     1       5.426   3.775  13.334  0.00  0.00    +0.000 HD
ENDBRANCH   8   9
ENDBRANCH   7   8
ENDBRANCH   1   7
TORSDOF 6
ENDMDL
MODEL 2
REMARK VINA RESULT:      -3.6      1.160      4.487
REMARK  Name = 
REMARK  6 active torsions:
REMARK  status: ('A' for Active; 'I' for Inactive)
REMARK    1  A    between atoms: N_1  and  C_2
REMARK    2  A    between atoms: C_2  and  C_3
REMARK    3  A    between atoms: C_3  and  O_4
REMARK    4  A    between atoms: O_4  and  C_5
REMARK    5  A    between atoms: C_5  and  C_6
REMARK    6  A    between atoms: C_6  and  N_7
REMARK                            x       y       z     vdW  Elec       q    Type
REMARK                         _______ _______ _______ _____ _____    ______ ____
ROOT
ATOM      1  O   UNL     1       7.578   5.274  16.631  0.00  0.00    +0.000 OA
ENDROOT
BRANCH   1   2
ATOM      2  C   UNL     1       6.388   4.862  15.944  0.00  0.00    +0.000 C 
BRANCH   2   3
ATOM      3  C   UNL     1       6.698   4.641  14.460  0.00  0.00    +0.000 C 
BRANCH   3   4
ATOM      4  N   UNL     1       7.794   5.503  14.003  0.00  0.00    +0.000 NA
ATOM      5  H   UNL     1       7.744   6.397  14.486  0.00  0.00    +0.000 HD
ATOM      6  H   UNL     1       7.637   5.698  13.011  0.00  0.00    +0.000 HD
ENDBRANCH   3   4
ENDBRANCH   2   3
ENDBRANCH   1   2
BRANCH   1   7
ATOM      7  C   UNL     1       7.602   4.748  17.965  0.00  0.00    +0.000 C 
BRANCH   7   8
ATOM      8  C   UNL     1       7.667   5.900  18.973  0.00  0.00    +0.000 C 
BRANCH   8   9
ATOM      9  N   UNL     1       8.052   5.428  20.308  0.00  0.00    +0.000 NA
ATOM     10  H   UNL     1       8.021   6.233  20.939  0.00  0.00    +0.000 HD
ATOM     11  H   UNL     1       9.017   5.111  20.290  0.00  0.00    +0.000 HD
ENDBRANCH   8   9
ENDBRANCH   7   8
ENDBRANCH   1   7
TORSDOF 6
ENDMDL
MODEL 3
REMARK VINA RESULT:      -3.5      1.167      1.170
REMARK  Name = 
REMARK  6 active torsions:
REMARK  status: ('A' for Active; 'I' for Inactive)
REMARK    1  A    between atoms: N_1  and  C_2
REMARK    2  A    between atoms: C_2  and  C_3
REMARK    3  A    between atoms: C_3  and  O_4
REMARK    4  A    between atoms: O_4  and  C_5
REMARK    5  A    between atoms: C_5  and  C_6
REMARK    6  A    between atoms: C_6  and  N_7
REMARK                            x       y       z     vdW  Elec       q    Type
REMARK                         _______ _______ _______ _____ _____    ______ ____
ROOT
ATOM      1  O   UNL     1       7.474   5.000  16.745  0.00  0.00    +0.000 OA
ENDROOT
BRANCH   1   2
ATOM      2  C   UNL     1       7.235   4.766  18.141  0.00  0.00    +0.000 C 
BRANCH   2   3
ATOM      3  C   UNL     1       7.877   5.884  18.970  0.00  0.00    +0.000 C 
BRANCH   3   4
ATOM      4  N   UNL     1       8.031   5.494  20.375  0.00  0.00    +0.000 NA
ATOM      5  H   UNL     1       7.146   5.134  20.725  0.00  0.00    +0.000 HD
ATOM      6  H   UNL     1       8.230   6.344  20.909  0.00  0.00    +0.000 HD
ENDBRANCH   3   4
ENDBRANCH   2   3
ENDBRANCH   1   2
BRANCH   1   7
ATOM      7  C   UNL     1       6.575   4.227  15.939  0.00  0.00    +0.000 C 
BRANCH   7   8
ATOM      8  C   UNL     1       6.673   4.678  14.478  0.00  0.00    +0.000 C 
BRANCH   8   9
ATOM      9  N   UNL     1       7.860   5.510  14.249  0.00  0.00    +0.000 NA
ATOM     10  H   UNL     1       8.321   5.643  15.153  0.00  0.00    +0.000 HD
ATOM     11  H   UNL     1       7.572   6.432  13.932  0.00  0.00    +0.000 HD
ENDBRANCH   8   9
ENDBRANCH   7   8
ENDBRANCH   1   7
TORSDOF 6
ENDMDL
MODEL 4
REMARK VINA RESULT:      -3.5      5.925      6.285
REMARK  Name = 
REMARK  6 active torsions:
REMARK  status: ('A' for Active; 'I' for Inactive)
REMARK    1  A    between atoms: N_1  and  C_2
REMARK    2  A    between atoms: C_2  and  C_3
REMARK    3  A    between atoms: C_3  and  O_4
REMARK    4  A    between atoms: O_4  and  C_5
REMARK    5  A    between atoms: C_5  and  C_6
REMARK    6  A    between atoms: C_6  and  N_7
REMARK                            x       y       z     vdW  Elec       q    Type
REMARK                         _______ _______ _______ _____ _____    ______ ____
ROOT
ATOM      1  O   UNL     1       1.628   2.024  19.620  0.00  0.00    +0.000 OA
ENDROOT
BRANCH   1   2
ATOM      2  C   UNL     1       1.103   3.271  20.098  0.00  0.00    +0.000 C 
BRANCH   2   3
ATOM      3  C   UNL     1       1.909   3.738  21.315  0.00  0.00    +0.000 C 
BRANCH   3   4
ATOM      4  N   UNL     1       2.581   2.617  21.981  0.00  0.00    +0.000 NA
ATOM      5  H   UNL     1       1.914   1.863  22.129  0.00  0.00    +0.000 HD
ATOM      6  H   UNL     1       2.866   2.939  22.909  0.00  0.00    +0.000 HD
ENDBRANCH   3   4
ENDBRANCH   2   3
ENDBRANCH   1   2
BRANCH   1   7
ATOM      7  C   UNL     1       2.428   2.226  18.447  0.00  0.00    +0.000 C 
BRANCH   7   8
ATOM      8  C   UNL     1       3.742   1.450  18.578  0.00  0.00    +0.000 C 
BRANCH   8   9
ATOM      9  N   UNL     1       4.661   2.101  19.519  0.00  0.00    +0.000 NA
ATOM     10  H   UNL     1       5.420   1.442  19.711  0.00  0.00    +0.000 HD
ATOM     11  H   UNL     1       4.185   2.260  20.403  0.00  0.00    +0.000 HD
ENDBRANCH   8   9
ENDBRANCH   7   8
ENDBRANCH   1   7
TORSDOF 6
ENDMDL
MODEL 5
REMARK VINA RESULT:      -3.5      1.773      4.296
REMARK  Name = 
REMARK  6 active torsions:
REMARK  status: ('A' for Active; 'I' for Inactive)
REMARK    1  A    between atoms: N_1  and  C_2
REMARK    2  A    between atoms: C_2  and  C_3
REMARK    3  A    between atoms: C_3  and  O_4
REMARK    4  A    between atoms: O_4  and  C_5
REMARK    5  A    between atoms: C_5  and  C_6
REMARK    6  A    between atoms: C_6  and  N_7
REMARK                            x       y       z     vdW  Elec       q    Type
REMARK                         _______ _______ _______ _____ _____    ______ ____
ROOT
ATOM      1  O   UNL     1       7.530   6.525  16.570  0.00  0.00    +0.000 OA
ENDROOT
BRANCH   1   2
ATOM      2  C   UNL     1       6.974   5.229  16.305  0.00  0.00    +0.000 C 
BRANCH   2   3
ATOM      3  C   UNL     1       5.819   5.358  15.305  0.00  0.00    +0.000 C 
BRANCH   3   4
ATOM      4  N   UNL     1       5.226   6.699  15.334  0.00  0.00    +0.000 NA
ATOM      5  H   UNL     1       5.967   7.396  15.350  0.00  0.00    +0.000 HD
ATOM      6  H   UNL     1       4.721   6.791  16.219  0.00  0.00    +0.000 HD
ENDBRANCH   3   4
ENDBRANCH   2   3
ENDBRANCH   1   2
BRANCH   1   7
ATOM      7  C   UNL     1       7.635   6.753  17.982  0.00  0.00    +0.000 C 
BRANCH   7   8
ATOM      8  C   UNL     1       7.583   5.416  18.727  0.00  0.00    +0.000 C 
BRANCH   8   9
ATOM      9  N   UNL     1       7.929   5.573  20.144  0.00  0.00    +0.000 NA
ATOM     10  H   UNL     1       8.896   5.906  20.188  0.00  0.00    +0.000 HD
ATOM     11  H   UNL     1       7.914   4.664  20.599  0.00  0.00    +0.000 HD
ENDBRANCH   8   9
ENDBRANCH   7   8
ENDBRANCH   1   7
TORSDOF 6
ENDMDL
MODEL 6
REMARK VINA RESULT:      -3.4      5.707      6.664
REMARK  Name = 
REMARK  6 active torsions:
REMARK  status: ('A' for Active; 'I' for Inactive)
REMARK    1  A    between atoms: N_1  and  C_2
REMARK    2  A    between atoms: C_2  and  C_3
REMARK    3  A    between atoms: C_3  and  O_4
REMARK    4  A    between atoms: O_4  and  C_5
REMARK    5  A    between atoms: C_5  and  C_6
REMARK    6  A    between atoms: C_6  and  N_7
REMARK                            x       y       z     vdW  Elec       q    Type
REMARK                         _______ _______ _______ _____ _____    ______ ____
ROOT
ATOM      1  O   UNL     1       2.661   3.689  19.541  0.00  0.00    +0.000 OA
ENDROOT
BRANCH   1   2
ATOM      2  C   UNL     1       2.707   2.832  18.392  0.00  0.00    +0.000 C 
BRANCH   2   3
ATOM      3  C   UNL     1       3.686   1.680  18.646  0.00  0.00    +0.000 C 
BRANCH   3   4
ATOM      4  N   UNL     1       4.725   2.056  19.610  0.00  0.00    +0.000 NA
ATOM      5  H   UNL     1       4.297   2.541  20.396  0.00  0.00    +0.000 HD
ATOM      6  H   UNL     1       5.338   2.734  19.150  0.00  0.00    +0.000 HD
ENDBRANCH   3   4
ENDBRANCH   2   3
ENDBRANCH   1   2
BRANCH   1   7
ATOM      7  C   UNL     1       1.344   3.709  20.108  0.00  0.00    +0.000 C 
BRANCH   7   8
ATOM      8  C   UNL     1       1.294   2.789  21.331  0.00  0.00    +0.000 C 
BRANCH   8   9
ATOM      9  N   UNL     1       2.606   2.683  21.981  0.00  0.00    +0.000 NA
ATOM     10  H   UNL     1       3.063   3.595  21.898  0.00  0.00    +0.000 HD
ATOM     11  H   UNL     1       3.184   2.021  21.472  0.00  0.00    +0.000 HD
ENDBRANCH   8   9
ENDBRANCH   7   8
ENDBRANCH   1   7
TORSDOF 6
ENDMDL
MODEL 7
REMARK VINA RESULT:      -3.4      1.569      1.815
REMARK  Name = 
REMARK  6 active torsions:
REMARK  status: ('A' for Active; 'I' for Inactive)
REMARK    1  A    between atoms: N_1  and  C_2
REMARK    2  A    between atoms: C_2  and  C_3
REMARK    3  A    between atoms: C_3  and  O_4
REMARK    4  A    between atoms: O_4  and  C_5
REMARK    5  A    between atoms: C_5  and  C_6
REMARK    6  A    between atoms: C_6  and  N_7
REMARK                            x       y       z     vdW  Elec       q    Type
REMARK                         _______ _______ _______ _____ _____    ______ ____
ROOT
ATOM      1  O   UNL     1       7.532   5.501  15.259  0.00  0.00    +0.000 OA
ENDROOT
BRANCH   1   2
ATOM      2  C   UNL     1       6.661   4.862  16.204  0.00  0.00    +0.000 C 
BRANCH   2   3
ATOM      3  C   UNL     1       7.411   4.627  17.520  0.00  0.00    +0.000 C 
BRANCH   3   4
ATOM      4  N   UNL     1       6.514   4.139  18.573  0.00  0.00    +0.000 NA
ATOM      5  H   UNL     1       7.066   3.810  19.362  0.00  0.00    +0.000 HD
ATOM      6  H   UNL     1       6.022   3.323  18.201  0.00  0.00    +0.000 HD
ENDBRANCH   3   4
ENDBRANCH   2   3
ENDBRANCH   1   2
BRANCH   1   7
ATOM      7  C   UNL     1       7.327   4.972  13.942  0.00  0.00    +0.000 C 
BRANCH   7   8
ATOM      8  C   UNL     1       6.222   3.911  13.977  0.00  0.00    +0.000 C 
BRANCH   8   9
ATOM      9  N   UNL     1       6.186   3.128  12.737  0.00  0.00    +0.000 NA
ATOM     10  H   UNL     1       5.581   3.624  12.078  0.00  0.00    +0.000 HD
ATOM     11  H   UNL     1       5.745   2.230  12.917  0.00  0.00    +0.000 HD
ENDBRANCH   8   9
ENDBRANCH   7   8
ENDBRANCH   1   7
TORSDOF 6
ENDMDL
MODEL 8
REMARK VINA RESULT:      -3.3      1.775      1.926
REMARK  Name = 
REMARK  6 active torsions:
REMARK  status: ('A' for Active; 'I' for Inactive)
REMARK    1  A    between atoms: N_1  and  C_2
REMARK    2  A    between atoms: C_2  and  C_3
REMARK    3  A    between atoms: C_3  and  O_4
REMARK    4  A    between atoms: O_4  and  C_5
REMARK    5  A    between atoms: C_5  and  C_6
REMARK    6  A    between atoms: C_6  and  N_7
REMARK                            x       y       z     vdW  Elec       q    Type
REMARK                         _______ _______ _______ _____ _____    ______ ____
ROOT
ATOM      1  O   UNL     1       7.479   5.064  16.248  0.00  0.00    +0.000 OA
ENDROOT
BRANCH   1   2
ATOM      2  C   UNL     1       7.425   4.601  17.605  0.00  0.00    +0.000 C 
BRANCH   2   3
ATOM      3  C   UNL     1       5.988   4.699  18.128  0.00  0.00    +0.000 C 
BRANCH   3   4
ATOM      4  N   UNL     1       5.716   3.687  19.153  0.00  0.00    +0.000 NA
ATOM      5  H   UNL     1       5.034   4.051  19.816  0.00  0.00    +0.000 HD
ATOM      6  H   UNL     1       6.582   3.542  19.678  0.00  0.00    +0.000 HD
ENDBRANCH   3   4
ENDBRANCH   2   3
ENDBRANCH   1   2
BRANCH   1   7
ATOM      7  C   UNL     1       6.604   4.293  15.413  0.00  0.00    +0.000 C 
BRANCH   7   8
ATOM      8  C   UNL     1       6.866   4.628  13.942  0.00  0.00    +0.000 C 
BRANCH   8   9
ATOM      9  N   UNL     1       8.000   5.548  13.791  0.00  0.00    +0.000 NA
ATOM     10  H   UNL     1       7.971   5.915  12.836  0.00  0.00    +0.000 HD
ATOM     11  H   UNL     1       8.870   5.030  13.876  0.00  0.00    +0.000 HD
ENDBRANCH   8   9
ENDBRANCH   7   8
ENDBRANCH   1   7
TORSDOF 6
ENDMDL
MODEL 9
REMARK VINA RESULT:      -3.3      3.481      3.831
REMARK  Name = 
REMARK  6 active torsions:
REMARK  status: ('A' for Active; 'I' for Inactive)
REMARK    1  A    between atoms: N_1  and  C_2
REMARK    2  A    between atoms: C_2  and  C_3
REMARK    3  A    between atoms: C_3  and  O_4
REMARK    4  A    between atoms: O_4  and  C_5
REMARK    5  A    between atoms: C_5  and  C_6
REMARK    6  A    between atoms: C_6  and  N_7
REMARK                            x       y       z     vdW  Elec       q    Type
REMARK                         _______ _______ _______ _____ _____    ______ ____
ROOT
ATOM      1  O   UNL     1       5.614   3.873  19.354  0.00  0.00    +0.000 OA
ENDROOT
BRANCH   1   2
ATOM      2  C   UNL     1       6.172   5.109  18.888  0.00  0.00    +0.000 C 
BRANCH   2   3
ATOM      3  C   UNL     1       6.869   4.886  17.541  0.00  0.00    +0.000 C 
BRANCH   3   4
ATOM      4  N   UNL     1       8.123   4.142  17.698  0.00  0.00    +0.000 NA
ATOM      5  H   UNL     1       7.915   3.173  17.930  0.00  0.00    +0.000 HD
ATOM      6  H   UNL     1       8.613   4.536  18.505  0.00  0.00    +0.000 HD
ENDBRANCH   3   4
ENDBRANCH   2   3
ENDBRANCH   1   2
BRANCH   1   7
ATOM      7  C   UNL     1       4.396   3.572  18.658  0.00  0.00    +0.000 C 
BRANCH   7   8
ATOM      8  C   UNL     1       3.681   2.406  19.349  0.00  0.00    +0.000 C 
BRANCH   8   9
ATOM      9  N   UNL     1       3.252   1.388  18.384  0.00  0.00    +0.000 NA
ATOM     10  H   UNL     1       2.268   1.181  18.573  0.00  0.00    +0.000 HD
ATOM     11  H   UNL     1       3.767   0.527  18.548  0.00  0.00    +0.000 HD
ENDBRANCH   8   9
ENDBRANCH   7   8
ENDBRANCH   1   7
TORSDOF 6
ENDMDL
