MODEL 1
REMARK VINA RESULT:      -8.5      0.000      0.000
REMARK  Name = 
REMARK  7 active torsions:
REMARK  status: ('A' for Active; 'I' for Inactive)
REMARK    1  A    between atoms: C_2  and  C_3
REMARK    2  A    between atoms: C_3  and  C_4
REMARK    3  A    between atoms: C_4  and  C_5
REMARK    4  A    between atoms: N_11  and  C_12
REMARK    5  A    between atoms: C_14  and  C_15
REMARK    6  A    between atoms: C_15  and  C_16
REMARK    7  A    between atoms: C_16  and  C_17
REMARK                            x       y       z     vdW  Elec       q    Type
REMARK                         _______ _______ _______ _____ _____    ______ ____
ROOT
ATOM      1  C   UNL     1       6.349   6.644  17.128  0.00  0.00    +0.000 A 
ATOM      2  C   UNL     1       5.077   6.311  16.745  0.00  0.00    +0.000 A 
ATOM      3  C   UNL     1       4.958   4.922  16.985  0.00  0.00    +0.000 A 
ATOM      4  N   UNL     1       6.106   4.408  17.439  0.00  0.00    +0.000 NA
ATOM      5  N   UNL     1       6.940   5.462  17.494  0.00  0.00    +0.000 N 
ATOM      6  H   UNL     1       7.881   5.301  17.826  0.00  0.00    +0.000 HD
ENDROOT
BRANCH   1   9
ATOM      7  O   UNL     1       8.497   7.416  18.786  0.00  0.00    +0.000 OA
ATOM      8  C   UNL     1       7.989   8.263  18.066  0.00  0.00    +0.000 C 
ATOM      9  N   UNL     1       6.939   7.907  17.142  0.00  0.00    +0.000 N 
ATOM     10  H   UNL     1       6.648   8.563  16.431  0.00  0.00    +0.000 HD
BRANCH   8  11
ATOM     11  C   UNL     1       8.494   9.676  18.037  0.00  0.00    +0.000 C 
BRANCH  11  12
ATOM     12  C   UNL     1       9.176  10.103  19.328  0.00  0.00    +0.000 C 
BRANCH  12  13
ATOM     13  C   UNL     1      10.217  11.153  19.061  0.00  0.00    +0.000 A 
ATOM     14  C   UNL     1      10.901  11.759  20.108  0.00  0.00    +0.000 A 
ATOM     15  C   UNL     1      11.848  12.734  19.806  0.00  0.00    +0.000 A 
ATOM     16  C   UNL     1      12.081  13.071  18.479  0.00  0.00    +0.000 A 
ATOM     17  C   UNL     1      11.351  12.423  17.500  0.00  0.00    +0.000 A 
ATOM     18  N   UNL     1      10.422  11.475  17.763  0.00  0.00    +0.000 NA
ENDBRANCH  12  13
ENDBRANCH  11  12
ENDBRANCH   8  11
ENDBRANCH   1   9
BRANCH   3  19
ATOM     19  C   UNL     1       3.735   4.072  16.811  0.00  0.00    +0.000 C 
BRANCH  19  20
ATOM     20  C   UNL     1       3.773   2.817  17.688  0.00  0.00    +0.000 C 
BRANCH  20  21
ATOM     21  C   UNL     1       2.927   2.938  18.928  0.00  0.00    +0.000 A 
ATOM     22  C   UNL     1       1.603   3.384  18.842  0.00  0.00    +0.000 A 
ATOM     23  C   UNL     1       0.819   3.496  19.988  0.00  0.00    +0.000 A 
ATOM     24  C   UNL     1       1.355   3.163  21.233  0.00  0.00    +0.000 A 
ATOM     25  C   UNL     1       2.672   2.715  21.325  0.00  0.00    +0.000 A 
ATOM     26  C   UNL     1       3.458   2.603  20.180  0.00  0.00    +0.000 A 
ENDBRANCH  20  21
ENDBRANCH  19  20
ENDBRANCH   3  19
TORSDOF 7
ENDMDL
MODEL 2
REMARK VINA RESULT:      -8.3      1.820      9.698
REMARK  Name = 
REMARK  7 active torsions:
REMARK  status: ('A' for Active; 'I' for Inactive)
REMARK    1  A    between atoms: C_2  and  C_3
REMARK    2  A    between atoms: C_3  and  C_4
REMARK    3  A    between atoms: C_4  and  C_5
REMARK    4  A    between atoms: N_11  and  C_12
REMARK    5  A    between atoms: C_14  and  C_15
REMARK    6  A    between atoms: C_15  and  C_16
REMARK    7  A    between atoms: C_16  and  C_17
REMARK                            x       y       z     vdW  Elec       q    Type
REMARK                         _______ _______ _______ _____ _____    ______ ____
ROOT
ATOM      1  C   UNL     1       6.632   5.238  17.095  0.00  0.00    +0.000 A 
ATOM      2  C   UNL     1       7.064   5.834  18.251  0.00  0.00    +0.000 A 
ATOM      3  C   UNL     1       7.772   6.988  17.843  0.00  0.00    +0.000 A 
ATOM      4  N   UNL     1       7.828   7.077  16.510  0.00  0.00    +0.000 NA
ATOM      5  N   UNL     1       7.154   5.997  16.079  0.00  0.00    +0.000 N 
ATOM      6  H   UNL     1       7.062   5.867  15.080  0.00  0.00    +0.000 HD
ENDROOT
BRANCH   1   9
ATOM      7  O   UNL     1       3.816   5.191  17.246  0.00  0.00    +0.000 OA
ATOM      8  C   UNL     1       4.405   4.128  17.119  0.00  0.00    +0.000 C 
ATOM      9  N   UNL     1       5.840   4.099  16.959  0.00  0.00    +0.000 N 
ATOM     10  H   UNL     1       6.300   3.244  16.680  0.00  0.00    +0.000 HD
BRANCH   8  11
ATOM     11  C   UNL     1       3.667   2.825  17.025  0.00  0.00    +0.000 C 
BRANCH  11  12
ATOM     12  C   UNL     1       3.823   1.949  18.258  0.00  0.00    +0.000 C 
BRANCH  12  13
ATOM     13  C   UNL     1       2.895   2.395  19.352  0.00  0.00    +0.000 A 
ATOM     14  C   UNL     1       3.345   2.515  20.662  0.00  0.00    +0.000 A 
ATOM     15  C   UNL     1       2.442   2.922  21.640  0.00  0.00    +0.000 A 
ATOM     16  C   UNL     1       1.127   3.193  21.284  0.00  0.00    +0.000 A 
ATOM     17  C   UNL     1       0.762   3.041  19.959  0.00  0.00    +0.000 A 
ATOM     18  N   UNL     1       1.616   2.644  18.987  0.00  0.00    +0.000 NA
ENDBRANCH  12  13
ENDBRANCH  11  12
ENDBRANCH   8  11
ENDBRANCH   1   9
BRANCH   3  19
ATOM     19  C   UNL     1       8.382   8.037  18.724  0.00  0.00    +0.000 C 
BRANCH  19  20
ATOM     20  C   UNL     1       8.336   9.427  18.085  0.00  0.00    +0.000 C 
BRANCH  20  21
ATOM     21  C   UNL     1       9.306  10.396  18.707  0.00  0.00    +0.000 A 
ATOM     22  C   UNL     1      10.281  11.024  17.923  0.00  0.00    +0.000 A 
ATOM     23  C   UNL     1      11.180  11.921  18.496  0.00  0.00    +0.000 A 
ATOM     24  C   UNL     1      11.112  12.196  19.863  0.00  0.00    +0.000 A 
ATOM     25  C   UNL     1      10.143  11.576  20.649  0.00  0.00    +0.000 A 
ATOM     26  C   UNL     1       9.243  10.678  20.078  0.00  0.00    +0.000 A 
ENDBRANCH  20  21
ENDBRANCH  19  20
ENDBRANCH   3  19
TORSDOF 7
ENDMDL
MODEL 3
REMARK VINA RESULT:      -8.3      1.173      1.313
REMARK  Name = 
REMARK  7 active torsions:
REMARK  status: ('A' for Active; 'I' for Inactive)
REMARK    1  A    between atoms: C_2  and  C_3
REMARK    2  A    between atoms: C_3  and  C_4
REMARK    3  A    between atoms: C_4  and  C_5
REMARK    4  A    between atoms: N_11  and  C_12
REMARK    5  A    between atoms: C_14  and  C_15
REMARK    6  A    between atoms: C_15  and  C_16
REMARK    7  A    between atoms: C_16  and  C_17
REMARK                            x       y       z     vdW  Elec       q    Type
REMARK                         _______ _______ _______ _____ _____    ______ ____
ROOT
ATOM      1  C   UNL     1       7.139   5.789  17.725  0.00  0.00    +0.000 A 
ATOM      2  C   UNL     1       5.830   5.456  17.959  0.00  0.00    +0.000 A 
ATOM      3  C   UNL     1       5.545   4.388  17.076  0.00  0.00    +0.000 A 
ATOM      4  N   UNL     1       6.597   4.107  16.299  0.00  0.00    +0.000 NA
ATOM      5  N   UNL     1       7.540   4.982  16.692  0.00  0.00    +0.000 N 
ATOM      6  H   UNL     1       8.440   4.942  16.233  0.00  0.00    +0.000 HD
ENDROOT
BRANCH   1   9
ATOM      7  O   UNL     1       7.174   8.544  17.120  0.00  0.00    +0.000 OA
ATOM      8  C   UNL     1       7.941   8.131  17.977  0.00  0.00    +0.000 C 
ATOM      9  N   UNL     1       7.912   6.745  18.381  0.00  0.00    +0.000 N 
ATOM     10  H   UNL     1       8.418   6.449  19.204  0.00  0.00    +0.000 HD
BRANCH   8  11
ATOM     11  C   UNL     1       8.869   9.053  18.711  0.00  0.00    +0.000 C 
BRANCH  11  12
ATOM     12  C   UNL     1       8.834  10.484  18.199  0.00  0.00    +0.000 C 
BRANCH  12  13
ATOM     13  C   UNL     1      10.065  11.234  18.621  0.00  0.00    +0.000 A 
ATOM     14  C   UNL     1      10.378  11.390  19.966  0.00  0.00    +0.000 A 
ATOM     15  C   UNL     1      11.525  12.104  20.302  0.00  0.00    +0.000 A 
ATOM     16  C   UNL     1      12.318  12.636  19.293  0.00  0.00    +0.000 A 
ATOM     17  C   UNL     1      11.929  12.439  17.981  0.00  0.00    +0.000 A 
ATOM     18  N   UNL     1      10.818  11.754  17.624  0.00  0.00    +0.000 NA
ENDBRANCH  12  13
ENDBRANCH  11  12
ENDBRANCH   8  11
ENDBRANCH   1   9
BRANCH   3  19
ATOM     19  C   UNL     1       4.272   3.602  16.984  0.00  0.00    +0.000 C 
BRANCH  19  20
ATOM     20  C   UNL     1       3.055   4.416  17.431  0.00  0.00    +0.000 C 
BRANCH  20  21
ATOM     21  C   UNL     1       2.559   4.034  18.800  0.00  0.00    +0.000 A 
ATOM     22  C   UNL     1       2.064   2.747  19.041  0.00  0.00    +0.000 A 
ATOM     23  C   UNL     1       1.605   2.392  20.308  0.00  0.00    +0.000 A 
ATOM     24  C   UNL     1       1.636   3.324  21.346  0.00  0.00    +0.000 A 
ATOM     25  C   UNL     1       2.131   4.606  21.114  0.00  0.00    +0.000 A 
ATOM     26  C   UNL     1       2.590   4.964  19.848  0.00  0.00    +0.000 A 
ENDBRANCH  20  21
ENDBRANCH  19  20
ENDBRANCH   3  19
TORSDOF 7
ENDMDL
MODEL 4
REMARK VINA RESULT:      -8.2      1.839      9.616
REMARK  Name = 
REMARK  7 active torsions:
REMARK  status: ('A' for Active; 'I' for Inactive)
REMARK    1  A    between atoms: C_2  and  C_3
REMARK    2  A    between atoms: C_3  and  C_4
REMARK    3  A    between atoms: C_4  and  C_5
REMARK    4  A    between atoms: N_11  and  C_12
REMARK    5  A    between atoms: C_14  and  C_15
REMARK    6  A    between atoms: C_15  and  C_16
REMARK    7  A    between atoms: C_16  and  C_17
REMARK                            x       y       z     vdW  Elec       q    Type
REMARK                         _______ _______ _______ _____ _____    ______ ____
ROOT
ATOM      1  C   UNL     1       6.807   5.412  17.609  0.00  0.00    +0.000 A 
ATOM      2  C   UNL     1       7.388   6.059  18.668  0.00  0.00    +0.000 A 
ATOM      3  C   UNL     1       7.966   7.231  18.129  0.00  0.00    +0.000 A 
ATOM      4  N   UNL     1       7.804   7.286  16.802  0.00  0.00    +0.000 NA
ATOM      5  N   UNL     1       7.123   6.165  16.507  0.00  0.00    +0.000 N 
ATOM      6  H   UNL     1       6.879   6.003  15.539  0.00  0.00    +0.000 HD
ENDROOT
BRANCH   1   9
ATOM      7  O   UNL     1       4.514   4.922  16.041  0.00  0.00    +0.000 OA
ATOM      8  C   UNL     1       4.851   4.073  16.852  0.00  0.00    +0.000 C 
ATOM      9  N   UNL     1       6.060   4.236  17.626  0.00  0.00    +0.000 N 
ATOM     10  H   UNL     1       6.426   3.460  18.159  0.00  0.00    +0.000 HD
BRANCH   8  11
ATOM     11  C   UNL     1       4.091   2.789  17.009  0.00  0.00    +0.000 C 
BRANCH  11  12
ATOM     12  C   UNL     1       4.029   2.293  18.446  0.00  0.00    +0.000 C 
BRANCH  12  13
ATOM     13  C   UNL     1       2.979   3.035  19.224  0.00  0.00    +0.000 A 
ATOM     14  C   UNL     1       1.657   2.607  19.222  0.00  0.00    +0.000 A 
ATOM     15  C   UNL     1       0.722   3.336  19.950  0.00  0.00    +0.000 A 
ATOM     16  C   UNL     1       1.132   4.463  20.652  0.00  0.00    +0.000 A 
ATOM     17  C   UNL     1       2.466   4.822  20.594  0.00  0.00    +0.000 A 
ATOM     18  N   UNL     1       3.397   4.135  19.891  0.00  0.00    +0.000 NA
ENDBRANCH  12  13
ENDBRANCH  11  12
ENDBRANCH   8  11
ENDBRANCH   1   9
BRANCH   3  19
ATOM     19  C   UNL     1       8.657   8.331  18.879  0.00  0.00    +0.000 C 
BRANCH  19  20
ATOM     20  C   UNL     1       8.553   9.677  18.158  0.00  0.00    +0.000 C 
BRANCH  20  21
ATOM     21  C   UNL     1       9.516  10.707  18.687  0.00  0.00    +0.000 A 
ATOM     22  C   UNL     1      10.314  11.448  17.808  0.00  0.00    +0.000 A 
ATOM     23  C   UNL     1      11.206  12.401  18.296  0.00  0.00    +0.000 A 
ATOM     24  C   UNL     1      11.307  12.620  19.671  0.00  0.00    +0.000 A 
ATOM     25  C   UNL     1      10.512  11.888  20.551  0.00  0.00    +0.000 A 
ATOM     26  C   UNL     1       9.620  10.934  20.066  0.00  0.00    +0.000 A 
ENDBRANCH  20  21
ENDBRANCH  19  20
ENDBRANCH   3  19
TORSDOF 7
ENDMDL
MODEL 5
REMARK VINA RESULT:      -8.1      1.138      1.493
REMARK  Name = 
REMARK  7 active torsions:
REMARK  status: ('A' for Active; 'I' for Inactive)
REMARK    1  A    between atoms: C_2  and  C_3
REMARK    2  A    between atoms: C_3  and  C_4
REMARK    3  A    between atoms: C_4  and  C_5
REMARK    4  A    between atoms: N_11  and  C_12
REMARK    5  A    between atoms: C_14  and  C_15
REMARK    6  A    between atoms: C_15  and  C_16
REMARK    7  A    between atoms: C_16  and  C_17
REMARK                            x       y       z     vdW  Elec       q    Type
REMARK                         _______ _______ _______ _____ _____    ______ ____
ROOT
ATOM      1  C   UNL     1       6.492   6.341  16.477  0.00  0.00    +0.000 A 
ATOM      2  C   UNL     1       5.394   5.768  17.064  0.00  0.00    +0.000 A 
ATOM      3  C   UNL     1       5.350   4.441  16.576  0.00  0.00    +0.000 A 
ATOM      4  N   UNL     1       6.331   4.216  15.694  0.00  0.00    +0.000 NA
ATOM      5  N   UNL     1       6.993   5.385  15.632  0.00  0.00    +0.000 N 
ATOM      6  H   UNL     1       7.795   5.440  15.019  0.00  0.00    +0.000 HD
ENDROOT
BRANCH   1   9
ATOM      7  O   UNL     1       8.154   7.112  18.622  0.00  0.00    +0.000 OA
ATOM      8  C   UNL     1       7.789   7.974  17.836  0.00  0.00    +0.000 C 
ATOM      9  N   UNL     1       7.002   7.623  16.678  0.00  0.00    +0.000 N 
ATOM     10  H   UNL     1       6.853   8.302  15.944  0.00  0.00    +0.000 HD
BRANCH   8  11
ATOM     11  C   UNL     1       8.219   9.403  17.980  0.00  0.00    +0.000 C 
BRANCH  11  12
ATOM     12  C   UNL     1       9.108   9.651  19.189  0.00  0.00    +0.000 C 
BRANCH  12  13
ATOM     13  C   UNL     1       9.893  10.920  19.025  0.00  0.00    +0.000 A 
ATOM     14  C   UNL     1      10.279  11.361  17.765  0.00  0.00    +0.000 A 
ATOM     15  C   UNL     1      11.015  12.539  17.669  0.00  0.00    +0.000 A 
ATOM     16  C   UNL     1      11.343  13.234  18.827  0.00  0.00    +0.000 A 
ATOM     17  C   UNL     1      10.925  12.721  20.041  0.00  0.00    +0.000 A 
ATOM     18  N   UNL     1      10.212  11.578  20.165  0.00  0.00    +0.000 NA
ENDBRANCH  12  13
ENDBRANCH  11  12
ENDBRANCH   8  11
ENDBRANCH   1   9
BRANCH   3  19
ATOM     19  C   UNL     1       4.387   3.361  16.967  0.00  0.00    +0.000 C 
BRANCH  19  20
ATOM     20  C   UNL     1       2.939   3.856  16.988  0.00  0.00    +0.000 C 
BRANCH  20  21
ATOM     21  C   UNL     1       2.327   3.838  18.363  0.00  0.00    +0.000 A 
ATOM     22  C   UNL     1       2.276   5.007  19.132  0.00  0.00    +0.000 A 
ATOM     23  C   UNL     1       1.709   4.992  20.405  0.00  0.00    +0.000 A 
ATOM     24  C   UNL     1       1.191   3.804  20.922  0.00  0.00    +0.000 A 
ATOM     25  C   UNL     1       1.237   2.636  20.161  0.00  0.00    +0.000 A 
ATOM     26  C   UNL     1       1.803   2.649  18.887  0.00  0.00    +0.000 A 
ENDBRANCH  20  21
ENDBRANCH  19  20
ENDBRANCH   3  19
TORSDOF 7
ENDMDL
MODEL 6
REMARK VINA RESULT:      -8.1      1.239      1.923
REMARK  Name = 
REMARK  7 active torsions:
REMARK  status: ('A' for Active; 'I' for Inactive)
REMARK    1  A    between atoms: C_2  and  C_3
REMARK    2  A    between atoms: C_3  and  C_4
REMARK    3  A    between atoms: C_4  and  C_5
REMARK    4  A    between atoms: N_11  and  C_12
REMARK    5  A    between atoms: C_14  and  C_15
REMARK    6  A    between atoms: C_15  and  C_16
REMARK    7  A    between atoms: C_16  and  C_17
REMARK                            x       y       z     vdW  Elec       q    Type
REMARK                         _______ _______ _______ _____ _____    ______ ____
ROOT
ATOM      1  C   UNL     1       5.824   5.382  17.772  0.00  0.00    +0.000 A 
ATOM      2  C   UNL     1       4.459   5.334  17.652  0.00  0.00    +0.000 A 
ATOM      3  C   UNL     1       4.176   4.106  17.010  0.00  0.00    +0.000 A 
ATOM      4  N   UNL     1       5.300   3.452  16.697  0.00  0.00    +0.000 NA
ATOM      5  N   UNL     1       6.283   4.252  17.146  0.00  0.00    +0.000 N 
ATOM      6  H   UNL     1       7.237   3.942  17.020  0.00  0.00    +0.000 HD
ENDROOT
BRANCH   1   9
ATOM      7  O   UNL     1       7.725   7.008  16.469  0.00  0.00    +0.000 OA
ATOM      8  C   UNL     1       7.608   7.115  17.680  0.00  0.00    +0.000 C 
ATOM      9  N   UNL     1       6.598   6.364  18.388  0.00  0.00    +0.000 N 
ATOM     10  H   UNL     1       6.388   6.584  19.352  0.00  0.00    +0.000 HD
BRANCH   8  11
ATOM     11  C   UNL     1       8.430   8.092  18.467  0.00  0.00    +0.000 C 
BRANCH  11  12
ATOM     12  C   UNL     1       8.231   9.537  18.036  0.00  0.00    +0.000 C 
BRANCH  12  13
ATOM     13  C   UNL     1       9.260  10.430  18.668  0.00  0.00    +0.000 A 
ATOM     14  C   UNL     1      10.243  11.040  17.897  0.00  0.00    +0.000 A 
ATOM     15  C   UNL     1      11.179  11.850  18.534  0.00  0.00    +0.000 A 
ATOM     16  C   UNL     1      11.107  12.023  19.910  0.00  0.00    +0.000 A 
ATOM     17  C   UNL     1      10.101  11.374  20.602  0.00  0.00    +0.000 A 
ATOM     18  N   UNL     1       9.179  10.578  20.011  0.00  0.00    +0.000 NA
ENDBRANCH  12  13
ENDBRANCH  11  12
ENDBRANCH   8  11
ENDBRANCH   1   9
BRANCH   3  19
ATOM     19  C   UNL     1       2.825   3.529  16.712  0.00  0.00    +0.000 C 
BRANCH  19  20
ATOM     20  C   UNL     1       2.549   2.256  17.516  0.00  0.00    +0.000 C 
BRANCH  20  21
ATOM     21  C   UNL     1       2.317   2.521  18.980  0.00  0.00    +0.000 A 
ATOM     22  C   UNL     1       3.347   2.327  19.908  0.00  0.00    +0.000 A 
ATOM     23  C   UNL     1       3.133   2.572  21.263  0.00  0.00    +0.000 A 
ATOM     24  C   UNL     1       1.884   3.013  21.702  0.00  0.00    +0.000 A 
ATOM     25  C   UNL     1       0.855   3.211  20.783  0.00  0.00    +0.000 A 
ATOM     26  C   UNL     1       1.066   2.966  19.428  0.00  0.00    +0.000 A 
ENDBRANCH  20  21
ENDBRANCH  19  20
ENDBRANCH   3  19
TORSDOF 7
ENDMDL
MODEL 7
REMARK VINA RESULT:      -8.1      0.903      1.089
REMARK  Name = 
REMARK  7 active torsions:
REMARK  status: ('A' for Active; 'I' for Inactive)
REMARK    1  A    between atoms: C_2  and  C_3
REMARK    2  A    between atoms: C_3  and  C_4
REMARK    3  A    between atoms: C_4  and  C_5
REMARK    4  A    between atoms: N_11  and  C_12
REMARK    5  A    between atoms: C_14  and  C_15
REMARK    6  A    between atoms: C_15  and  C_16
REMARK    7  A    between atoms: C_16  and  C_17
REMARK                            x       y       z     vdW  Elec       q    Type
REMARK                         _______ _______ _______ _____ _____    ______ ____
ROOT
ATOM      1  C   UNL     1       6.228   6.340  17.326  0.00  0.00    +0.000 A 
ATOM      2  C   UNL     1       5.149   5.824  16.658  0.00  0.00    +0.000 A 
ATOM      3  C   UNL     1       4.933   4.542  17.217  0.00  0.00    +0.000 A 
ATOM      4  N   UNL     1       5.857   4.253  18.140  0.00  0.00    +0.000 NA
ATOM      5  N   UNL     1       6.643   5.345  18.171  0.00  0.00    +0.000 N 
ATOM      6  H   UNL     1       7.418   5.347  18.821  0.00  0.00    +0.000 HD
ENDROOT
BRANCH   1   9
ATOM      7  O   UNL     1       8.425   7.303  18.810  0.00  0.00    +0.000 OA
ATOM      8  C   UNL     1       7.880   8.065  18.025  0.00  0.00    +0.000 C 
ATOM      9  N   UNL     1       6.802   7.603  17.184  0.00  0.00    +0.000 N 
ATOM     10  H   UNL     1       6.476   8.178  16.419  0.00  0.00    +0.000 HD
BRANCH   8  11
ATOM     11  C   UNL     1       8.365   9.471  17.828  0.00  0.00    +0.000 C 
BRANCH  11  12
ATOM     12  C   UNL     1       9.115  10.028  19.028  0.00  0.00    +0.000 C 
BRANCH  12  13
ATOM     13  C   UNL     1       9.966  11.200  18.630  0.00  0.00    +0.000 A 
ATOM     14  C   UNL     1      11.240  11.367  19.160  0.00  0.00    +0.000 A 
ATOM     15  C   UNL     1      11.983  12.477  18.767  0.00  0.00    +0.000 A 
ATOM     16  C   UNL     1      11.434  13.380  17.865  0.00  0.00    +0.000 A 
ATOM     17  C   UNL     1      10.157  13.141  17.393  0.00  0.00    +0.000 A 
ATOM     18  N   UNL     1       9.410  12.074  17.759  0.00  0.00    +0.000 NA
ENDBRANCH  12  13
ENDBRANCH  11  12
ENDBRANCH   8  11
ENDBRANCH   1   9
BRANCH   3  19
ATOM     19  C   UNL     1       3.823   3.587  16.896  0.00  0.00    +0.000 C 
BRANCH  19  20
ATOM     20  C   UNL     1       2.458   4.112  17.349  0.00  0.00    +0.000 C 
BRANCH  20  21
ATOM     21  C   UNL     1       2.189   3.873  18.811  0.00  0.00    +0.000 A 
ATOM     22  C   UNL     1       1.792   2.608  19.260  0.00  0.00    +0.000 A 
ATOM     23  C   UNL     1       1.543   2.384  20.613  0.00  0.00    +0.000 A 
ATOM     24  C   UNL     1       1.686   3.427  21.528  0.00  0.00    +0.000 A 
ATOM     25  C   UNL     1       2.083   4.688  21.088  0.00  0.00    +0.000 A 
ATOM     26  C   UNL     1       2.333   4.915  19.736  0.00  0.00    +0.000 A 
ENDBRANCH  20  21
ENDBRANCH  19  20
ENDBRANCH   3  19
TORSDOF 7
ENDMDL
MODEL 8
REMARK VINA RESULT:      -8.0      0.766      1.289
REMARK  Name = 
REMARK  7 active torsions:
REMARK  status: ('A' for Active; 'I' for Inactive)
REMARK    1  A    between atoms: C_2  and  C_3
REMARK    2  A    between atoms: C_3  and  C_4
REMARK    3  A    between atoms: C_4  and  C_5
REMARK    4  A    between atoms: N_11  and  C_12
REMARK    5  A    between atoms: C_14  and  C_15
REMARK    6  A    between atoms: C_15  and  C_16
REMARK    7  A    between atoms: C_16  and  C_17
REMARK                            x       y       z     vdW  Elec       q    Type
REMARK                         _______ _______ _______ _____ _____    ______ ____
ROOT
ATOM      1  C   UNL     1       6.626   6.685  17.026  0.00  0.00    +0.000 A 
ATOM      2  C   UNL     1       5.308   6.360  16.843  0.00  0.00    +0.000 A 
ATOM      3  C   UNL     1       5.246   4.950  16.938  0.00  0.00    +0.000 A 
ATOM      4  N   UNL     1       6.463   4.422  17.114  0.00  0.00    +0.000 NA
ATOM      5  N   UNL     1       7.284   5.487  17.140  0.00  0.00    +0.000 N 
ATOM      6  H   UNL     1       8.271   5.317  17.275  0.00  0.00    +0.000 HD
ENDROOT
BRANCH   1   9
ATOM      7  O   UNL     1       8.600   7.502  18.869  0.00  0.00    +0.000 OA
ATOM      8  C   UNL     1       8.153   8.335  18.094  0.00  0.00    +0.000 C 
ATOM      9  N   UNL     1       7.198   7.955  17.080  0.00  0.00    +0.000 N 
ATOM     10  H   UNL     1       6.968   8.600  16.337  0.00  0.00    +0.000 HD
BRANCH   8  11
ATOM     11  C   UNL     1       8.642   9.753  18.096  0.00  0.00    +0.000 C 
BRANCH  11  12
ATOM     12  C   UNL     1       9.221  10.194  19.431  0.00  0.00    +0.000 C 
BRANCH  12  13
ATOM     13  C   UNL     1       9.967  11.490  19.289  0.00  0.00    +0.000 A 
ATOM     14  C   UNL     1       9.300  12.707  19.366  0.00  0.00    +0.000 A 
ATOM     15  C   UNL     1      10.037  13.879  19.217  0.00  0.00    +0.000 A 
ATOM     16  C   UNL     1      11.406  13.800  18.995  0.00  0.00    +0.000 A 
ATOM     17  C   UNL     1      11.989  12.548  18.926  0.00  0.00    +0.000 A 
ATOM     18  N   UNL     1      11.298  11.392  19.064  0.00  0.00    +0.000 NA
ENDBRANCH  12  13
ENDBRANCH  11  12
ENDBRANCH   8  11
ENDBRANCH   1   9
BRANCH   3  19
ATOM     19  C   UNL     1       4.019   4.090  16.890  0.00  0.00    +0.000 C 
BRANCH  19  20
ATOM     20  C   UNL     1       4.093   2.921  17.875  0.00  0.00    +0.000 C 
BRANCH  20  21
ATOM     21  C   UNL     1       3.102   3.035  19.003  0.00  0.00    +0.000 A 
ATOM     22  C   UNL     1       3.458   2.648  20.300  0.00  0.00    +0.000 A 
ATOM     23  C   UNL     1       2.542   2.754  21.346  0.00  0.00    +0.000 A 
ATOM     24  C   UNL     1       1.260   3.245  21.100  0.00  0.00    +0.000 A 
ATOM     25  C   UNL     1       0.900   3.635  19.811  0.00  0.00    +0.000 A 
ATOM     26  C   UNL     1       1.814   3.530  18.764  0.00  0.00    +0.000 A 
ENDBRANCH  20  21
ENDBRANCH  19  20
ENDBRANCH   3  19
TORSDOF 7
ENDMDL
MODEL 9
REMARK VINA RESULT:      -8.0      1.829      9.847
REMARK  Name = 
REMARK  7 active torsions:
REMARK  status: ('A' for Active; 'I' for Inactive)
REMARK    1  A    between atoms: C_2  and  C_3
REMARK    2  A    between atoms: C_3  and  C_4
REMARK    3  A    between atoms: C_4  and  C_5
REMARK    4  A    between atoms: N_11  and  C_12
REMARK    5  A    between atoms: C_14  and  C_15
REMARK    6  A    between atoms: C_15  and  C_16
REMARK    7  A    between atoms: C_16  and  C_17
REMARK                            x       y       z     vdW  Elec       q    Type
REMARK                         _______ _______ _______ _____ _____    ______ ____
ROOT
ATOM      1  C   UNL     1       6.936   5.748  17.647  0.00  0.00    +0.000 A 
ATOM      2  C   UNL     1       7.690   6.358  18.615  0.00  0.00    +0.000 A 
ATOM      3  C   UNL     1       7.986   7.646  18.111  0.00  0.00    +0.000 A 
ATOM      4  N   UNL     1       7.493   7.810  16.878  0.00  0.00    +0.000 NA
ATOM      5  N   UNL     1       6.884   6.642  16.609  0.00  0.00    +0.000 N 
ATOM      6  H   UNL     1       6.425   6.546  15.713  0.00  0.00    +0.000 HD
ENDROOT
BRANCH   1   9
ATOM      7  O   UNL     1       4.276   5.171  16.905  0.00  0.00    +0.000 OA
ATOM      8  C   UNL     1       4.957   4.266  17.363  0.00  0.00    +0.000 C 
ATOM      9  N   UNL     1       6.347   4.485  17.687  0.00  0.00    +0.000 N 
ATOM     10  H   UNL     1       6.947   3.699  17.895  0.00  0.00    +0.000 HD
BRANCH   8  11
ATOM     11  C   UNL     1       4.417   2.875  17.515  0.00  0.00    +0.000 C 
BRANCH  11  12
ATOM     12  C   UNL     1       2.898   2.816  17.564  0.00  0.00    +0.000 C 
BRANCH  12  13
ATOM     13  C   UNL     1       2.404   2.915  18.979  0.00  0.00    +0.000 A 
ATOM     14  C   UNL     1       3.210   2.527  20.043  0.00  0.00    +0.000 A 
ATOM     15  C   UNL     1       2.700   2.629  21.334  0.00  0.00    +0.000 A 
ATOM     16  C   UNL     1       1.410   3.109  21.522  0.00  0.00    +0.000 A 
ATOM     17  C   UNL     1       0.674   3.466  20.407  0.00  0.00    +0.000 A 
ATOM     18  N   UNL     1       1.142   3.375  19.141  0.00  0.00    +0.000 NA
ENDBRANCH  12  13
ENDBRANCH  11  12
ENDBRANCH   8  11
ENDBRANCH   1   9
BRANCH   3  19
ATOM     19  C   UNL     1       8.720   8.749  18.813  0.00  0.00    +0.000 C 
BRANCH  19  20
ATOM     20  C   UNL     1       8.686  10.061  18.024  0.00  0.00    +0.000 C 
BRANCH  20  21
ATOM     21  C   UNL     1       9.354  11.201  18.746  0.00  0.00    +0.000 A 
ATOM     22  C   UNL     1       9.060  12.526  18.402  0.00  0.00    +0.000 A 
ATOM     23  C   UNL     1       9.676  13.583  19.069  0.00  0.00    +0.000 A 
ATOM     24  C   UNL     1      10.595  13.323  20.085  0.00  0.00    +0.000 A 
ATOM     25  C   UNL     1      10.891  12.006  20.435  0.00  0.00    +0.000 A 
ATOM     26  C   UNL     1      10.276  10.947  19.769  0.00  0.00    +0.000 A 
ENDBRANCH  20  21
ENDBRANCH  19  20
ENDBRANCH   3  19
TORSDOF 7
ENDMDL
