MODEL 1
REMARK VINA RESULT:      -7.5      0.000      0.000
REMARK  Name = 
REMARK  5 active torsions:
REMARK  status: ('A' for Active; 'I' for Inactive)
REMARK    1  A    between atoms: C_2  and  C_3
REMARK    2  A    between atoms: C_6  and  C_7
REMARK    3  A    between atoms: C_13  and  C_14
REMARK    4  A    between atoms: C_22  and  C_23
REMARK    5  A    between atoms: C_29  and  O_30
REMARK                            x       y       z     vdW  Elec       q    Type
REMARK                         _______ _______ _______ _____ _____    ______ ____
ROOT
ATOM      1  C   UNL     1       1.005   8.830  20.646  0.00  0.00    +0.000 A 
ATOM      2  C   UNL     1       1.272   8.733  21.967  0.00  0.00    +0.000 A 
ATOM      3  C   UNL     1       0.593   9.586  22.967  0.00  0.00    +0.000 A 
ATOM      4  O   UNL     1       0.791   9.567  24.161  0.00  0.00    +0.000 OA
ATOM      5  N   UNL     1      -0.378  10.485  22.449  0.00  0.00    +0.000 N 
ATOM      6  C   UNL     1      -0.565  10.605  21.083  0.00  0.00    +0.000 A 
ATOM      7  C   UNL     1      -1.377  11.486  20.402  0.00  0.00    +0.000 A 
ATOM      8  C   UNL     1      -1.160  11.141  19.026  0.00  0.00    +0.000 A 
ATOM      9  N   UNL     1      -0.278  10.114  18.911  0.00  0.00    +0.000 NA
ATOM     10  N   UNL     1       0.093   9.795  20.171  0.00  0.00    +0.000 N 
ATOM     11  H   UNL     1      -0.907  11.032  23.116  0.00  0.00    +0.000 HD
ENDROOT
BRANCH   7  12
ATOM     12  C   UNL     1      -2.223  12.480  21.057  0.00  0.00    +0.000 A 
ATOM     13  C   UNL     1      -1.668  13.676  21.542  0.00  0.00    +0.000 A 
ATOM     14  C   UNL     1      -2.429  14.564  22.308  0.00  0.00    +0.000 A 
ATOM     15  C   UNL     1      -3.782  14.313  22.533  0.00  0.00    +0.000 A 
ATOM     16 CL   UNL     1      -4.656  15.437  23.507  0.00  0.00    +0.000 Cl
ATOM     17  C   UNL     1      -4.372  13.172  21.981  0.00  0.00    +0.000 A 
ATOM     18 CL   UNL     1      -6.058  12.836  22.143  0.00  0.00    +0.000 Cl
ATOM     19  C   UNL     1      -3.588  12.248  21.271  0.00  0.00    +0.000 A 
ENDBRANCH   7  12
BRANCH   1  23
ATOM     20  C   UNL     1       3.111   5.939  18.254  0.00  0.00    +0.000 A 
ATOM     21  C   UNL     1       2.527   5.583  19.472  0.00  0.00    +0.000 A 
ATOM     22  C   UNL     1       1.823   6.533  20.222  0.00  0.00    +0.000 A 
ATOM     23  C   UNL     1       1.685   7.858  19.766  0.00  0.00    +0.000 A 
ATOM     24  C   UNL     1       2.306   8.206  18.559  0.00  0.00    +0.000 A 
ATOM     25  C   UNL     1       3.007   7.257  17.806  0.00  0.00    +0.000 A 
BRANCH  20  27
ATOM     26  N   UNL     1       4.385   4.162  16.855  0.00  0.00    +0.000 NA
ATOM     27  C   UNL     1       3.816   4.961  17.476  0.00  0.00    +0.000 C 
ENDBRANCH  20  27
BRANCH  24  28
ATOM     28  O   UNL     1       2.316   9.477  18.057  0.00  0.00    +0.000 OA
ATOM     29  H   UNL     1       2.188   9.469  17.098  0.00  0.00    +0.000 HD
ENDBRANCH  24  28
ENDBRANCH   1  23
BRANCH   8  30
ATOM     30  C   UNL     1      -1.769  11.793  17.795  0.00  0.00    +0.000 C 
ATOM     31  F   UNL     1      -1.734  10.982  16.707  0.00  0.00    +0.000 F 
ATOM     32  F   UNL     1      -3.074  12.118  17.981  0.00  0.00    +0.000 F 
ATOM     33  F   UNL     1      -1.110  12.928  17.450  0.00  0.00    +0.000 F 
ENDBRANCH   8  30
TORSDOF 5
ENDMDL
MODEL 2
REMARK VINA RESULT:      -7.3      0.611      1.325
REMARK  Name = 
REMARK  5 active torsions:
REMARK  status: ('A' for Active; 'I' for Inactive)
REMARK    1  A    between atoms: C_2  and  C_3
REMARK    2  A    between atoms: C_6  and  C_7
REMARK    3  A    between atoms: C_13  and  C_14
REMARK    4  A    between atoms: C_22  and  C_23
REMARK    5  A    between atoms: C_29  and  O_30
REMARK                            x       y       z     vdW  Elec       q    Type
REMARK                         _______ _______ _______ _____ _____    ______ ____
ROOT
ATOM      1  C   UNL     1       0.981   8.812  20.649  0.00  0.00    +0.000 A 
ATOM      2  C   UNL     1       1.244   8.722  21.971  0.00  0.00    +0.000 A 
ATOM      3  C   UNL     1       0.571   9.588  22.964  0.00  0.00    +0.000 A 
ATOM      4  O   UNL     1       0.766   9.575  24.159  0.00  0.00    +0.000 OA
ATOM      5  N   UNL     1      -0.391  10.492  22.438  0.00  0.00    +0.000 N 
ATOM      6  C   UNL     1      -0.573  10.604  21.071  0.00  0.00    +0.000 A 
ATOM      7  C   UNL     1      -1.375  11.488  20.382  0.00  0.00    +0.000 A 
ATOM      8  C   UNL     1      -1.158  11.132  19.009  0.00  0.00    +0.000 A 
ATOM      9  N   UNL     1      -0.286  10.096  18.903  0.00  0.00    +0.000 NA
ATOM     10  N   UNL     1       0.079   9.782  20.166  0.00  0.00    +0.000 N 
ATOM     11  H   UNL     1      -0.916  11.048  23.100  0.00  0.00    +0.000 HD
ENDROOT
BRANCH   7  12
ATOM     12  C   UNL     1      -2.214  12.495  21.028  0.00  0.00    +0.000 A 
ATOM     13  C   UNL     1      -3.578  12.247  21.250  0.00  0.00    +0.000 A 
ATOM     14  C   UNL     1      -4.425  13.254  21.721  0.00  0.00    +0.000 A 
ATOM     15  C   UNL     1      -3.907  14.504  22.060  0.00  0.00    +0.000 A 
ATOM     16 CL   UNL     1      -5.012  15.708  22.612  0.00  0.00    +0.000 Cl
ATOM     17  C   UNL     1      -2.535  14.738  21.931  0.00  0.00    +0.000 A 
ATOM     18 CL   UNL     1      -1.807  16.229  22.408  0.00  0.00    +0.000 Cl
ATOM     19  C   UNL     1      -1.699  13.746  21.391  0.00  0.00    +0.000 A 
ENDBRANCH   7  12
BRANCH   1  23
ATOM     20  C   UNL     1       3.066   5.886  18.282  0.00  0.00    +0.000 A 
ATOM     21  C   UNL     1       2.476   5.543  19.501  0.00  0.00    +0.000 A 
ATOM     22  C   UNL     1       1.778   6.505  20.242  0.00  0.00    +0.000 A 
ATOM     23  C   UNL     1       1.654   7.828  19.778  0.00  0.00    +0.000 A 
ATOM     24  C   UNL     1       2.282   8.162  18.570  0.00  0.00    +0.000 A 
ATOM     25  C   UNL     1       2.976   7.202  17.825  0.00  0.00    +0.000 A 
BRANCH  20  27
ATOM     26  N   UNL     1       4.327   4.103  16.879  0.00  0.00    +0.000 NA
ATOM     27  C   UNL     1       3.764   4.896  17.512  0.00  0.00    +0.000 C 
ENDBRANCH  20  27
BRANCH  24  28
ATOM     28  O   UNL     1       2.306   9.430  18.060  0.00  0.00    +0.000 OA
ATOM     29  H   UNL     1       1.588   9.963  18.432  0.00  0.00    +0.000 HD
ENDBRANCH  24  28
ENDBRANCH   1  23
BRANCH   8  30
ATOM     30  C   UNL     1      -1.759  11.781  17.772  0.00  0.00    +0.000 C 
ATOM     31  F   UNL     1      -1.728  10.963  16.689  0.00  0.00    +0.000 F 
ATOM     32  F   UNL     1      -3.061  12.119  17.952  0.00  0.00    +0.000 F 
ATOM     33  F   UNL     1      -1.089  12.908  17.422  0.00  0.00    +0.000 F 
ENDBRANCH   8  30
TORSDOF 5
ENDMDL
MODEL 3
REMARK VINA RESULT:      -7.3      1.820      2.146
REMARK  Name = 
REMARK  5 active torsions:
REMARK  status: ('A' for Active; 'I' for Inactive)
REMARK    1  A    between atoms: C_2  and  C_3
REMARK    2  A    between atoms: C_6  and  C_7
REMARK    3  A    between atoms: C_13  and  C_14
REMARK    4  A    between atoms: C_22  and  C_23
REMARK    5  A    between atoms: C_29  and  O_30
REMARK                            x       y       z     vdW  Elec       q    Type
REMARK                         _______ _______ _______ _____ _____    ______ ____
ROOT
ATOM      1  C   UNL     1       0.576   9.589  19.764  0.00  0.00    +0.000 A 
ATOM      2  C   UNL     1       0.813  10.005  21.027  0.00  0.00    +0.000 A 
ATOM      3  C   UNL     1      -0.113  10.913  21.739  0.00  0.00    +0.000 A 
ATOM      4  O   UNL     1       0.041  11.339  22.862  0.00  0.00    +0.000 OA
ATOM      5  N   UNL     1      -1.280  11.288  21.019  0.00  0.00    +0.000 N 
ATOM      6  C   UNL     1      -1.445  10.899  19.701  0.00  0.00    +0.000 A 
ATOM      7  C   UNL     1      -2.448  11.249  18.823  0.00  0.00    +0.000 A 
ATOM      8  C   UNL     1      -2.094  10.549  17.621  0.00  0.00    +0.000 A 
ATOM      9  N   UNL     1      -0.956   9.828  17.789  0.00  0.00    +0.000 NA
ATOM     10  N   UNL     1      -0.554  10.053  19.060  0.00  0.00    +0.000 N 
ATOM     11  H   UNL     1      -1.964  11.852  21.505  0.00  0.00    +0.000 HD
ENDROOT
BRANCH   7  12
ATOM     12  C   UNL     1      -3.562  12.126  19.173  0.00  0.00    +0.000 A 
ATOM     13  C   UNL     1      -3.401  13.123  20.148  0.00  0.00    +0.000 A 
ATOM     14  C   UNL     1      -4.495  13.865  20.607  0.00  0.00    +0.000 A 
ATOM     15  C   UNL     1      -5.754  13.680  20.038  0.00  0.00    +0.000 A 
ATOM     16 CL   UNL     1      -7.064  14.609  20.669  0.00  0.00    +0.000 Cl
ATOM     17  C   UNL     1      -5.913  12.754  19.003  0.00  0.00    +0.000 A 
ATOM     18 CL   UNL     1      -7.421  12.529  18.192  0.00  0.00    +0.000 Cl
ATOM     19  C   UNL     1      -4.827  11.963  18.593  0.00  0.00    +0.000 A 
ENDBRANCH   7  12
BRANCH   1  23
ATOM     20  C   UNL     1       3.472   6.750  18.325  0.00  0.00    +0.000 A 
ATOM     21  C   UNL     1       2.802   6.550  19.535  0.00  0.00    +0.000 A 
ATOM     22  C   UNL     1       1.843   7.473  19.971  0.00  0.00    +0.000 A 
ATOM     23  C   UNL     1       1.532   8.613  19.205  0.00  0.00    +0.000 A 
ATOM     24  C   UNL     1       2.239   8.815  18.011  0.00  0.00    +0.000 A 
ATOM     25  C   UNL     1       3.195   7.892  17.571  0.00  0.00    +0.000 A 
BRANCH  20  27
ATOM     26  N   UNL     1       5.223   5.028  17.486  0.00  0.00    +0.000 NA
ATOM     27  C   UNL     1       4.441   5.795  17.868  0.00  0.00    +0.000 C 
ENDBRANCH  20  27
BRANCH  24  28
ATOM     28  O   UNL     1       2.089   9.923  17.227  0.00  0.00    +0.000 OA
ATOM     29  H   UNL     1       2.895  10.459  17.231  0.00  0.00    +0.000 HD
ENDBRANCH  24  28
ENDBRANCH   1  23
BRANCH   8  30
ATOM     30  C   UNL     1      -2.820  10.568  16.285  0.00  0.00    +0.000 C 
ATOM     31  F   UNL     1      -2.332   9.647  15.415  0.00  0.00    +0.000 F 
ATOM     32  F   UNL     1      -4.143  10.298  16.416  0.00  0.00    +0.000 F 
ATOM     33  F   UNL     1      -2.708  11.774  15.670  0.00  0.00    +0.000 F 
ENDBRANCH   8  30
TORSDOF 5
ENDMDL
MODEL 4
REMARK VINA RESULT:      -7.2      4.973      6.466
REMARK  Name = 
REMARK  5 active torsions:
REMARK  status: ('A' for Active; 'I' for Inactive)
REMARK    1  A    between atoms: C_2  and  C_3
REMARK    2  A    between atoms: C_6  and  C_7
REMARK    3  A    between atoms: C_13  and  C_14
REMARK    4  A    between atoms: C_22  and  C_23
REMARK    5  A    between atoms: C_29  and  O_30
REMARK                            x       y       z     vdW  Elec       q    Type
REMARK                         _______ _______ _______ _____ _____    ______ ____
ROOT
ATOM      1  C   UNL     1       1.851  14.786  19.041  0.00  0.00    +0.000 A 
ATOM      2  C   UNL     1       1.215  15.974  18.948  0.00  0.00    +0.000 A 
ATOM      3  C   UNL     1      -0.256  16.067  18.818  0.00  0.00    +0.000 A 
ATOM      4  O   UNL     1      -0.891  17.092  18.715  0.00  0.00    +0.000 OA
ATOM      5  N   UNL     1      -0.952  14.828  18.831  0.00  0.00    +0.000 N 
ATOM      6  C   UNL     1      -0.256  13.633  18.850  0.00  0.00    +0.000 A 
ATOM      7  C   UNL     1      -0.752  12.350  18.763  0.00  0.00    +0.000 A 
ATOM      8  C   UNL     1       0.426  11.534  18.839  0.00  0.00    +0.000 A 
ATOM      9  N   UNL     1       1.543  12.295  18.970  0.00  0.00    +0.000 NA
ATOM     10  N   UNL     1       1.124  13.580  18.966  0.00  0.00    +0.000 N 
ATOM     11  H   UNL     1      -1.963  14.864  18.812  0.00  0.00    +0.000 HD
ENDROOT
BRANCH   7  12
ATOM     12  C   UNL     1      -2.173  12.037  18.640  0.00  0.00    +0.000 A 
ATOM     13  C   UNL     1      -2.679  11.487  17.451  0.00  0.00    +0.000 A 
ATOM     14  C   UNL     1      -4.055  11.329  17.259  0.00  0.00    +0.000 A 
ATOM     15  C   UNL     1      -4.945  11.640  18.286  0.00  0.00    +0.000 A 
ATOM     16 CL   UNL     1      -6.631  11.445  17.973  0.00  0.00    +0.000 Cl
ATOM     17  C   UNL     1      -4.452  12.104  19.508  0.00  0.00    +0.000 A 
ATOM     18 CL   UNL     1      -5.483  12.431  20.854  0.00  0.00    +0.000 Cl
ATOM     19  C   UNL     1      -3.075  12.327  19.672  0.00  0.00    +0.000 A 
ENDBRANCH   7  12
BRANCH   1  23
ATOM     20  C   UNL     1       6.071  15.097  19.823  0.00  0.00    +0.000 A 
ATOM     21  C   UNL     1       5.152  14.929  20.862  0.00  0.00    +0.000 A 
ATOM     22  C   UNL     1       3.786  14.803  20.583  0.00  0.00    +0.000 A 
ATOM     23  C   UNL     1       3.310  14.838  19.258  0.00  0.00    +0.000 A 
ATOM     24  C   UNL     1       4.242  15.041  18.231  0.00  0.00    +0.000 A 
ATOM     25  C   UNL     1       5.609  15.164  18.506  0.00  0.00    +0.000 A 
BRANCH  20  27
ATOM     26  N   UNL     1       8.610  15.294  20.323  0.00  0.00    +0.000 NA
ATOM     27  C   UNL     1       7.473  15.207  20.106  0.00  0.00    +0.000 C 
ENDBRANCH  20  27
BRANCH  24  28
ATOM     28  O   UNL     1       3.894  15.179  16.917  0.00  0.00    +0.000 OA
ATOM     29  H   UNL     1       4.658  15.442  16.384  0.00  0.00    +0.000 HD
ENDBRANCH  24  28
ENDBRANCH   1  23
BRANCH   8  30
ATOM     30  C   UNL     1       0.514  10.017  18.768  0.00  0.00    +0.000 C 
ATOM     31  F   UNL     1      -0.140   9.411  19.792  0.00  0.00    +0.000 F 
ATOM     32  F   UNL     1      -0.031   9.525  17.628  0.00  0.00    +0.000 F 
ATOM     33  F   UNL     1       1.801   9.587  18.825  0.00  0.00    +0.000 F 
ENDBRANCH   8  30
TORSDOF 5
ENDMDL
MODEL 5
REMARK VINA RESULT:      -7.1      5.105      6.569
REMARK  Name = 
REMARK  5 active torsions:
REMARK  status: ('A' for Active; 'I' for Inactive)
REMARK    1  A    between atoms: C_2  and  C_3
REMARK    2  A    between atoms: C_6  and  C_7
REMARK    3  A    between atoms: C_13  and  C_14
REMARK    4  A    between atoms: C_22  and  C_23
REMARK    5  A    between atoms: C_29  and  O_30
REMARK                            x       y       z     vdW  Elec       q    Type
REMARK                         _______ _______ _______ _____ _____    ______ ____
ROOT
ATOM      1  C   UNL     1       2.116  14.897  18.812  0.00  0.00    +0.000 A 
ATOM      2  C   UNL     1       1.456  16.071  18.708  0.00  0.00    +0.000 A 
ATOM      3  C   UNL     1      -0.018  16.134  18.594  0.00  0.00    +0.000 A 
ATOM      4  O   UNL     1      -0.674  17.144  18.482  0.00  0.00    +0.000 OA
ATOM      5  N   UNL     1      -0.690  14.882  18.636  0.00  0.00    +0.000 N 
ATOM      6  C   UNL     1       0.030  13.700  18.667  0.00  0.00    +0.000 A 
ATOM      7  C   UNL     1      -0.443  12.407  18.607  0.00  0.00    +0.000 A 
ATOM      8  C   UNL     1       0.752  11.615  18.683  0.00  0.00    +0.000 A 
ATOM      9  N   UNL     1       1.855  12.399  18.787  0.00  0.00    +0.000 NA
ATOM     10  N   UNL     1       1.411  13.676  18.766  0.00  0.00    +0.000 N 
ATOM     11  H   UNL     1      -1.701  14.898  18.630  0.00  0.00    +0.000 HD
ENDROOT
BRANCH   7  12
ATOM     12  C   UNL     1      -1.859  12.065  18.507  0.00  0.00    +0.000 A 
ATOM     13  C   UNL     1      -2.371  11.499  17.329  0.00  0.00    +0.000 A 
ATOM     14  C   UNL     1      -3.747  11.312  17.159  0.00  0.00    +0.000 A 
ATOM     15  C   UNL     1      -4.628  11.611  18.197  0.00  0.00    +0.000 A 
ATOM     16 CL   UNL     1      -6.313  11.380  17.911  0.00  0.00    +0.000 Cl
ATOM     17  C   UNL     1      -4.125  12.091  19.410  0.00  0.00    +0.000 A 
ATOM     18 CL   UNL     1      -5.143  12.403  20.769  0.00  0.00    +0.000 Cl
ATOM     19  C   UNL     1      -2.750  12.342  19.552  0.00  0.00    +0.000 A 
ENDBRANCH   7  12
BRANCH   1  23
ATOM     20  C   UNL     1       6.395  14.961  19.263  0.00  0.00    +0.000 A 
ATOM     21  C   UNL     1       5.801  14.907  18.000  0.00  0.00    +0.000 A 
ATOM     22  C   UNL     1       4.406  14.914  17.874  0.00  0.00    +0.000 A 
ATOM     23  C   UNL     1       3.577  14.980  19.011  0.00  0.00    +0.000 A 
ATOM     24  C   UNL     1       4.189  14.999  20.271  0.00  0.00    +0.000 A 
ATOM     25  C   UNL     1       5.583  14.996  20.399  0.00  0.00    +0.000 A 
BRANCH  20  27
ATOM     26  N   UNL     1       8.979  14.972  19.503  0.00  0.00    +0.000 NA
ATOM     27  C   UNL     1       7.824  14.973  19.392  0.00  0.00    +0.000 C 
ENDBRANCH  20  27
BRANCH  24  28
ATOM     28  O   UNL     1       3.492  14.977  21.446  0.00  0.00    +0.000 OA
ATOM     29  H   UNL     1       3.241  15.872  21.714  0.00  0.00    +0.000 HD
ENDBRANCH  24  28
ENDBRANCH   1  23
BRANCH   8  30
ATOM     30  C   UNL     1       0.868  10.099  18.637  0.00  0.00    +0.000 C 
ATOM     31  F   UNL     1       0.472   9.513  19.795  0.00  0.00    +0.000 F 
ATOM     32  F   UNL     1       0.102   9.556  17.657  0.00  0.00    +0.000 F 
ATOM     33  F   UNL     1       2.149   9.701  18.423  0.00  0.00    +0.000 F 
ENDBRANCH   8  30
TORSDOF 5
ENDMDL
MODEL 6
REMARK VINA RESULT:      -7.1      5.230      9.178
REMARK  Name = 
REMARK  5 active torsions:
REMARK  status: ('A' for Active; 'I' for Inactive)
REMARK    1  A    between atoms: C_2  and  C_3
REMARK    2  A    between atoms: C_6  and  C_7
REMARK    3  A    between atoms: C_13  and  C_14
REMARK    4  A    between atoms: C_22  and  C_23
REMARK    5  A    between atoms: C_29  and  O_30
REMARK                            x       y       z     vdW  Elec       q    Type
REMARK                         _______ _______ _______ _____ _____    ______ ____
ROOT
ATOM      1  C   UNL     1       0.928   9.924  19.904  0.00  0.00    +0.000 A 
ATOM      2  C   UNL     1       1.370  10.843  19.019  0.00  0.00    +0.000 A 
ATOM      3  C   UNL     1       2.300  10.492  17.923  0.00  0.00    +0.000 A 
ATOM      4  O   UNL     1       2.749  11.262  17.104  0.00  0.00    +0.000 OA
ATOM      5  N   UNL     1       2.666   9.120  17.846  0.00  0.00    +0.000 N 
ATOM      6  C   UNL     1       2.250   8.228  18.818  0.00  0.00    +0.000 A 
ATOM      7  C   UNL     1       2.587   6.899  18.963  0.00  0.00    +0.000 A 
ATOM      8  C   UNL     1       1.859   6.499  20.133  0.00  0.00    +0.000 A 
ATOM      9  N   UNL     1       1.135   7.531  20.637  0.00  0.00    +0.000 NA
ATOM     10  N   UNL     1       1.384   8.591  19.836  0.00  0.00    +0.000 N 
ATOM     11  H   UNL     1       3.245   8.838  17.066  0.00  0.00    +0.000 HD
ENDROOT
BRANCH   7  12
ATOM     12  C   UNL     1       3.479   6.185  18.053  0.00  0.00    +0.000 A 
ATOM     13  C   UNL     1       3.046   5.018  17.405  0.00  0.00    +0.000 A 
ATOM     14  C   UNL     1       3.934   4.238  16.657  0.00  0.00    +0.000 A 
ATOM     15  C   UNL     1       5.251   4.657  16.475  0.00  0.00    +0.000 A 
ATOM     16 CL   UNL     1       6.299   3.634  15.562  0.00  0.00    +0.000 Cl
ATOM     17  C   UNL     1       5.674   5.863  17.039  0.00  0.00    +0.000 A 
ATOM     18 CL   UNL     1       7.263   6.490  16.788  0.00  0.00    +0.000 Cl
ATOM     19  C   UNL     1       4.799   6.608  17.846  0.00  0.00    +0.000 A 
ENDBRANCH   7  12
BRANCH   1  23
ATOM     20  C   UNL     1      -1.942  11.483  22.706  0.00  0.00    +0.000 A 
ATOM     21  C   UNL     1      -2.043  11.755  21.339  0.00  0.00    +0.000 A 
ATOM     22  C   UNL     1      -1.113  11.215  20.441  0.00  0.00    +0.000 A 
ATOM     23  C   UNL     1      -0.066  10.389  20.892  0.00  0.00    +0.000 A 
ATOM     24  C   UNL     1       0.040  10.155  22.270  0.00  0.00    +0.000 A 
ATOM     25  C   UNL     1      -0.889  10.690  23.169  0.00  0.00    +0.000 A 
BRANCH  20  27
ATOM     26  N   UNL     1      -3.689  12.446  24.366  0.00  0.00    +0.000 NA
ATOM     27  C   UNL     1      -2.904  12.021  23.624  0.00  0.00    +0.000 C 
ENDBRANCH  20  27
BRANCH  24  28
ATOM     28  O   UNL     1       1.060   9.442  22.835  0.00  0.00    +0.000 OA
ATOM     29  H   UNL     1       0.879   9.265  23.769  0.00  0.00    +0.000 HD
ENDBRANCH  24  28
ENDBRANCH   1  23
BRANCH   8  30
ATOM     30  C   UNL     1       1.854   5.135  20.805  0.00  0.00    +0.000 C 
ATOM     31  F   UNL     1       2.701   4.258  20.207  0.00  0.00    +0.000 F 
ATOM     32  F   UNL     1       2.238   5.204  22.105  0.00  0.00    +0.000 F 
ATOM     33  F   UNL     1       0.623   4.564  20.772  0.00  0.00    +0.000 F 
ENDBRANCH   8  30
TORSDOF 5
ENDMDL
MODEL 7
REMARK VINA RESULT:      -7.0      1.706      2.371
REMARK  Name = 
REMARK  5 active torsions:
REMARK  status: ('A' for Active; 'I' for Inactive)
REMARK    1  A    between atoms: C_2  and  C_3
REMARK    2  A    between atoms: C_6  and  C_7
REMARK    3  A    between atoms: C_13  and  C_14
REMARK    4  A    between atoms: C_22  and  C_23
REMARK    5  A    between atoms: C_29  and  O_30
REMARK                            x       y       z     vdW  Elec       q    Type
REMARK                         _______ _______ _______ _____ _____    ______ ____
ROOT
ATOM      1  C   UNL     1       0.348   9.868  19.918  0.00  0.00    +0.000 A 
ATOM      2  C   UNL     1       0.631  10.216  21.192  0.00  0.00    +0.000 A 
ATOM      3  C   UNL     1      -0.272  11.076  21.988  0.00  0.00    +0.000 A 
ATOM      4  O   UNL     1      -0.078  11.440  23.126  0.00  0.00    +0.000 OA
ATOM      5  N   UNL     1      -1.468  11.481  21.334  0.00  0.00    +0.000 N 
ATOM      6  C   UNL     1      -1.681  11.165  20.004  0.00  0.00    +0.000 A 
ATOM      7  C   UNL     1      -2.719  11.555  19.185  0.00  0.00    +0.000 A 
ATOM      8  C   UNL     1      -2.407  10.926  17.934  0.00  0.00    +0.000 A 
ATOM      9  N   UNL     1      -1.260  10.206  18.018  0.00  0.00    +0.000 NA
ATOM     10  N   UNL     1      -0.811  10.362  19.284  0.00  0.00    +0.000 N 
ATOM     11  H   UNL     1      -2.136  12.012  21.877  0.00  0.00    +0.000 HD
ENDROOT
BRANCH   7  12
ATOM     12  C   UNL     1      -3.823  12.403  19.626  0.00  0.00    +0.000 A 
ATOM     13  C   UNL     1      -5.151  12.037  19.356  0.00  0.00    +0.000 A 
ATOM     14  C   UNL     1      -6.209  12.909  19.630  0.00  0.00    +0.000 A 
ATOM     15  C   UNL     1      -5.965  14.131  20.255  0.00  0.00    +0.000 A 
ATOM     16 CL   UNL     1      -7.312  15.170  20.541  0.00  0.00    +0.000 Cl
ATOM     17  C   UNL     1      -4.657  14.473  20.613  0.00  0.00    +0.000 A 
ATOM     18 CL   UNL     1      -4.285  15.928  21.464  0.00  0.00    +0.000 Cl
ATOM     19  C   UNL     1      -3.591  13.624  20.273  0.00  0.00    +0.000 A 
ENDBRANCH   7  12
BRANCH   1  23
ATOM     20  C   UNL     1       3.198   7.130  18.216  0.00  0.00    +0.000 A 
ATOM     21  C   UNL     1       2.546   6.842  19.418  0.00  0.00    +0.000 A 
ATOM     22  C   UNL     1       1.602   7.735  19.940  0.00  0.00    +0.000 A 
ATOM     23  C   UNL     1       1.288   8.932  19.269  0.00  0.00    +0.000 A 
ATOM     24  C   UNL     1       1.976   9.221  18.083  0.00  0.00    +0.000 A 
ATOM     25  C   UNL     1       2.918   8.329  17.557  0.00  0.00    +0.000 A 
BRANCH  20  27
ATOM     26  N   UNL     1       4.916   5.451  17.233  0.00  0.00    +0.000 NA
ATOM     27  C   UNL     1       4.152   6.207  17.670  0.00  0.00    +0.000 C 
ENDBRANCH  20  27
BRANCH  24  28
ATOM     28  O   UNL     1       1.822  10.387  17.388  0.00  0.00    +0.000 OA
ATOM     29  H   UNL     1       0.947  10.429  16.977  0.00  0.00    +0.000 HD
ENDBRANCH  24  28
ENDBRANCH   1  23
BRANCH   8  30
ATOM     30  C   UNL     1      -3.184  11.014  16.629  0.00  0.00    +0.000 C 
ATOM     31  F   UNL     1      -4.100  12.017  16.637  0.00  0.00    +0.000 F 
ATOM     32  F   UNL     1      -2.374  11.251  15.566  0.00  0.00    +0.000 F 
ATOM     33  F   UNL     1      -3.868   9.869  16.375  0.00  0.00    +0.000 F 
ENDBRANCH   8  30
TORSDOF 5
ENDMDL
MODEL 8
REMARK VINA RESULT:      -7.0      5.221      6.668
REMARK  Name = 
REMARK  5 active torsions:
REMARK  status: ('A' for Active; 'I' for Inactive)
REMARK    1  A    between atoms: C_2  and  C_3
REMARK    2  A    between atoms: C_6  and  C_7
REMARK    3  A    between atoms: C_13  and  C_14
REMARK    4  A    between atoms: C_22  and  C_23
REMARK    5  A    between atoms: C_29  and  O_30
REMARK                            x       y       z     vdW  Elec       q    Type
REMARK                         _______ _______ _______ _____ _____    ______ ____
ROOT
ATOM      1  C   UNL     1       2.191  14.769  19.134  0.00  0.00    +0.000 A 
ATOM      2  C   UNL     1       1.593  15.972  18.989  0.00  0.00    +0.000 A 
ATOM      3  C   UNL     1       0.139  16.100  18.748  0.00  0.00    +0.000 A 
ATOM      4  O   UNL     1      -0.462  17.139  18.594  0.00  0.00    +0.000 OA
ATOM      5  N   UNL     1      -0.587  14.878  18.714  0.00  0.00    +0.000 N 
ATOM      6  C   UNL     1       0.077  13.666  18.791  0.00  0.00    +0.000 A 
ATOM      7  C   UNL     1      -0.443  12.395  18.672  0.00  0.00    +0.000 A 
ATOM      8  C   UNL     1       0.706  11.551  18.840  0.00  0.00    +0.000 A 
ATOM      9  N   UNL     1       1.828  12.286  19.051  0.00  0.00    +0.000 NA
ATOM     10  N   UNL     1       1.442  13.581  19.010  0.00  0.00    +0.000 N 
ATOM     11  H   UNL     1      -1.592  14.938  18.620  0.00  0.00    +0.000 HD
ENDROOT
BRANCH   7  12
ATOM     12  C   UNL     1      -1.858  12.116  18.445  0.00  0.00    +0.000 A 
ATOM     13  C   UNL     1      -2.802  12.361  19.455  0.00  0.00    +0.000 A 
ATOM     14  C   UNL     1      -4.132  11.955  19.312  0.00  0.00    +0.000 A 
ATOM     15  C   UNL     1      -4.561  11.370  18.121  0.00  0.00    +0.000 A 
ATOM     16 CL   UNL     1      -6.209  10.870  18.021  0.00  0.00    +0.000 Cl
ATOM     17  C   UNL     1      -3.655  11.201  17.071  0.00  0.00    +0.000 A 
ATOM     18 CL   UNL     1      -4.129  10.563  15.538  0.00  0.00    +0.000 Cl
ATOM     19  C   UNL     1      -2.304  11.547  17.244  0.00  0.00    +0.000 A 
ENDBRANCH   7  12
BRANCH   1  23
ATOM     20  C   UNL     1       6.348  14.987  20.224  0.00  0.00    +0.000 A 
ATOM     21  C   UNL     1       5.349  14.883  21.195  0.00  0.00    +0.000 A 
ATOM     22  C   UNL     1       4.004  14.786  20.817  0.00  0.00    +0.000 A 
ATOM     23  C   UNL     1       3.631  14.787  19.460  0.00  0.00    +0.000 A 
ATOM     24  C   UNL     1       4.643  14.927  18.500  0.00  0.00    +0.000 A 
ATOM     25  C   UNL     1       5.988  15.021  18.875  0.00  0.00    +0.000 A 
BRANCH  20  27
ATOM     26  N   UNL     1       8.841  15.143  20.927  0.00  0.00    +0.000 NA
ATOM     27  C   UNL     1       7.728  15.068  20.609  0.00  0.00    +0.000 C 
ENDBRANCH  20  27
BRANCH  24  28
ATOM     28  O   UNL     1       4.399  15.028  17.159  0.00  0.00    +0.000 OA
ATOM     29  H   UNL     1       3.621  15.579  16.992  0.00  0.00    +0.000 HD
ENDBRANCH  24  28
ENDBRANCH   1  23
BRANCH   8  30
ATOM     30  C   UNL     1       0.762  10.033  18.783  0.00  0.00    +0.000 C 
ATOM     31  F   UNL     1       0.172   9.533  17.667  0.00  0.00    +0.000 F 
ATOM     32  F   UNL     1       2.036   9.567  18.778  0.00  0.00    +0.000 F 
ATOM     33  F   UNL     1       0.124   9.467  19.841  0.00  0.00    +0.000 F 
ENDBRANCH   8  30
TORSDOF 5
ENDMDL
MODEL 9
REMARK VINA RESULT:      -6.9      3.442      4.440
REMARK  Name = 
REMARK  5 active torsions:
REMARK  status: ('A' for Active; 'I' for Inactive)
REMARK    1  A    between atoms: C_2  and  C_3
REMARK    2  A    between atoms: C_6  and  C_7
REMARK    3  A    between atoms: C_13  and  C_14
REMARK    4  A    between atoms: C_22  and  C_23
REMARK    5  A    between atoms: C_29  and  O_30
REMARK                            x       y       z     vdW  Elec       q    Type
REMARK                         _______ _______ _______ _____ _____    ______ ____
ROOT
ATOM      1  C   UNL     1       0.296  10.193  18.937  0.00  0.00    +0.000 A 
ATOM      2  C   UNL     1      -0.934   9.904  18.458  0.00  0.00    +0.000 A 
ATOM      3  C   UNL     1      -1.974  10.942  18.291  0.00  0.00    +0.000 A 
ATOM      4  O   UNL     1      -3.099  10.755  17.885  0.00  0.00    +0.000 OA
ATOM      5  N   UNL     1      -1.581  12.264  18.635  0.00  0.00    +0.000 N 
ATOM      6  C   UNL     1      -0.338  12.504  19.192  0.00  0.00    +0.000 A 
ATOM      7  C   UNL     1       0.171  13.689  19.678  0.00  0.00    +0.000 A 
ATOM      8  C   UNL     1       1.487  13.328  20.121  0.00  0.00    +0.000 A 
ATOM      9  N   UNL     1       1.735  12.011  19.901  0.00  0.00    +0.000 NA
ATOM     10  N   UNL     1       0.613  11.506  19.342  0.00  0.00    +0.000 N 
ATOM     11  H   UNL     1      -2.249  13.005  18.466  0.00  0.00    +0.000 HD
ENDROOT
BRANCH   7  12
ATOM     12  C   UNL     1      -0.565  14.951  19.668  0.00  0.00    +0.000 A 
ATOM     13  C   UNL     1      -1.540  15.212  20.643  0.00  0.00    +0.000 A 
ATOM     14  C   UNL     1      -2.361  16.341  20.557  0.00  0.00    +0.000 A 
ATOM     15  C   UNL     1      -2.164  17.273  19.539  0.00  0.00    +0.000 A 
ATOM     16 CL   UNL     1      -3.229  18.630  19.477  0.00  0.00    +0.000 Cl
ATOM     17  C   UNL     1      -1.138  17.074  18.612  0.00  0.00    +0.000 A 
ATOM     18 CL   UNL     1      -0.779  18.223  17.374  0.00  0.00    +0.000 Cl
ATOM     19  C   UNL     1      -0.362  15.904  18.661  0.00  0.00    +0.000 A 
ENDBRANCH   7  12
BRANCH   1  23
ATOM     20  C   UNL     1       3.039   6.879  18.837  0.00  0.00    +0.000 A 
ATOM     21  C   UNL     1       2.888   7.727  17.737  0.00  0.00    +0.000 A 
ATOM     22  C   UNL     1       2.009   8.816  17.800  0.00  0.00    +0.000 A 
ATOM     23  C   UNL     1       1.267   9.081  18.967  0.00  0.00    +0.000 A 
ATOM     24  C   UNL     1       1.406   8.201  20.049  0.00  0.00    +0.000 A 
ATOM     25  C   UNL     1       2.286   7.114  19.990  0.00  0.00    +0.000 A 
BRANCH  20  27
ATOM     26  N   UNL     1       4.688   4.878  18.723  0.00  0.00    +0.000 NA
ATOM     27  C   UNL     1       3.953   5.775  18.780  0.00  0.00    +0.000 C 
ENDBRANCH  20  27
BRANCH  24  28
ATOM     28  O   UNL     1       0.677   8.304  21.200  0.00  0.00    +0.000 OA
ATOM     29  H   UNL     1       1.247   8.533  21.948  0.00  0.00    +0.000 HD
ENDBRANCH  24  28
ENDBRANCH   1  23
BRANCH   8  30
ATOM     30  C   UNL     1       2.526  14.222  20.779  0.00  0.00    +0.000 C 
ATOM     31  F   UNL     1       1.998  14.991  21.767  0.00  0.00    +0.000 F 
ATOM     32  F   UNL     1       3.528  13.508  21.352  0.00  0.00    +0.000 F 
ATOM     33  F   UNL     1       3.090  15.077  19.888  0.00  0.00    +0.000 F 
ENDBRANCH   8  30
TORSDOF 5
ENDMDL
