MODEL 1
REMARK VINA RESULT:      -7.1      0.000      0.000
REMARK  Name = 
REMARK  8 active torsions:
REMARK  status: ('A' for Active; 'I' for Inactive)
REMARK    1  A    between atoms: C_1  and  C_2
REMARK    2  A    between atoms: C_2  and  C_3
REMARK    3  A    between atoms: C_3  and  C_4
REMARK    4  A    between atoms: C_3  and  C_11
REMARK    5  A    between atoms: C_5  and  C_6
REMARK    6  A    between atoms: C_9  and  O_10
REMARK    7  A    between atoms: C_12  and  C_13
REMARK    8  A    between atoms: C_16  and  O_17
REMARK                            x       y       z     vdW  Elec       q    Type
REMARK                         _______ _______ _______ _____ _____    ______ ____
ROOT
ATOM      1  C   UNL     1       4.414   5.257  17.060  0.00  0.00    +0.000 C 
ENDROOT
BRANCH   1   2
ATOM      2  C   UNL     1       5.679   5.475  16.274  0.00  0.00    +0.000 A 
ATOM      3  C   UNL     1       6.133   4.985  15.013  0.00  0.00    +0.000 A 
ATOM      4  C   UNL     1       5.481   4.069  14.047  0.00  0.00    +0.000 C 
ATOM      5  N   UNL     1       7.365   5.434  14.718  0.00  0.00    +0.000 NA
ATOM      6  O   UNL     1       7.763   6.184  15.806  0.00  0.00    +0.000 OA
ATOM      7  C   UNL     1       6.772   6.188  16.722  0.00  0.00    +0.000 A 
BRANCH   7   8
ATOM      8  O   UNL     1       7.056   6.836  17.837  0.00  0.00    +0.000 OA
ATOM      9  H   UNL     1       6.221   6.829  18.335  0.00  0.00    +0.000 HD
ENDBRANCH   7   8
ENDBRANCH   1   2
BRANCH   1  10
ATOM     10  C   UNL     1       4.456   4.147  18.088  0.00  0.00    +0.000 A 
ATOM     11  C   UNL     1       3.606   2.998  18.239  0.00  0.00    +0.000 A 
ATOM     12  C   UNL     1       2.447   2.536  17.437  0.00  0.00    +0.000 C 
ATOM     13  N   UNL     1       3.936   2.274  19.319  0.00  0.00    +0.000 NA
ATOM     14  O   UNL     1       4.967   2.949  19.925  0.00  0.00    +0.000 OA
ATOM     15  C   UNL     1       5.250   4.058  19.212  0.00  0.00    +0.000 A 
BRANCH  15  16
ATOM     16  O   UNL     1       6.196   4.808  19.748  0.00  0.00    +0.000 OA
ATOM     17  H   UNL     1       6.258   4.497  20.668  0.00  0.00    +0.000 HD
ENDBRANCH  15  16
ENDBRANCH   1  10
BRANCH   1  19
ATOM     18  C   UNL     1       2.493   6.534  18.269  0.00  0.00    +0.000 C 
ATOM     19  C   UNL     1       3.847   6.608  17.567  0.00  0.00    +0.000 C 
ENDBRANCH   1  19
TORSDOF 5
ENDMDL
MODEL 2
REMARK VINA RESULT:      -6.7      1.536      1.852
REMARK  Name = 
REMARK  8 active torsions:
REMARK  status: ('A' for Active; 'I' for Inactive)
REMARK    1  A    between atoms: C_1  and  C_2
REMARK    2  A    between atoms: C_2  and  C_3
REMARK    3  A    between atoms: C_3  and  C_4
REMARK    4  A    between atoms: C_3  and  C_11
REMARK    5  A    between atoms: C_5  and  C_6
REMARK    6  A    between atoms: C_9  and  O_10
REMARK    7  A    between atoms: C_12  and  C_13
REMARK    8  A    between atoms: C_16  and  O_17
REMARK                            x       y       z     vdW  Elec       q    Type
REMARK                         _______ _______ _______ _____ _____    ______ ____
ROOT
ATOM      1  C   UNL     1       4.372   4.979  17.771  0.00  0.00    +0.000 C 
ENDROOT
BRANCH   1   2
ATOM      2  C   UNL     1       5.841   4.772  17.519  0.00  0.00    +0.000 A 
ATOM      3  C   UNL     1       6.578   4.353  16.370  0.00  0.00    +0.000 A 
ATOM      4  C   UNL     1       6.110   3.968  15.018  0.00  0.00    +0.000 C 
ATOM      5  N   UNL     1       7.896   4.287  16.621  0.00  0.00    +0.000 NA
ATOM      6  O   UNL     1       8.043   4.610  17.955  0.00  0.00    +0.000 OA
ATOM      7  C   UNL     1       6.828   4.878  18.477  0.00  0.00    +0.000 A 
BRANCH   7   8
ATOM      8  O   UNL     1       6.832   5.153  19.768  0.00  0.00    +0.000 OA
ATOM      9  H   UNL     1       7.173   4.342  20.183  0.00  0.00    +0.000 HD
ENDBRANCH   7   8
ENDBRANCH   1   2
BRANCH   1  10
ATOM     10  C   UNL     1       3.611   3.773  18.278  0.00  0.00    +0.000 A 
ATOM     11  C   UNL     1       2.224   3.428  18.129  0.00  0.00    +0.000 A 
ATOM     12  C   UNL     1       1.119   4.129  17.429  0.00  0.00    +0.000 C 
ATOM     13  N   UNL     1       1.921   2.294  18.778  0.00  0.00    +0.000 NA
ATOM     14  O   UNL     1       3.077   1.897  19.404  0.00  0.00    +0.000 OA
ATOM     15  C   UNL     1       4.058   2.781  19.126  0.00  0.00    +0.000 A 
BRANCH  15  16
ATOM     16  O   UNL     1       5.201   2.515  19.731  0.00  0.00    +0.000 OA
ATOM     17  H   UNL     1       5.688   3.357  19.707  0.00  0.00    +0.000 HD
ENDBRANCH  15  16
ENDBRANCH   1  10
BRANCH   1  19
ATOM     18  C   UNL     1       3.093   7.239  17.965  0.00  0.00    +0.000 C 
ATOM     19  C   UNL     1       4.132   6.292  18.560  0.00  0.00    +0.000 C 
ENDBRANCH   1  19
TORSDOF 5
ENDMDL
MODEL 3
REMARK VINA RESULT:      -6.7      1.631      4.343
REMARK  Name = 
REMARK  8 active torsions:
REMARK  status: ('A' for Active; 'I' for Inactive)
REMARK    1  A    between atoms: C_1  and  C_2
REMARK    2  A    between atoms: C_2  and  C_3
REMARK    3  A    between atoms: C_3  and  C_4
REMARK    4  A    between atoms: C_3  and  C_11
REMARK    5  A    between atoms: C_5  and  C_6
REMARK    6  A    between atoms: C_9  and  O_10
REMARK    7  A    between atoms: C_12  and  C_13
REMARK    8  A    between atoms: C_16  and  O_17
REMARK                            x       y       z     vdW  Elec       q    Type
REMARK                         _______ _______ _______ _____ _____    ______ ____
ROOT
ATOM      1  C   UNL     1       4.515   4.921  18.985  0.00  0.00    +0.000 C 
ENDROOT
BRANCH   1   2
ATOM      2  C   UNL     1       3.707   3.667  18.787  0.00  0.00    +0.000 A 
ATOM      3  C   UNL     1       2.428   3.419  18.205  0.00  0.00    +0.000 A 
ATOM      4  C   UNL     1       1.453   4.355  17.596  0.00  0.00    +0.000 C 
ATOM      5  N   UNL     1       2.093   2.120  18.273  0.00  0.00    +0.000 NA
ATOM      6  O   UNL     1       3.123   1.499  18.949  0.00  0.00    +0.000 OA
ATOM      7  C   UNL     1       4.060   2.420  19.261  0.00  0.00    +0.000 A 
BRANCH   7   8
ATOM      8  O   UNL     1       5.079   1.953  19.959  0.00  0.00    +0.000 OA
ATOM      9  H   UNL     1       5.203   1.048  19.623  0.00  0.00    +0.000 HD
ENDBRANCH   7   8
ENDBRANCH   1   2
BRANCH   1  10
ATOM     10  C   UNL     1       5.872   4.948  18.317  0.00  0.00    +0.000 A 
ATOM     11  C   UNL     1       6.251   4.565  16.984  0.00  0.00    +0.000 A 
ATOM     12  C   UNL     1       5.441   4.046  15.856  0.00  0.00    +0.000 C 
ATOM     13  N   UNL     1       7.574   4.684  16.790  0.00  0.00    +0.000 NA
ATOM     14  O   UNL     1       8.096   5.094  17.992  0.00  0.00    +0.000 OA
ATOM     15  C   UNL     1       7.097   5.224  18.889  0.00  0.00    +0.000 A 
BRANCH  15  16
ATOM     16  O   UNL     1       7.507   5.562  20.098  0.00  0.00    +0.000 OA
ATOM     17  H   UNL     1       6.693   5.584  20.631  0.00  0.00    +0.000 HD
ENDBRANCH  15  16
ENDBRANCH   1  10
BRANCH   1  19
ATOM     18  C   UNL     1       4.025   7.042  17.555  0.00  0.00    +0.000 C 
ATOM     19  C   UNL     1       3.638   6.178  18.753  0.00  0.00    +0.000 C 
ENDBRANCH   1  19
TORSDOF 5
ENDMDL
MODEL 4
REMARK VINA RESULT:      -6.5      1.112      1.922
REMARK  Name = 
REMARK  8 active torsions:
REMARK  status: ('A' for Active; 'I' for Inactive)
REMARK    1  A    between atoms: C_1  and  C_2
REMARK    2  A    between atoms: C_2  and  C_3
REMARK    3  A    between atoms: C_3  and  C_4
REMARK    4  A    between atoms: C_3  and  C_11
REMARK    5  A    between atoms: C_5  and  C_6
REMARK    6  A    between atoms: C_9  and  O_10
REMARK    7  A    between atoms: C_12  and  C_13
REMARK    8  A    between atoms: C_16  and  O_17
REMARK                            x       y       z     vdW  Elec       q    Type
REMARK                         _______ _______ _______ _____ _____    ______ ____
ROOT
ATOM      1  C   UNL     1       4.388   5.128  17.054  0.00  0.00    +0.000 C 
ENDROOT
BRANCH   1   2
ATOM      2  C   UNL     1       5.627   5.281  16.213  0.00  0.00    +0.000 A 
ATOM      3  C   UNL     1       6.860   5.969  16.420  0.00  0.00    +0.000 A 
ATOM      4  C   UNL     1       7.325   6.783  17.567  0.00  0.00    +0.000 C 
ATOM      5  N   UNL     1       7.681   5.848  15.363  0.00  0.00    +0.000 NA
ATOM      6  O   UNL     1       6.979   5.124  14.421  0.00  0.00    +0.000 OA
ATOM      7  C   UNL     1       5.767   4.809  14.924  0.00  0.00    +0.000 A 
BRANCH   7   8
ATOM      8  O   UNL     1       4.979   4.154  14.091  0.00  0.00    +0.000 OA
ATOM      9  H   UNL     1       4.416   4.846  13.703  0.00  0.00    +0.000 HD
ENDBRANCH   7   8
ENDBRANCH   1   2
BRANCH   1  10
ATOM     10  C   UNL     1       4.429   4.033  18.099  0.00  0.00    +0.000 A 
ATOM     11  C   UNL     1       3.574   2.892  18.272  0.00  0.00    +0.000 A 
ATOM     12  C   UNL     1       2.407   2.424  17.484  0.00  0.00    +0.000 C 
ATOM     13  N   UNL     1       3.905   2.182  19.362  0.00  0.00    +0.000 NA
ATOM     14  O   UNL     1       4.944   2.861  19.952  0.00  0.00    +0.000 OA
ATOM     15  C   UNL     1       5.230   3.958  19.220  0.00  0.00    +0.000 A 
BRANCH  15  16
ATOM     16  O   UNL     1       6.182   4.710  19.739  0.00  0.00    +0.000 OA
ATOM     17  H   UNL     1       6.135   5.541  19.235  0.00  0.00    +0.000 HD
ENDBRANCH  15  16
ENDBRANCH   1  10
BRANCH   1  19
ATOM     18  C   UNL     1       2.545   6.508  18.270  0.00  0.00    +0.000 C 
ATOM     19  C   UNL     1       3.897   6.508  17.560  0.00  0.00    +0.000 C 
ENDBRANCH   1  19
TORSDOF 5
ENDMDL
MODEL 5
REMARK VINA RESULT:      -6.5      1.811      2.084
REMARK  Name = 
REMARK  8 active torsions:
REMARK  status: ('A' for Active; 'I' for Inactive)
REMARK    1  A    between atoms: C_1  and  C_2
REMARK    2  A    between atoms: C_2  and  C_3
REMARK    3  A    between atoms: C_3  and  C_4
REMARK    4  A    between atoms: C_3  and  C_11
REMARK    5  A    between atoms: C_5  and  C_6
REMARK    6  A    between atoms: C_9  and  O_10
REMARK    7  A    between atoms: C_12  and  C_13
REMARK    8  A    between atoms: C_16  and  O_17
REMARK                            x       y       z     vdW  Elec       q    Type
REMARK                         _______ _______ _______ _____ _____    ______ ____
ROOT
ATOM      1  C   UNL     1       4.247   4.934  17.717  0.00  0.00    +0.000 C 
ENDROOT
BRANCH   1   2
ATOM      2  C   UNL     1       5.730   4.739  17.552  0.00  0.00    +0.000 A 
ATOM      3  C   UNL     1       6.534   4.291  16.461  0.00  0.00    +0.000 A 
ATOM      4  C   UNL     1       6.146   3.856  15.098  0.00  0.00    +0.000 C 
ATOM      5  N   UNL     1       7.837   4.251  16.786  0.00  0.00    +0.000 NA
ATOM      6  O   UNL     1       7.907   4.620  18.113  0.00  0.00    +0.000 OA
ATOM      7  C   UNL     1       6.661   4.889  18.559  0.00  0.00    +0.000 A 
BRANCH   7   8
ATOM      8  O   UNL     1       6.592   5.207  19.839  0.00  0.00    +0.000 OA
ATOM      9  H   UNL     1       5.669   5.018  20.081  0.00  0.00    +0.000 HD
ENDBRANCH   7   8
ENDBRANCH   1   2
BRANCH   1  10
ATOM     10  C   UNL     1       3.607   4.198  18.875  0.00  0.00    +0.000 A 
ATOM     11  C   UNL     1       3.296   2.803  19.021  0.00  0.00    +0.000 A 
ATOM     12  C   UNL     1       3.514   1.658  18.103  0.00  0.00    +0.000 C 
ATOM     13  N   UNL     1       2.674   2.551  20.183  0.00  0.00    +0.000 NA
ATOM     14  O   UNL     1       2.519   3.768  20.799  0.00  0.00    +0.000 OA
ATOM     15  C   UNL     1       3.046   4.732  20.016  0.00  0.00    +0.000 A 
BRANCH  15  16
ATOM     16  O   UNL     1       2.895   5.952  20.499  0.00  0.00    +0.000 OA
ATOM     17  H   UNL     1       3.107   5.865  21.445  0.00  0.00    +0.000 HD
ENDBRANCH  15  16
ENDBRANCH   1  10
BRANCH   1  19
ATOM     18  C   UNL     1       4.638   7.222  16.537  0.00  0.00    +0.000 C 
ATOM     19  C   UNL     1       3.877   6.435  17.601  0.00  0.00    +0.000 C 
ENDBRANCH   1  19
TORSDOF 5
ENDMDL
MODEL 6
REMARK VINA RESULT:      -6.5      1.702      2.370
REMARK  Name = 
REMARK  8 active torsions:
REMARK  status: ('A' for Active; 'I' for Inactive)
REMARK    1  A    between atoms: C_1  and  C_2
REMARK    2  A    between atoms: C_2  and  C_3
REMARK    3  A    between atoms: C_3  and  C_4
REMARK    4  A    between atoms: C_3  and  C_11
REMARK    5  A    between atoms: C_5  and  C_6
REMARK    6  A    between atoms: C_9  and  O_10
REMARK    7  A    between atoms: C_12  and  C_13
REMARK    8  A    between atoms: C_16  and  O_17
REMARK                            x       y       z     vdW  Elec       q    Type
REMARK                         _______ _______ _______ _____ _____    ______ ____
ROOT
ATOM      1  C   UNL     1       4.151   4.790  17.556  0.00  0.00    +0.000 C 
ENDROOT
BRANCH   1   2
ATOM      2  C   UNL     1       5.646   4.655  17.451  0.00  0.00    +0.000 A 
ATOM      3  C   UNL     1       6.514   4.295  16.376  0.00  0.00    +0.000 A 
ATOM      4  C   UNL     1       6.205   3.919  14.977  0.00  0.00    +0.000 C 
ATOM      5  N   UNL     1       7.802   4.282  16.760  0.00  0.00    +0.000 NA
ATOM      6  O   UNL     1       7.799   4.583  18.106  0.00  0.00    +0.000 OA
ATOM      7  C   UNL     1       6.525   4.784  18.506  0.00  0.00    +0.000 A 
BRANCH   7   8
ATOM      8  O   UNL     1       6.386   5.031  19.796  0.00  0.00    +0.000 OA
ATOM      9  H   UNL     1       5.506   5.439  19.867  0.00  0.00    +0.000 HD
ENDBRANCH   7   8
ENDBRANCH   1   2
BRANCH   1  10
ATOM     10  C   UNL     1       3.460   3.804  18.473  0.00  0.00    +0.000 A 
ATOM     11  C   UNL     1       2.671   4.038  19.650  0.00  0.00    +0.000 A 
ATOM     12  C   UNL     1       2.276   5.301  20.320  0.00  0.00    +0.000 C 
ATOM     13  N   UNL     1       2.277   2.889  20.222  0.00  0.00    +0.000 NA
ATOM     14  O   UNL     1       2.835   1.884  19.470  0.00  0.00    +0.000 OA
ATOM     15  C   UNL     1       3.547   2.427  18.461  0.00  0.00    +0.000 A 
BRANCH  15  16
ATOM     16  O   UNL     1       4.171   1.538  17.711  0.00  0.00    +0.000 OA
ATOM     17  H   UNL     1       3.844   1.709  16.810  0.00  0.00    +0.000 HD
ENDBRANCH  15  16
ENDBRANCH   1  10
BRANCH   1  19
ATOM     18  C   UNL     1       4.464   7.278  16.855  0.00  0.00    +0.000 C 
ATOM     19  C   UNL     1       3.749   6.274  17.755  0.00  0.00    +0.000 C 
ENDBRANCH   1  19
TORSDOF 5
ENDMDL
MODEL 7
REMARK VINA RESULT:      -6.4      2.158      3.503
REMARK  Name = 
REMARK  8 active torsions:
REMARK  status: ('A' for Active; 'I' for Inactive)
REMARK    1  A    between atoms: C_1  and  C_2
REMARK    2  A    between atoms: C_2  and  C_3
REMARK    3  A    between atoms: C_3  and  C_4
REMARK    4  A    between atoms: C_3  and  C_11
REMARK    5  A    between atoms: C_5  and  C_6
REMARK    6  A    between atoms: C_9  and  O_10
REMARK    7  A    between atoms: C_12  and  C_13
REMARK    8  A    between atoms: C_16  and  O_17
REMARK                            x       y       z     vdW  Elec       q    Type
REMARK                         _______ _______ _______ _____ _____    ______ ____
ROOT
ATOM      1  C   UNL     1       4.889   3.702  16.939  0.00  0.00    +0.000 C 
ENDROOT
BRANCH   1   2
ATOM      2  C   UNL     1       5.789   4.349  17.956  0.00  0.00    +0.000 A 
ATOM      3  C   UNL     1       5.531   5.056  19.169  0.00  0.00    +0.000 A 
ATOM      4  C   UNL     1       4.249   5.394  19.829  0.00  0.00    +0.000 C 
ATOM      5  N   UNL     1       6.666   5.485  19.746  0.00  0.00    +0.000 NA
ATOM      6  O   UNL     1       7.687   5.114  18.895  0.00  0.00    +0.000 OA
ATOM      7  C   UNL     1       7.159   4.460  17.838  0.00  0.00    +0.000 A 
BRANCH   7   8
ATOM      8  O   UNL     1       8.038   4.096  16.922  0.00  0.00    +0.000 OA
ATOM      9  H   UNL     1       8.748   4.757  16.998  0.00  0.00    +0.000 HD
ENDBRANCH   7   8
ENDBRANCH   1   2
BRANCH   1  10
ATOM     10  C   UNL     1       3.633   3.056  17.482  0.00  0.00    +0.000 A 
ATOM     11  C   UNL     1       2.321   3.610  17.677  0.00  0.00    +0.000 A 
ATOM     12  C   UNL     1       1.789   4.966  17.397  0.00  0.00    +0.000 C 
ATOM     13  N   UNL     1       1.485   2.724  18.241  0.00  0.00    +0.000 NA
ATOM     14  O   UNL     1       2.233   1.596  18.473  0.00  0.00    +0.000 OA
ATOM     15  C   UNL     1       3.496   1.805  18.048  0.00  0.00    +0.000 A 
BRANCH  15  16
ATOM     16  O   UNL     1       4.310   0.792  18.280  0.00  0.00    +0.000 OA
ATOM     17  H   UNL     1       4.905   0.779  17.510  0.00  0.00    +0.000 HD
ENDBRANCH  15  16
ENDBRANCH   1  10
BRANCH   1  19
ATOM     18  C   UNL     1       5.536   4.330  14.496  0.00  0.00    +0.000 C 
ATOM     19  C   UNL     1       4.679   4.638  15.721  0.00  0.00    +0.000 C 
ENDBRANCH   1  19
TORSDOF 5
ENDMDL
MODEL 8
REMARK VINA RESULT:      -6.4      1.941      4.368
REMARK  Name = 
REMARK  8 active torsions:
REMARK  status: ('A' for Active; 'I' for Inactive)
REMARK    1  A    between atoms: C_1  and  C_2
REMARK    2  A    between atoms: C_2  and  C_3
REMARK    3  A    between atoms: C_3  and  C_4
REMARK    4  A    between atoms: C_3  and  C_11
REMARK    5  A    between atoms: C_5  and  C_6
REMARK    6  A    between atoms: C_9  and  O_10
REMARK    7  A    between atoms: C_12  and  C_13
REMARK    8  A    between atoms: C_16  and  O_17
REMARK                            x       y       z     vdW  Elec       q    Type
REMARK                         _______ _______ _______ _____ _____    ______ ____
ROOT
ATOM      1  C   UNL     1       4.328   5.703  18.550  0.00  0.00    +0.000 C 
ENDROOT
BRANCH   1   2
ATOM      2  C   UNL     1       3.504   4.638  19.222  0.00  0.00    +0.000 A 
ATOM      3  C   UNL     1       3.259   3.265  18.916  0.00  0.00    +0.000 A 
ATOM      4  C   UNL     1       3.752   2.427  17.798  0.00  0.00    +0.000 C 
ATOM      5  N   UNL     1       2.420   2.701  19.801  0.00  0.00    +0.000 NA
ATOM      6  O   UNL     1       2.056   3.707  20.672  0.00  0.00    +0.000 OA
ATOM      7  C   UNL     1       2.686   4.846  20.313  0.00  0.00    +0.000 A 
BRANCH   7   8
ATOM      8  O   UNL     1       2.378   5.900  21.046  0.00  0.00    +0.000 OA
ATOM      9  H   UNL     1       2.842   6.636  20.611  0.00  0.00    +0.000 HD
ENDBRANCH   7   8
ENDBRANCH   1   2
BRANCH   1  10
ATOM     10  C   UNL     1       5.714   5.286  18.105  0.00  0.00    +0.000 A 
ATOM     11  C   UNL     1       6.171   4.827  16.823  0.00  0.00    +0.000 A 
ATOM     12  C   UNL     1       5.444   4.635  15.544  0.00  0.00    +0.000 C 
ATOM     13  N   UNL     1       7.472   4.499  16.847  0.00  0.00    +0.000 NA
ATOM     14  O   UNL     1       7.884   4.684  18.144  0.00  0.00    +0.000 OA
ATOM     15  C   UNL     1       6.842   5.122  18.882  0.00  0.00    +0.000 A 
BRANCH  15  16
ATOM     16  O   UNL     1       7.125   5.277  20.162  0.00  0.00    +0.000 OA
ATOM     17  H   UNL     1       6.319   4.987  20.624  0.00  0.00    +0.000 HD
ENDBRANCH  15  16
ENDBRANCH   1  10
BRANCH   1  19
ATOM     18  C   UNL     1       2.844   7.756  17.950  0.00  0.00    +0.000 C 
ATOM     19  C   UNL     1       3.489   6.453  17.485  0.00  0.00    +0.000 C 
ENDBRANCH   1  19
TORSDOF 5
ENDMDL
MODEL 9
REMARK VINA RESULT:      -6.3      1.877      4.680
REMARK  Name = 
REMARK  8 active torsions:
REMARK  status: ('A' for Active; 'I' for Inactive)
REMARK    1  A    between atoms: C_1  and  C_2
REMARK    2  A    between atoms: C_2  and  C_3
REMARK    3  A    between atoms: C_3  and  C_4
REMARK    4  A    between atoms: C_3  and  C_11
REMARK    5  A    between atoms: C_5  and  C_6
REMARK    6  A    between atoms: C_9  and  O_10
REMARK    7  A    between atoms: C_12  and  C_13
REMARK    8  A    between atoms: C_16  and  O_17
REMARK                            x       y       z     vdW  Elec       q    Type
REMARK                         _______ _______ _______ _____ _____    ______ ____
ROOT
ATOM      1  C   UNL     1       4.408   5.555  18.765  0.00  0.00    +0.000 C 
ENDROOT
BRANCH   1   2
ATOM      2  C   UNL     1       3.697   4.509  19.581  0.00  0.00    +0.000 A 
ATOM      3  C   UNL     1       2.543   4.553  20.420  0.00  0.00    +0.000 A 
ATOM      4  C   UNL     1       1.653   5.685  20.771  0.00  0.00    +0.000 C 
ATOM      5  N   UNL     1       2.287   3.358  20.977  0.00  0.00    +0.000 NA
ATOM      6  O   UNL     1       3.299   2.520  20.556  0.00  0.00    +0.000 OA
ATOM      7  C   UNL     1       4.132   3.211  19.748  0.00  0.00    +0.000 A 
BRANCH   7   8
ATOM      8  O   UNL     1       5.175   2.526  19.319  0.00  0.00    +0.000 OA
ATOM      9  H   UNL     1       4.912   2.223  18.432  0.00  0.00    +0.000 HD
ENDBRANCH   7   8
ENDBRANCH   1   2
BRANCH   1  10
ATOM     10  C   UNL     1       5.789   5.183  18.270  0.00  0.00    +0.000 A 
ATOM     11  C   UNL     1       6.195   4.609  17.017  0.00  0.00    +0.000 A 
ATOM     12  C   UNL     1       5.403   4.220  15.825  0.00  0.00    +0.000 C 
ATOM     13  N   UNL     1       7.516   4.374  16.983  0.00  0.00    +0.000 NA
ATOM     14  O   UNL     1       7.996   4.737  18.218  0.00  0.00    +0.000 OA
ATOM     15  C   UNL     1       6.974   5.188  18.975  0.00  0.00    +0.000 A 
BRANCH  15  16
ATOM     16  O   UNL     1       7.327   5.510  20.206  0.00  0.00    +0.000 OA
ATOM     17  H   UNL     1       7.452   4.655  20.653  0.00  0.00    +0.000 HD
ENDBRANCH  15  16
ENDBRANCH   1  10
BRANCH   1  19
ATOM     18  C   UNL     1       3.103   7.625  17.873  0.00  0.00    +0.000 C 
ATOM     19  C   UNL     1       3.458   6.151  17.694  0.00  0.00    +0.000 C 
ENDBRANCH   1  19
TORSDOF 5
ENDMDL
