MODEL 1
REMARK VINA RESULT:      -9.0      0.000      0.000
REMARK  Name = 
REMARK  4 active torsions:
REMARK  status: ('A' for Active; 'I' for Inactive)
REMARK    1  A    between atoms: C_1  and  C_2
REMARK    2  A    between atoms: C_11  and  O_12
REMARK    3  A    between atoms: O_12  and  C_13
REMARK    4  A    between atoms: C_13  and  C_14
REMARK                            x       y       z     vdW  Elec       q    Type
REMARK                         _______ _______ _______ _____ _____    ______ ____
ROOT
ATOM      1  C   UNL     1       4.722   1.515  20.733  0.00  0.00    +0.000 C 
ATOM      2  C   UNL     1       4.099   2.185  19.550  0.00  0.00    +0.000 A 
ATOM      3  N   UNL     1       2.963   1.660  19.048  0.00  0.00    +0.000 NA
ATOM      4  C   UNL     1       2.367   2.226  17.978  0.00  0.00    +0.000 A 
ATOM      5  C   UNL     1       2.846   3.354  17.328  0.00  0.00    +0.000 A 
ATOM      6  C   UNL     1       4.032   3.914  17.822  0.00  0.00    +0.000 A 
ATOM      7  C   UNL     1       4.637   3.312  18.919  0.00  0.00    +0.000 A 
ATOM      8  N   UNL     1       5.766   4.056  19.204  0.00  0.00    +0.000 N 
ATOM      9  C   UNL     1       5.904   5.104  18.333  0.00  0.00    +0.000 A 
ATOM     10  C   UNL     1       6.884   6.099  18.260  0.00  0.00    +0.000 A 
ATOM     11  C   UNL     1       6.785   7.049  17.237  0.00  0.00    +0.000 A 
ATOM     12  C   UNL     1       5.712   7.019  16.348  0.00  0.00    +0.000 A 
ATOM     13  C   UNL     1       4.734   6.020  16.441  0.00  0.00    +0.000 A 
ATOM     14  C   UNL     1       4.826   5.038  17.455  0.00  0.00    +0.000 A 
ATOM     15  H   UNL     1       6.415   3.843  19.958  0.00  0.00    +0.000 HD
ENDROOT
BRANCH  11  16
ATOM     16  O   UNL     1       7.800   7.970  17.221  0.00  0.00    +0.000 OA
BRANCH  16  17
ATOM     17  C   UNL     1       8.448   8.219  18.467  0.00  0.00    +0.000 C 
BRANCH  17  18
ATOM     18  C   UNL     1       8.743   9.694  18.565  0.00  0.00    +0.000 A 
ATOM     19  C   UNL     1       8.284  10.542  17.554  0.00  0.00    +0.000 A 
ATOM     20  C   UNL     1       8.439  11.919  17.666  0.00  0.00    +0.000 A 
ATOM     21  C   UNL     1       9.187  12.463  18.709  0.00  0.00    +0.000 A 
ATOM     22  C   UNL     1       9.375  13.846  18.788  0.00  0.00    +0.000 A 
ATOM     23  C   UNL     1      10.428  14.353  19.534  0.00  0.00    +0.000 A 
ATOM     24  C   UNL     1      11.169  13.501  20.352  0.00  0.00    +0.000 A 
ATOM     25  C   UNL     1      10.804  12.155  20.479  0.00  0.00    +0.000 A 
ATOM     26  C   UNL     1       9.827  11.602  19.628  0.00  0.00    +0.000 A 
ATOM     27  C   UNL     1       9.514  10.230  19.608  0.00  0.00    +0.000 A 
ENDBRANCH  17  18
ENDBRANCH  16  17
ENDBRANCH  11  16
TORSDOF 3
ENDMDL
MODEL 2
REMARK VINA RESULT:      -8.7      0.922      1.559
REMARK  Name = 
REMARK  4 active torsions:
REMARK  status: ('A' for Active; 'I' for Inactive)
REMARK    1  A    between atoms: C_1  and  C_2
REMARK    2  A    between atoms: C_11  and  O_12
REMARK    3  A    between atoms: O_12  and  C_13
REMARK    4  A    between atoms: C_13  and  C_14
REMARK                            x       y       z     vdW  Elec       q    Type
REMARK                         _______ _______ _______ _____ _____    ______ ____
ROOT
ATOM      1  C   UNL     1       4.741   1.432  20.604  0.00  0.00    +0.000 C 
ATOM      2  C   UNL     1       4.227   2.183  19.417  0.00  0.00    +0.000 A 
ATOM      3  N   UNL     1       3.128   1.710  18.796  0.00  0.00    +0.000 NA
ATOM      4  C   UNL     1       2.629   2.350  17.717  0.00  0.00    +0.000 A 
ATOM      5  C   UNL     1       3.176   3.504  17.176  0.00  0.00    +0.000 A 
ATOM      6  C   UNL     1       4.326   4.010  17.797  0.00  0.00    +0.000 A 
ATOM      7  C   UNL     1       4.831   3.333  18.900  0.00  0.00    +0.000 A 
ATOM      8  N   UNL     1       5.944   4.037  19.318  0.00  0.00    +0.000 N 
ATOM      9  C   UNL     1       6.169   5.131  18.526  0.00  0.00    +0.000 A 
ATOM     10  C   UNL     1       7.167   6.109  18.592  0.00  0.00    +0.000 A 
ATOM     11  C   UNL     1       7.165   7.118  17.622  0.00  0.00    +0.000 A 
ATOM     12  C   UNL     1       6.167   7.162  16.651  0.00  0.00    +0.000 A 
ATOM     13  C   UNL     1       5.170   6.179  16.604  0.00  0.00    +0.000 A 
ATOM     14  C   UNL     1       5.165   5.138  17.562  0.00  0.00    +0.000 A 
ATOM     15  H   UNL     1       6.526   3.768  20.109  0.00  0.00    +0.000 HD
ENDROOT
BRANCH  11  16
ATOM     16  O   UNL     1       8.192   8.019  17.743  0.00  0.00    +0.000 OA
BRANCH  16  17
ATOM     17  C   UNL     1       7.861   9.389  17.520  0.00  0.00    +0.000 C 
BRANCH  17  18
ATOM     18  C   UNL     1       8.930  10.246  18.148  0.00  0.00    +0.000 A 
ATOM     19  C   UNL     1       9.287  10.010  19.479  0.00  0.00    +0.000 A 
ATOM     20  C   UNL     1      10.346  10.703  20.056  0.00  0.00    +0.000 A 
ATOM     21  C   UNL     1      10.963  11.748  19.371  0.00  0.00    +0.000 A 
ATOM     22  C   UNL     1      11.995  12.469  19.978  0.00  0.00    +0.000 A 
ATOM     23  C   UNL     1      12.317  13.734  19.508  0.00  0.00    +0.000 A 
ATOM     24  C   UNL     1      11.748  14.196  18.322  0.00  0.00    +0.000 A 
ATOM     25  C   UNL     1      10.915  13.358  17.569  0.00  0.00    +0.000 A 
ATOM     26  C   UNL     1      10.477  12.130  18.101  0.00  0.00    +0.000 A 
ATOM     27  C   UNL     1       9.533  11.308  17.458  0.00  0.00    +0.000 A 
ENDBRANCH  17  18
ENDBRANCH  16  17
ENDBRANCH  11  16
TORSDOF 3
ENDMDL
MODEL 3
REMARK VINA RESULT:      -8.6      1.301      1.481
REMARK  Name = 
REMARK  4 active torsions:
REMARK  status: ('A' for Active; 'I' for Inactive)
REMARK    1  A    between atoms: C_1  and  C_2
REMARK    2  A    between atoms: C_11  and  O_12
REMARK    3  A    between atoms: O_12  and  C_13
REMARK    4  A    between atoms: C_13  and  C_14
REMARK                            x       y       z     vdW  Elec       q    Type
REMARK                         _______ _______ _______ _____ _____    ______ ____
ROOT
ATOM      1  C   UNL     1       1.132   4.629  20.536  0.00  0.00    +0.000 C 
ATOM      2  C   UNL     1       1.881   3.993  19.409  0.00  0.00    +0.000 A 
ATOM      3  N   UNL     1       1.445   2.802  18.950  0.00  0.00    +0.000 NA
ATOM      4  C   UNL     1       2.092   2.186  17.939  0.00  0.00    +0.000 A 
ATOM      5  C   UNL     1       3.212   2.702  17.303  0.00  0.00    +0.000 A 
ATOM      6  C   UNL     1       3.692   3.933  17.769  0.00  0.00    +0.000 A 
ATOM      7  C   UNL     1       3.020   4.549  18.817  0.00  0.00    +0.000 A 
ATOM      8  N   UNL     1       3.684   5.734  19.070  0.00  0.00    +0.000 N 
ATOM      9  C   UNL     1       4.751   5.896  18.228  0.00  0.00    +0.000 A 
ATOM     10  C   UNL     1       5.680   6.937  18.130  0.00  0.00    +0.000 A 
ATOM     11  C   UNL     1       6.696   6.828  17.174  0.00  0.00    +0.000 A 
ATOM     12  C   UNL     1       6.745   5.728  16.319  0.00  0.00    +0.000 A 
ATOM     13  C   UNL     1       5.801   4.697  16.425  0.00  0.00    +0.000 A 
ATOM     14  C   UNL     1       4.778   4.779  17.398  0.00  0.00    +0.000 A 
ATOM     15  H   UNL     1       3.418   6.394  19.797  0.00  0.00    +0.000 HD
ENDROOT
BRANCH  11  16
ATOM     16  O   UNL     1       7.578   7.877  17.164  0.00  0.00    +0.000 OA
BRANCH  16  17
ATOM     17  C   UNL     1       8.328   8.085  18.359  0.00  0.00    +0.000 C 
BRANCH  17  18
ATOM     18  C   UNL     1       8.655   9.552  18.467  0.00  0.00    +0.000 A 
ATOM     19  C   UNL     1       8.154  10.428  17.500  0.00  0.00    +0.000 A 
ATOM     20  C   UNL     1       8.341  11.800  17.629  0.00  0.00    +0.000 A 
ATOM     21  C   UNL     1       9.158  12.310  18.637  0.00  0.00    +0.000 A 
ATOM     22  C   UNL     1       9.375  13.687  18.730  0.00  0.00    +0.000 A 
ATOM     23  C   UNL     1      10.480  14.162  19.423  0.00  0.00    +0.000 A 
ATOM     24  C   UNL     1      11.250  13.282  20.181  0.00  0.00    +0.000 A 
ATOM     25  C   UNL     1      10.868  11.939  20.304  0.00  0.00    +0.000 A 
ATOM     26  C   UNL     1       9.834  11.420  19.501  0.00  0.00    +0.000 A 
ATOM     27  C   UNL     1       9.494  10.055  19.473  0.00  0.00    +0.000 A 
ENDBRANCH  17  18
ENDBRANCH  16  17
ENDBRANCH  11  16
TORSDOF 3
ENDMDL
MODEL 4
REMARK VINA RESULT:      -8.6      0.598      1.630
REMARK  Name = 
REMARK  4 active torsions:
REMARK  status: ('A' for Active; 'I' for Inactive)
REMARK    1  A    between atoms: C_1  and  C_2
REMARK    2  A    between atoms: C_11  and  O_12
REMARK    3  A    between atoms: O_12  and  C_13
REMARK    4  A    between atoms: C_13  and  C_14
REMARK                            x       y       z     vdW  Elec       q    Type
REMARK                         _______ _______ _______ _____ _____    ______ ____
ROOT
ATOM      1  C   UNL     1       4.256   1.818  20.925  0.00  0.00    +0.000 C 
ATOM      2  C   UNL     1       3.768   2.394  19.635  0.00  0.00    +0.000 A 
ATOM      3  N   UNL     1       2.673   1.845  19.070  0.00  0.00    +0.000 NA
ATOM      4  C   UNL     1       2.198   2.327  17.902  0.00  0.00    +0.000 A 
ATOM      5  C   UNL     1       2.764   3.388  17.210  0.00  0.00    +0.000 A 
ATOM      6  C   UNL     1       3.909   3.969  17.771  0.00  0.00    +0.000 A 
ATOM      7  C   UNL     1       4.391   3.454  18.969  0.00  0.00    +0.000 A 
ATOM      8  N   UNL     1       5.504   4.202  19.300  0.00  0.00    +0.000 N 
ATOM      9  C   UNL     1       5.752   5.169  18.363  0.00  0.00    +0.000 A 
ATOM     10  C   UNL     1       6.758   6.139  18.304  0.00  0.00    +0.000 A 
ATOM     11  C   UNL     1       6.781   6.999  17.200  0.00  0.00    +0.000 A 
ATOM     12  C   UNL     1       5.798   6.910  16.216  0.00  0.00    +0.000 A 
ATOM     13  C   UNL     1       4.793   5.938  16.294  0.00  0.00    +0.000 A 
ATOM     14  C   UNL     1       4.763   5.045  17.391  0.00  0.00    +0.000 A 
ATOM     15  H   UNL     1       6.071   4.045  20.130  0.00  0.00    +0.000 HD
ENDROOT
BRANCH  11  16
ATOM     16  O   UNL     1       7.814   7.900  17.208  0.00  0.00    +0.000 OA
BRANCH  16  17
ATOM     17  C   UNL     1       8.410   8.169  18.476  0.00  0.00    +0.000 C 
BRANCH  17  18
ATOM     18  C   UNL     1       8.736   9.639  18.547  0.00  0.00    +0.000 A 
ATOM     19  C   UNL     1       9.640  10.083  19.516  0.00  0.00    +0.000 A 
ATOM     20  C   UNL     1      10.051  11.411  19.540  0.00  0.00    +0.000 A 
ATOM     21  C   UNL     1       9.453  12.350  18.700  0.00  0.00    +0.000 A 
ATOM     22  C   UNL     1       9.841  13.691  18.762  0.00  0.00    +0.000 A 
ATOM     23  C   UNL     1       8.995  14.673  18.268  0.00  0.00    +0.000 A 
ATOM     24  C   UNL     1       7.863  14.308  17.541  0.00  0.00    +0.000 A 
ATOM     25  C   UNL     1       7.621  12.960  17.247  0.00  0.00    +0.000 A 
ATOM     26  C   UNL     1       8.393  11.952  17.854  0.00  0.00    +0.000 A 
ATOM     27  C   UNL     1       8.115  10.580  17.711  0.00  0.00    +0.000 A 
ENDBRANCH  17  18
ENDBRANCH  16  17
ENDBRANCH  11  16
TORSDOF 3
ENDMDL
MODEL 5
REMARK VINA RESULT:      -8.6      7.329      9.201
REMARK  Name = 
REMARK  4 active torsions:
REMARK  status: ('A' for Active; 'I' for Inactive)
REMARK    1  A    between atoms: C_1  and  C_2
REMARK    2  A    between atoms: C_11  and  O_12
REMARK    3  A    between atoms: O_12  and  C_13
REMARK    4  A    between atoms: C_13  and  C_14
REMARK                            x       y       z     vdW  Elec       q    Type
REMARK                         _______ _______ _______ _____ _____    ______ ____
ROOT
ATOM      1  C   UNL     1       2.490   3.117  21.571  0.00  0.00    +0.000 C 
ATOM      2  C   UNL     1       2.832   3.767  20.269  0.00  0.00    +0.000 A 
ATOM      3  N   UNL     1       3.478   3.030  19.342  0.00  0.00    +0.000 NA
ATOM      4  C   UNL     1       3.813   3.574  18.154  0.00  0.00    +0.000 A 
ATOM      5  C   UNL     1       3.531   4.883  17.791  0.00  0.00    +0.000 A 
ATOM      6  C   UNL     1       2.870   5.674  18.740  0.00  0.00    +0.000 A 
ATOM      7  C   UNL     1       2.541   5.100  19.962  0.00  0.00    +0.000 A 
ATOM      8  N   UNL     1       1.899   6.079  20.697  0.00  0.00    +0.000 N 
ATOM      9  C   UNL     1       1.808   7.250  19.994  0.00  0.00    +0.000 A 
ATOM     10  C   UNL     1       1.238   8.478  20.347  0.00  0.00    +0.000 A 
ATOM     11  C   UNL     1       1.308   9.527  19.424  0.00  0.00    +0.000 A 
ATOM     12  C   UNL     1       1.893   9.330  18.174  0.00  0.00    +0.000 A 
ATOM     13  C   UNL     1       2.451   8.091  17.833  0.00  0.00    +0.000 A 
ATOM     14  C   UNL     1       2.409   7.023  18.760  0.00  0.00    +0.000 A 
ATOM     15  H   UNL     1       1.550   5.945  21.643  0.00  0.00    +0.000 HD
ENDROOT
BRANCH  11  16
ATOM     16  O   UNL     1       0.751  10.701  19.860  0.00  0.00    +0.000 OA
BRANCH  16  17
ATOM     17  C   UNL     1       0.336  11.619  18.849  0.00  0.00    +0.000 C 
BRANCH  17  18
ATOM     18  C   UNL     1      -1.146  11.452  18.633  0.00  0.00    +0.000 A 
ATOM     19  C   UNL     1      -1.588  10.703  17.539  0.00  0.00    +0.000 A 
ATOM     20  C   UNL     1      -2.942  10.433  17.371  0.00  0.00    +0.000 A 
ATOM     21  C   UNL     1      -3.889  11.032  18.201  0.00  0.00    +0.000 A 
ATOM     22  C   UNL     1      -5.250  10.790  17.996  0.00  0.00    +0.000 A 
ATOM     23  C   UNL     1      -6.188  11.674  18.508  0.00  0.00    +0.000 A 
ATOM     24  C   UNL     1      -5.783  12.681  19.382  0.00  0.00    +0.000 A 
ATOM     25  C   UNL     1      -4.448  12.754  19.801  0.00  0.00    +0.000 A 
ATOM     26  C   UNL     1      -3.468  11.952  19.187  0.00  0.00    +0.000 A 
ATOM     27  C   UNL     1      -2.093  12.073  19.461  0.00  0.00    +0.000 A 
ENDBRANCH  17  18
ENDBRANCH  16  17
ENDBRANCH  11  16
TORSDOF 3
ENDMDL
MODEL 6
REMARK VINA RESULT:      -8.6      8.001      9.015
REMARK  Name = 
REMARK  4 active torsions:
REMARK  status: ('A' for Active; 'I' for Inactive)
REMARK    1  A    between atoms: C_1  and  C_2
REMARK    2  A    between atoms: C_11  and  O_12
REMARK    3  A    between atoms: O_12  and  C_13
REMARK    4  A    between atoms: C_13  and  C_14
REMARK                            x       y       z     vdW  Elec       q    Type
REMARK                         _______ _______ _______ _____ _____    ______ ____
ROOT
ATOM      1  C   UNL     1       2.529   3.033  21.522  0.00  0.00    +0.000 C 
ATOM      2  C   UNL     1       2.799   3.681  20.202  0.00  0.00    +0.000 A 
ATOM      3  N   UNL     1       3.343   2.927  19.224  0.00  0.00    +0.000 NA
ATOM      4  C   UNL     1       3.610   3.469  18.018  0.00  0.00    +0.000 A 
ATOM      5  C   UNL     1       3.357   4.791  17.685  0.00  0.00    +0.000 A 
ATOM      6  C   UNL     1       2.802   5.599  18.687  0.00  0.00    +0.000 A 
ATOM      7  C   UNL     1       2.542   5.028  19.926  0.00  0.00    +0.000 A 
ATOM      8  N   UNL     1       1.997   6.024  20.713  0.00  0.00    +0.000 N 
ATOM      9  C   UNL     1       1.902   7.205  20.027  0.00  0.00    +0.000 A 
ATOM     10  C   UNL     1       1.412   8.452  20.430  0.00  0.00    +0.000 A 
ATOM     11  C   UNL     1       1.456   9.506  19.511  0.00  0.00    +0.000 A 
ATOM     12  C   UNL     1       1.937   9.297  18.220  0.00  0.00    +0.000 A 
ATOM     13  C   UNL     1       2.417   8.040  17.830  0.00  0.00    +0.000 A 
ATOM     14  C   UNL     1       2.400   6.965  18.750  0.00  0.00    +0.000 A 
ATOM     15  H   UNL     1       1.714   5.896  21.683  0.00  0.00    +0.000 HD
ENDROOT
BRANCH  11  16
ATOM     16  O   UNL     1       0.982  10.698  19.995  0.00  0.00    +0.000 OA
BRANCH  16  17
ATOM     17  C   UNL     1      -0.289  11.120  19.503  0.00  0.00    +0.000 C 
BRANCH  17  18
ATOM     18  C   UNL     1      -1.149  11.510  20.677  0.00  0.00    +0.000 A 
ATOM     19  C   UNL     1      -0.799  11.053  21.951  0.00  0.00    +0.000 A 
ATOM     20  C   UNL     1      -1.503  11.484  23.071  0.00  0.00    +0.000 A 
ATOM     21  C   UNL     1      -2.658  12.251  22.927  0.00  0.00    +0.000 A 
ATOM     22  C   UNL     1      -3.383  12.641  24.056  0.00  0.00    +0.000 A 
ATOM     23  C   UNL     1      -4.711  13.018  23.922  0.00  0.00    +0.000 A 
ATOM     24  C   UNL     1      -5.254  13.193  22.651  0.00  0.00    +0.000 A 
ATOM     25  C   UNL     1      -4.443  13.063  21.515  0.00  0.00    +0.000 A 
ATOM     26  C   UNL     1      -3.137  12.552  21.632  0.00  0.00    +0.000 A 
ATOM     27  C   UNL     1      -2.321  12.266  20.522  0.00  0.00    +0.000 A 
ENDBRANCH  17  18
ENDBRANCH  16  17
ENDBRANCH  11  16
TORSDOF 3
ENDMDL
MODEL 7
REMARK VINA RESULT:      -8.5      6.909     10.121
REMARK  Name = 
REMARK  4 active torsions:
REMARK  status: ('A' for Active; 'I' for Inactive)
REMARK    1  A    between atoms: C_1  and  C_2
REMARK    2  A    between atoms: C_11  and  O_12
REMARK    3  A    between atoms: O_12  and  C_13
REMARK    4  A    between atoms: C_13  and  C_14
REMARK                            x       y       z     vdW  Elec       q    Type
REMARK                         _______ _______ _______ _____ _____    ______ ____
ROOT
ATOM      1  C   UNL     1      -4.119  10.724  14.789  0.00  0.00    +0.000 C 
ATOM      2  C   UNL     1      -3.963  11.076  16.234  0.00  0.00    +0.000 A 
ATOM      3  N   UNL     1      -4.962  11.756  16.832  0.00  0.00    +0.000 NA
ATOM      4  C   UNL     1      -4.865  12.102  18.132  0.00  0.00    +0.000 A 
ATOM      5  C   UNL     1      -3.778  11.798  18.939  0.00  0.00    +0.000 A 
ATOM      6  C   UNL     1      -2.721  11.101  18.339  0.00  0.00    +0.000 A 
ATOM      7  C   UNL     1      -2.833  10.761  16.996  0.00  0.00    +0.000 A 
ATOM      8  N   UNL     1      -1.677  10.083  16.663  0.00  0.00    +0.000 N 
ATOM      9  C   UNL     1      -0.833   9.979  17.736  0.00  0.00    +0.000 A 
ATOM     10  C   UNL     1       0.424   9.376  17.847  0.00  0.00    +0.000 A 
ATOM     11  C   UNL     1       1.080   9.440  19.081  0.00  0.00    +0.000 A 
ATOM     12  C   UNL     1       0.469  10.053  20.174  0.00  0.00    +0.000 A 
ATOM     13  C   UNL     1      -0.794  10.646  20.048  0.00  0.00    +0.000 A 
ATOM     14  C   UNL     1      -1.466  10.610  18.803  0.00  0.00    +0.000 A 
ATOM     15  H   UNL     1      -1.476   9.718  15.734  0.00  0.00    +0.000 HD
ENDROOT
BRANCH  11  16
ATOM     16  O   UNL     1       2.316   8.848  19.096  0.00  0.00    +0.000 OA
BRANCH  16  17
ATOM     17  C   UNL     1       2.853   8.472  17.829  0.00  0.00    +0.000 C 
BRANCH  17  18
ATOM     18  C   UNL     1       3.130   6.991  17.849  0.00  0.00    +0.000 A 
ATOM     19  C   UNL     1       4.339   6.525  17.323  0.00  0.00    +0.000 A 
ATOM     20  C   UNL     1       4.678   5.180  17.426  0.00  0.00    +0.000 A 
ATOM     21  C   UNL     1       3.757   4.254  17.914  0.00  0.00    +0.000 A 
ATOM     22  C   UNL     1       4.091   2.899  17.972  0.00  0.00    +0.000 A 
ATOM     23  C   UNL     1       3.085   1.946  18.043  0.00  0.00    +0.000 A 
ATOM     24  C   UNL     1       1.767   2.348  18.251  0.00  0.00    +0.000 A 
ATOM     25  C   UNL     1       1.470   3.701  18.466  0.00  0.00    +0.000 A 
ATOM     26  C   UNL     1       2.457   4.684  18.263  0.00  0.00    +0.000 A 
ATOM     27  C   UNL     1       2.190   6.065  18.324  0.00  0.00    +0.000 A 
ENDBRANCH  17  18
ENDBRANCH  16  17
ENDBRANCH  11  16
TORSDOF 3
ENDMDL
MODEL 8
REMARK VINA RESULT:      -8.4      5.125      7.186
REMARK  Name = 
REMARK  4 active torsions:
REMARK  status: ('A' for Active; 'I' for Inactive)
REMARK    1  A    between atoms: C_1  and  C_2
REMARK    2  A    between atoms: C_11  and  O_12
REMARK    3  A    between atoms: O_12  and  C_13
REMARK    4  A    between atoms: C_13  and  C_14
REMARK                            x       y       z     vdW  Elec       q    Type
REMARK                         _______ _______ _______ _____ _____    ______ ____
ROOT
ATOM      1  C   UNL     1       5.205   2.793  11.818  0.00  0.00    +0.000 C 
ATOM      2  C   UNL     1       6.140   3.717  12.532  0.00  0.00    +0.000 A 
ATOM      3  N   UNL     1       7.125   4.298  11.819  0.00  0.00    +0.000 NA
ATOM      4  C   UNL     1       7.996   5.134  12.420  0.00  0.00    +0.000 A 
ATOM      5  C   UNL     1       7.957   5.462  13.767  0.00  0.00    +0.000 A 
ATOM      6  C   UNL     1       6.948   4.863  14.534  0.00  0.00    +0.000 A 
ATOM      7  C   UNL     1       6.066   3.996  13.901  0.00  0.00    +0.000 A 
ATOM      8  N   UNL     1       5.181   3.559  14.868  0.00  0.00    +0.000 N 
ATOM      9  C   UNL     1       5.465   4.109  16.089  0.00  0.00    +0.000 A 
ATOM     10  C   UNL     1       4.831   3.949  17.325  0.00  0.00    +0.000 A 
ATOM     11  C   UNL     1       5.358   4.629  18.429  0.00  0.00    +0.000 A 
ATOM     12  C   UNL     1       6.457   5.473  18.279  0.00  0.00    +0.000 A 
ATOM     13  C   UNL     1       7.075   5.628  17.032  0.00  0.00    +0.000 A 
ATOM     14  C   UNL     1       6.571   4.934  15.907  0.00  0.00    +0.000 A 
ATOM     15  H   UNL     1       4.422   2.903  14.693  0.00  0.00    +0.000 HD
ENDROOT
BRANCH  11  16
ATOM     16  O   UNL     1       4.694   4.396  19.606  0.00  0.00    +0.000 OA
BRANCH  16  17
ATOM     17  C   UNL     1       3.277   4.257  19.516  0.00  0.00    +0.000 C 
BRANCH  17  18
ATOM     18  C   UNL     1       2.654   5.621  19.671  0.00  0.00    +0.000 A 
ATOM     19  C   UNL     1       1.797   5.851  20.751  0.00  0.00    +0.000 A 
ATOM     20  C   UNL     1       1.293   7.125  20.990  0.00  0.00    +0.000 A 
ATOM     21  C   UNL     1       1.510   8.153  20.074  0.00  0.00    +0.000 A 
ATOM     22  C   UNL     1       0.962   9.419  20.301  0.00  0.00    +0.000 A 
ATOM     23  C   UNL     1       0.804  10.299  19.239  0.00  0.00    +0.000 A 
ATOM     24  C   UNL     1       1.368   9.995  18.001  0.00  0.00    +0.000 A 
ATOM     25  C   UNL     1       2.153   8.844  17.849  0.00  0.00    +0.000 A 
ATOM     26  C   UNL     1       2.207   7.882  18.875  0.00  0.00    +0.000 A 
ATOM     27  C   UNL     1       2.861   6.644  18.734  0.00  0.00    +0.000 A 
ENDBRANCH  17  18
ENDBRANCH  16  17
ENDBRANCH  11  16
TORSDOF 3
ENDMDL
MODEL 9
REMARK VINA RESULT:      -8.4      7.174      8.943
REMARK  Name = 
REMARK  4 active torsions:
REMARK  status: ('A' for Active; 'I' for Inactive)
REMARK    1  A    between atoms: C_1  and  C_2
REMARK    2  A    between atoms: C_11  and  O_12
REMARK    3  A    between atoms: O_12  and  C_13
REMARK    4  A    between atoms: C_13  and  C_14
REMARK                            x       y       z     vdW  Elec       q    Type
REMARK                         _______ _______ _______ _____ _____    ______ ____
ROOT
ATOM      1  C   UNL     1       2.219   2.671  21.586  0.00  0.00    +0.000 C 
ATOM      2  C   UNL     1       2.525   3.284  20.257  0.00  0.00    +0.000 A 
ATOM      3  N   UNL     1       3.016   2.485  19.288  0.00  0.00    +0.000 NA
ATOM      4  C   UNL     1       3.313   2.993  18.074  0.00  0.00    +0.000 A 
ATOM      5  C   UNL     1       3.142   4.325  17.725  0.00  0.00    +0.000 A 
ATOM      6  C   UNL     1       2.643   5.179  18.718  0.00  0.00    +0.000 A 
ATOM      7  C   UNL     1       2.352   4.641  19.965  0.00  0.00    +0.000 A 
ATOM      8  N   UNL     1       1.875   5.680  20.741  0.00  0.00    +0.000 N 
ATOM      9  C   UNL     1       1.852   6.856  20.040  0.00  0.00    +0.000 A 
ATOM     10  C   UNL     1       1.443   8.136  20.428  0.00  0.00    +0.000 A 
ATOM     11  C   UNL     1       1.550   9.173  19.496  0.00  0.00    +0.000 A 
ATOM     12  C   UNL     1       2.012   8.918  18.205  0.00  0.00    +0.000 A 
ATOM     13  C   UNL     1       2.410   7.628  17.830  0.00  0.00    +0.000 A 
ATOM     14  C   UNL     1       2.329   6.569  18.764  0.00  0.00    +0.000 A 
ATOM     15  H   UNL     1       1.588   5.582  21.713  0.00  0.00    +0.000 HD
ENDROOT
BRANCH  11  16
ATOM     16  O   UNL     1       1.154  10.399  19.966  0.00  0.00    +0.000 OA
BRANCH  16  17
ATOM     17  C   UNL     1       0.754  11.354  18.984  0.00  0.00    +0.000 C 
BRANCH  17  18
ATOM     18  C   UNL     1      -0.723  11.610  19.142  0.00  0.00    +0.000 A 
ATOM     19  C   UNL     1      -1.190  12.139  20.349  0.00  0.00    +0.000 A 
ATOM     20  C   UNL     1      -2.528  12.493  20.490  0.00  0.00    +0.000 A 
ATOM     21  C   UNL     1      -3.450  12.184  19.491  0.00  0.00    +0.000 A 
ATOM     22  C   UNL     1      -4.799  12.504  19.662  0.00  0.00    +0.000 A 
ATOM     23  C   UNL     1      -5.761  11.848  18.907  0.00  0.00    +0.000 A 
ATOM     24  C   UNL     1      -5.368  11.023  17.854  0.00  0.00    +0.000 A 
ATOM     25  C   UNL     1      -4.013  10.918  17.511  0.00  0.00    +0.000 A 
ATOM     26  C   UNL     1      -3.025  11.468  18.349  0.00  0.00    +0.000 A 
ATOM     27  C   UNL     1      -1.646  11.279  18.139  0.00  0.00    +0.000 A 
ENDBRANCH  17  18
ENDBRANCH  16  17
ENDBRANCH  11  16
TORSDOF 3
ENDMDL
