MODEL 1
REMARK VINA RESULT:      -7.6      0.000      0.000
REMARK  Name = 
REMARK  3 active torsions:
REMARK  status: ('A' for Active; 'I' for Inactive)
REMARK    1  A    between atoms: C_2  and  C_3
REMARK    2  A    between atoms: C_3  and  N_4
REMARK    3  A    between atoms: N_16  and  C_17
REMARK                            x       y       z     vdW  Elec       q    Type
REMARK                         _______ _______ _______ _____ _____    ______ ____
ROOT
ATOM      1  C   UNL     1       7.319   6.672  17.148  0.00  0.00    +0.000 C 
ENDROOT
BRANCH   1   2
ATOM      2  N   UNL     1       6.268   6.707  18.187  0.00  0.00    +0.000 NA
ATOM      3  C   UNL     1       4.897   6.817  17.631  0.00  0.00    +0.000 C 
ATOM      4  C   UNL     1       4.016   5.541  17.560  0.00  0.00    +0.000 C 
ATOM      5  N   UNL     1       4.018   4.920  18.885  0.00  0.00    +0.000 N 
ATOM      6  C   UNL     1       2.916   4.132  19.222  0.00  0.00    +0.000 A 
ATOM      7  C   UNL     1       2.647   3.879  20.571  0.00  0.00    +0.000 A 
ATOM      8  C   UNL     1       1.471   3.229  20.952  0.00  0.00    +0.000 A 
ATOM      9  C   UNL     1       0.584   2.816  19.974  0.00  0.00    +0.000 A 
ATOM     10  C   UNL     1       0.917   3.077  18.659  0.00  0.00    +0.000 A 
ATOM     11  N   UNL     1       2.044   3.729  18.270  0.00  0.00    +0.000 NA
ATOM     12  C   UNL     1       5.353   4.431  19.238  0.00  0.00    +0.000 C 
ATOM     13  C   UNL     1       6.368   5.622  19.213  0.00  0.00    +0.000 C 
ENDBRANCH   1   2
BRANCH   1  15
ATOM     14  O   UNL     1       7.892   4.424  16.464  0.00  0.00    +0.000 OA
ATOM     15  C   UNL     1       7.255   5.440  16.178  0.00  0.00    +0.000 C 
ATOM     16  N   UNL     1       6.578   5.599  14.980  0.00  0.00    +0.000 N 
ATOM     17  H   UNL     1       6.220   6.538  14.822  0.00  0.00    +0.000 HD
BRANCH  16  18
ATOM     18  C   UNL     1       6.457   4.675  13.897  0.00  0.00    +0.000 A 
ATOM     19  C   UNL     1       7.412   4.486  12.884  0.00  0.00    +0.000 A 
ATOM     20  C   UNL     1       7.168   3.602  11.814  0.00  0.00    +0.000 A 
ATOM     21  C   UNL     1       5.979   2.890  11.756  0.00  0.00    +0.000 A 
ATOM     22  F   UNL     1       5.738   2.066  10.726  0.00  0.00    +0.000 F 
ATOM     23  C   UNL     1       5.036   3.029  12.764  0.00  0.00    +0.000 A 
ATOM     24  C   UNL     1       5.280   3.910  13.830  0.00  0.00    +0.000 A 
ENDBRANCH  16  18
ENDBRANCH   1  15
TORSDOF 3
ENDMDL
MODEL 2
REMARK VINA RESULT:      -7.5      5.126      8.780
REMARK  Name = 
REMARK  3 active torsions:
REMARK  status: ('A' for Active; 'I' for Inactive)
REMARK    1  A    between atoms: C_2  and  C_3
REMARK    2  A    between atoms: C_3  and  N_4
REMARK    3  A    between atoms: N_16  and  C_17
REMARK                            x       y       z     vdW  Elec       q    Type
REMARK                         _______ _______ _______ _____ _____    ______ ____
ROOT
ATOM      1  C   UNL     1       3.502   5.650  19.427  0.00  0.00    +0.000 C 
ENDROOT
BRANCH   1   2
ATOM      2  N   UNL     1       3.326   5.530  17.964  0.00  0.00    +0.000 NA
ATOM      3  C   UNL     1       4.090   6.543  17.197  0.00  0.00    +0.000 C 
ATOM      4  C   UNL     1       5.421   6.119  16.519  0.00  0.00    +0.000 C 
ATOM      5  N   UNL     1       5.157   4.919  15.724  0.00  0.00    +0.000 N 
ATOM      6  C   UNL     1       5.992   4.682  14.631  0.00  0.00    +0.000 A 
ATOM      7  C   UNL     1       5.550   3.837  13.608  0.00  0.00    +0.000 A 
ATOM      8  C   UNL     1       6.288   3.699  12.430  0.00  0.00    +0.000 A 
ATOM      9  C   UNL     1       7.478   4.393  12.297  0.00  0.00    +0.000 A 
ATOM     10  C   UNL     1       7.870   5.195  13.352  0.00  0.00    +0.000 A 
ATOM     11  N   UNL     1       7.154   5.360  14.495  0.00  0.00    +0.000 NA
ATOM     12  C   UNL     1       4.798   3.786  16.580  0.00  0.00    +0.000 C 
ATOM     13  C   UNL     1       3.529   4.150  17.422  0.00  0.00    +0.000 C 
ENDBRANCH   1   2
BRANCH   1  15
ATOM     14  O   UNL     1       1.429   5.676  20.673  0.00  0.00    +0.000 OA
ATOM     15  C   UNL     1       2.326   6.364  20.182  0.00  0.00    +0.000 C 
ATOM     16  N   UNL     1       2.291   7.748  20.156  0.00  0.00    +0.000 N 
ATOM     17  H   UNL     1       3.025   8.175  19.596  0.00  0.00    +0.000 HD
BRANCH  16  18
ATOM     18  C   UNL     1       1.290   8.624  20.676  0.00  0.00    +0.000 A 
ATOM     19  C   UNL     1       0.459   9.453  19.904  0.00  0.00    +0.000 A 
ATOM     20  C   UNL     1      -0.451  10.339  20.515  0.00  0.00    +0.000 A 
ATOM     21  C   UNL     1      -0.550  10.391  21.898  0.00  0.00    +0.000 A 
ATOM     22  F   UNL     1      -1.400  11.250  22.479  0.00  0.00    +0.000 F 
ATOM     23  C   UNL     1       0.230   9.555  22.682  0.00  0.00    +0.000 A 
ATOM     24  C   UNL     1       1.138   8.673  22.073  0.00  0.00    +0.000 A 
ENDBRANCH  16  18
ENDBRANCH   1  15
TORSDOF 3
ENDMDL
MODEL 3
REMARK VINA RESULT:      -7.4      0.297      1.038
REMARK  Name = 
REMARK  3 active torsions:
REMARK  status: ('A' for Active; 'I' for Inactive)
REMARK    1  A    between atoms: C_2  and  C_3
REMARK    2  A    between atoms: C_3  and  N_4
REMARK    3  A    between atoms: N_16  and  C_17
REMARK                            x       y       z     vdW  Elec       q    Type
REMARK                         _______ _______ _______ _____ _____    ______ ____
ROOT
ATOM      1  C   UNL     1       7.196   6.589  17.001  0.00  0.00    +0.000 C 
ENDROOT
BRANCH   1   2
ATOM      2  N   UNL     1       6.157   6.588  18.054  0.00  0.00    +0.000 NA
ATOM      3  C   UNL     1       4.777   6.654  17.516  0.00  0.00    +0.000 C 
ATOM      4  C   UNL     1       3.936   5.350  17.453  0.00  0.00    +0.000 C 
ATOM      5  N   UNL     1       3.976   4.727  18.777  0.00  0.00    +0.000 N 
ATOM      6  C   UNL     1       2.904   3.903  19.126  0.00  0.00    +0.000 A 
ATOM      7  C   UNL     1       2.661   3.639  20.478  0.00  0.00    +0.000 A 
ATOM      8  C   UNL     1       1.512   2.951  20.873  0.00  0.00    +0.000 A 
ATOM      9  C   UNL     1       0.626   2.511  19.906  0.00  0.00    +0.000 A 
ATOM     10  C   UNL     1       0.934   2.785  18.587  0.00  0.00    +0.000 A 
ATOM     11  N   UNL     1       2.034   3.473  18.185  0.00  0.00    +0.000 NA
ATOM     12  C   UNL     1       5.331   4.281  19.112  0.00  0.00    +0.000 C 
ATOM     13  C   UNL     1       6.306   5.505  19.076  0.00  0.00    +0.000 C 
ENDBRANCH   1   2
BRANCH   1  15
ATOM     14  O   UNL     1       7.815   4.363  16.285  0.00  0.00    +0.000 OA
ATOM     15  C   UNL     1       7.148   5.366  16.019  0.00  0.00    +0.000 C 
ATOM     16  N   UNL     1       6.449   5.519  14.833  0.00  0.00    +0.000 N 
ATOM     17  H   UNL     1       6.065   6.450  14.691  0.00  0.00    +0.000 HD
BRANCH  16  18
ATOM     18  C   UNL     1       6.336   4.604  13.742  0.00  0.00    +0.000 A 
ATOM     19  C   UNL     1       5.211   3.810  13.465  0.00  0.00    +0.000 A 
ATOM     20  C   UNL     1       5.222   2.881  12.405  0.00  0.00    +0.000 A 
ATOM     21  C   UNL     1       6.349   2.749  11.607  0.00  0.00    +0.000 A 
ATOM     22  F   UNL     1       6.367   1.849  10.613  0.00  0.00    +0.000 F 
ATOM     23  C   UNL     1       7.459   3.549  11.835  0.00  0.00    +0.000 A 
ATOM     24  C   UNL     1       7.447   4.474  12.891  0.00  0.00    +0.000 A 
ENDBRANCH  16  18
ENDBRANCH   1  15
TORSDOF 3
ENDMDL
MODEL 4
REMARK VINA RESULT:      -7.4      5.066      8.717
REMARK  Name = 
REMARK  3 active torsions:
REMARK  status: ('A' for Active; 'I' for Inactive)
REMARK    1  A    between atoms: C_2  and  C_3
REMARK    2  A    between atoms: C_3  and  N_4
REMARK    3  A    between atoms: N_16  and  C_17
REMARK                            x       y       z     vdW  Elec       q    Type
REMARK                         _______ _______ _______ _____ _____    ______ ____
ROOT
ATOM      1  C   UNL     1       3.355   5.401  19.532  0.00  0.00    +0.000 C 
ENDROOT
BRANCH   1   2
ATOM      2  N   UNL     1       3.206   5.319  18.063  0.00  0.00    +0.000 NA
ATOM      3  C   UNL     1       3.947   6.379  17.338  0.00  0.00    +0.000 C 
ATOM      4  C   UNL     1       5.302   6.021  16.671  0.00  0.00    +0.000 C 
ATOM      5  N   UNL     1       5.092   4.837  15.837  0.00  0.00    +0.000 N 
ATOM      6  C   UNL     1       5.952   4.661  14.751  0.00  0.00    +0.000 A 
ATOM      7  C   UNL     1       5.555   3.831  13.697  0.00  0.00    +0.000 A 
ATOM      8  C   UNL     1       6.316   3.753  12.528  0.00  0.00    +0.000 A 
ATOM      9  C   UNL     1       7.483   4.491  12.436  0.00  0.00    +0.000 A 
ATOM     10  C   UNL     1       7.831   5.275  13.520  0.00  0.00    +0.000 A 
ATOM     11  N   UNL     1       7.091   5.381  14.655  0.00  0.00    +0.000 NA
ATOM     12  C   UNL     1       4.759   3.667  16.654  0.00  0.00    +0.000 C 
ATOM     13  C   UNL     1       3.465   3.963  17.485  0.00  0.00    +0.000 C 
ENDBRANCH   1   2
BRANCH   1  15
ATOM     14  O   UNL     1       1.267   5.618  20.733  0.00  0.00    +0.000 OA
ATOM     15  C   UNL     1       2.237   6.220  20.268  0.00  0.00    +0.000 C 
ATOM     16  N   UNL     1       2.336   7.602  20.254  0.00  0.00    +0.000 N 
ATOM     17  H   UNL     1       3.119   7.960  19.712  0.00  0.00    +0.000 HD
BRANCH  16  18
ATOM     18  C   UNL     1       1.412   8.566  20.760  0.00  0.00    +0.000 A 
ATOM     19  C   UNL     1       1.120   8.771  22.118  0.00  0.00    +0.000 A 
ATOM     20  C   UNL     1       0.136   9.699  22.517  0.00  0.00    +0.000 A 
ATOM     21  C   UNL     1      -0.551  10.437  21.564  0.00  0.00    +0.000 A 
ATOM     22  F   UNL     1      -1.502  11.303  21.942  0.00  0.00    +0.000 F 
ATOM     23  C   UNL     1      -0.254  10.282  20.218  0.00  0.00    +0.000 A 
ATOM     24  C   UNL     1       0.727   9.357  19.822  0.00  0.00    +0.000 A 
ENDBRANCH  16  18
ENDBRANCH   1  15
TORSDOF 3
ENDMDL
MODEL 5
REMARK VINA RESULT:      -7.3      4.669      6.760
REMARK  Name = 
REMARK  3 active torsions:
REMARK  status: ('A' for Active; 'I' for Inactive)
REMARK    1  A    between atoms: C_2  and  C_3
REMARK    2  A    between atoms: C_3  and  N_4
REMARK    3  A    between atoms: N_16  and  C_17
REMARK                            x       y       z     vdW  Elec       q    Type
REMARK                         _______ _______ _______ _____ _____    ______ ____
ROOT
ATOM      1  C   UNL     1       6.978   7.325  17.188  0.00  0.00    +0.000 C 
ENDROOT
BRANCH   1   2
ATOM      2  N   UNL     1       6.612   5.957  17.614  0.00  0.00    +0.000 NA
ATOM      3  C   UNL     1       6.033   5.902  18.978  0.00  0.00    +0.000 C 
ATOM      4  C   UNL     1       4.494   5.770  19.131  0.00  0.00    +0.000 C 
ATOM      5  N   UNL     1       4.056   4.642  18.308  0.00  0.00    +0.000 N 
ATOM      6  C   UNL     1       2.882   3.992  18.690  0.00  0.00    +0.000 A 
ATOM      7  C   UNL     1       2.647   2.689  18.239  0.00  0.00    +0.000 A 
ATOM      8  C   UNL     1       1.564   1.952  18.723  0.00  0.00    +0.000 A 
ATOM      9  C   UNL     1       0.709   2.537  19.640  0.00  0.00    +0.000 A 
ATOM     10  C   UNL     1       0.983   3.834  20.030  0.00  0.00    +0.000 A 
ATOM     11  N   UNL     1       2.045   4.558  19.588  0.00  0.00    +0.000 NA
ATOM     12  C   UNL     1       4.267   4.912  16.884  0.00  0.00    +0.000 C 
ATOM     13  C   UNL     1       5.785   5.196  16.626  0.00  0.00    +0.000 C 
ENDBRANCH   1   2
BRANCH   1  15
ATOM     14  O   UNL     1       8.639   7.369  18.945  0.00  0.00    +0.000 OA
ATOM     15  C   UNL     1       8.076   8.023  18.065  0.00  0.00    +0.000 C 
ATOM     16  N   UNL     1       8.274   9.382  17.886  0.00  0.00    +0.000 N 
ATOM     17  H   UNL     1       7.639   9.814  17.220  0.00  0.00    +0.000 HD
BRANCH  16  18
ATOM     18  C   UNL     1       9.133  10.260  18.616  0.00  0.00    +0.000 A 
ATOM     19  C   UNL     1       9.104  10.449  20.007  0.00  0.00    +0.000 A 
ATOM     20  C   UNL     1       9.944  11.396  20.628  0.00  0.00    +0.000 A 
ATOM     21  C   UNL     1      10.828  12.146  19.868  0.00  0.00    +0.000 A 
ATOM     22  F   UNL     1      11.612  13.061  20.456  0.00  0.00    +0.000 F 
ATOM     23  C   UNL     1      10.906  11.950  18.497  0.00  0.00    +0.000 A 
ATOM     24  C   UNL     1      10.068  11.007  17.879  0.00  0.00    +0.000 A 
ENDBRANCH  16  18
ENDBRANCH   1  15
TORSDOF 3
ENDMDL
MODEL 6
REMARK VINA RESULT:      -7.2      4.798      6.890
REMARK  Name = 
REMARK  3 active torsions:
REMARK  status: ('A' for Active; 'I' for Inactive)
REMARK    1  A    between atoms: C_2  and  C_3
REMARK    2  A    between atoms: C_3  and  N_4
REMARK    3  A    between atoms: N_16  and  C_17
REMARK                            x       y       z     vdW  Elec       q    Type
REMARK                         _______ _______ _______ _____ _____    ______ ____
ROOT
ATOM      1  C   UNL     1       7.930   6.721  18.325  0.00  0.00    +0.000 C 
ENDROOT
BRANCH   1   2
ATOM      2  N   UNL     1       6.810   6.164  17.537  0.00  0.00    +0.000 NA
ATOM      3  C   UNL     1       6.689   4.690  17.649  0.00  0.00    +0.000 C 
ATOM      4  C   UNL     1       5.602   4.099  18.587  0.00  0.00    +0.000 C 
ATOM      5  N   UNL     1       4.325   4.725  18.243  0.00  0.00    +0.000 N 
ATOM      6  C   UNL     1       3.164   4.002  18.524  0.00  0.00    +0.000 A 
ATOM      7  C   UNL     1       1.981   4.325  17.850  0.00  0.00    +0.000 A 
ATOM      8  C   UNL     1       0.843   3.527  17.989  0.00  0.00    +0.000 A 
ATOM      9  C   UNL     1       0.893   2.424  18.822  0.00  0.00    +0.000 A 
ATOM     10  C   UNL     1       2.085   2.171  19.476  0.00  0.00    +0.000 A 
ATOM     11  N   UNL     1       3.209   2.921  19.335  0.00  0.00    +0.000 NA
ATOM     12  C   UNL     1       4.339   6.158  18.546  0.00  0.00    +0.000 C 
ATOM     13  C   UNL     1       5.496   6.848  17.749  0.00  0.00    +0.000 C 
ENDBRANCH   1   2
BRANCH   1  15
ATOM     14  O   UNL     1       7.725   8.829  17.156  0.00  0.00    +0.000 OA
ATOM     15  C   UNL     1       8.148   8.267  18.168  0.00  0.00    +0.000 C 
ATOM     16  N   UNL     1       8.916   8.909  19.125  0.00  0.00    +0.000 N 
ATOM     17  H   UNL     1       9.313   8.290  19.828  0.00  0.00    +0.000 HD
BRANCH  16  18
ATOM     18  C   UNL     1       9.339  10.273  19.160  0.00  0.00    +0.000 A 
ATOM     19  C   UNL     1       9.750  11.022  18.045  0.00  0.00    +0.000 A 
ATOM     20  C   UNL     1      10.221  12.342  18.191  0.00  0.00    +0.000 A 
ATOM     21  C   UNL     1      10.270  12.928  19.448  0.00  0.00    +0.000 A 
ATOM     22  F   UNL     1      10.738  14.176  19.589  0.00  0.00    +0.000 F 
ATOM     23  C   UNL     1       9.833  12.225  20.560  0.00  0.00    +0.000 A 
ATOM     24  C   UNL     1       9.364  10.909  20.413  0.00  0.00    +0.000 A 
ENDBRANCH  16  18
ENDBRANCH   1  15
TORSDOF 3
ENDMDL
MODEL 7
REMARK VINA RESULT:      -7.1      4.590      6.607
REMARK  Name = 
REMARK  3 active torsions:
REMARK  status: ('A' for Active; 'I' for Inactive)
REMARK    1  A    between atoms: C_2  and  C_3
REMARK    2  A    between atoms: C_3  and  N_4
REMARK    3  A    between atoms: N_16  and  C_17
REMARK                            x       y       z     vdW  Elec       q    Type
REMARK                         _______ _______ _______ _____ _____    ______ ____
ROOT
ATOM      1  C   UNL     1       6.828   7.305  17.166  0.00  0.00    +0.000 C 
ENDROOT
BRANCH   1   2
ATOM      2  N   UNL     1       6.495   5.942  17.629  0.00  0.00    +0.000 NA
ATOM      3  C   UNL     1       5.889   5.913  18.982  0.00  0.00    +0.000 C 
ATOM      4  C   UNL     1       4.351   5.740  19.108  0.00  0.00    +0.000 C 
ATOM      5  N   UNL     1       3.965   4.572  18.314  0.00  0.00    +0.000 N 
ATOM      6  C   UNL     1       2.802   3.899  18.693  0.00  0.00    +0.000 A 
ATOM      7  C   UNL     1       2.617   2.576  18.280  0.00  0.00    +0.000 A 
ATOM      8  C   UNL     1       1.546   1.822  18.767  0.00  0.00    +0.000 A 
ATOM      9  C   UNL     1       0.655   2.411  19.646  0.00  0.00    +0.000 A 
ATOM     10  C   UNL     1       0.881   3.728  19.998  0.00  0.00    +0.000 A 
ATOM     11  N   UNL     1       1.930   4.469  19.555  0.00  0.00    +0.000 NA
ATOM     12  C   UNL     1       4.198   4.803  16.886  0.00  0.00    +0.000 C 
ATOM     13  C   UNL     1       5.712   5.124  16.650  0.00  0.00    +0.000 C 
ENDBRANCH   1   2
BRANCH   1  15
ATOM     14  O   UNL     1       8.595   7.374  18.816  0.00  0.00    +0.000 OA
ATOM     15  C   UNL     1       7.983   8.013  17.958  0.00  0.00    +0.000 C 
ATOM     16  N   UNL     1       8.180   9.366  17.738  0.00  0.00    +0.000 N 
ATOM     17  H   UNL     1       7.508   9.789  17.102  0.00  0.00    +0.000 HD
BRANCH  16  18
ATOM     18  C   UNL     1       9.088  10.252  18.394  0.00  0.00    +0.000 A 
ATOM     19  C   UNL     1      10.062  11.034  17.753  0.00  0.00    +0.000 A 
ATOM     20  C   UNL     1      10.964  11.824  18.495  0.00  0.00    +0.000 A 
ATOM     21  C   UNL     1      10.887  11.851  19.880  0.00  0.00    +0.000 A 
ATOM     22  F   UNL     1      11.758  12.585  20.587  0.00  0.00    +0.000 F 
ATOM     23  C   UNL     1       9.908  11.120  20.536  0.00  0.00    +0.000 A 
ATOM     24  C   UNL     1       9.011  10.332  19.795  0.00  0.00    +0.000 A 
ENDBRANCH  16  18
ENDBRANCH   1  15
TORSDOF 3
ENDMDL
MODEL 8
REMARK VINA RESULT:      -7.0      3.122      4.012
REMARK  Name = 
REMARK  3 active torsions:
REMARK  status: ('A' for Active; 'I' for Inactive)
REMARK    1  A    between atoms: C_2  and  C_3
REMARK    2  A    between atoms: C_3  and  N_4
REMARK    3  A    between atoms: N_16  and  C_17
REMARK                            x       y       z     vdW  Elec       q    Type
REMARK                         _______ _______ _______ _____ _____    ______ ____
ROOT
ATOM      1  C   UNL     1       4.220   3.058  18.634  0.00  0.00    +0.000 C 
ENDROOT
BRANCH   1   2
ATOM      2  N   UNL     1       4.101   4.121  19.654  0.00  0.00    +0.000 NA
ATOM      3  C   UNL     1       4.513   5.457  19.160  0.00  0.00    +0.000 C 
ATOM      4  C   UNL     1       3.413   6.477  18.760  0.00  0.00    +0.000 C 
ATOM      5  N   UNL     1       2.468   6.577  19.874  0.00  0.00    +0.000 N 
ATOM      6  C   UNL     1       1.754   7.769  20.000  0.00  0.00    +0.000 A 
ATOM      7  C   UNL     1       1.187   8.095  21.236  0.00  0.00    +0.000 A 
ATOM      8  C   UNL     1       0.601   9.347  21.442  0.00  0.00    +0.000 A 
ATOM      9  C   UNL     1       0.567  10.253  20.397  0.00  0.00    +0.000 A 
ATOM     10  C   UNL     1       1.125   9.862  19.195  0.00  0.00    +0.000 A 
ATOM     11  N   UNL     1       1.720   8.659  18.983  0.00  0.00    +0.000 NA
ATOM     12  C   UNL     1       1.751   5.315  20.073  0.00  0.00    +0.000 C 
ATOM     13  C   UNL     1       2.780   4.169  20.356  0.00  0.00    +0.000 C 
ENDBRANCH   1   2
BRANCH   1  15
ATOM     14  O   UNL     1       3.368   3.842  16.511  0.00  0.00    +0.000 OA
ATOM     15  C   UNL     1       4.380   3.567  17.158  0.00  0.00    +0.000 C 
ATOM     16  N   UNL     1       5.653   3.567  16.612  0.00  0.00    +0.000 N 
ATOM     17  H   UNL     1       6.371   3.182  17.222  0.00  0.00    +0.000 HD
BRANCH  16  18
ATOM     18  C   UNL     1       6.049   3.887  15.278  0.00  0.00    +0.000 A 
ATOM     19  C   UNL     1       5.560   3.266  14.117  0.00  0.00    +0.000 A 
ATOM     20  C   UNL     1       6.068   3.600  12.846  0.00  0.00    +0.000 A 
ATOM     21  C   UNL     1       7.055   4.567  12.723  0.00  0.00    +0.000 A 
ATOM     22  F   UNL     1       7.554   4.870  11.516  0.00  0.00    +0.000 F 
ATOM     23  C   UNL     1       7.528   5.224  13.850  0.00  0.00    +0.000 A 
ATOM     24  C   UNL     1       7.021   4.890  15.117  0.00  0.00    +0.000 A 
ENDBRANCH  16  18
ENDBRANCH   1  15
TORSDOF 3
ENDMDL
MODEL 9
REMARK VINA RESULT:      -6.9      4.709      6.813
REMARK  Name = 
REMARK  3 active torsions:
REMARK  status: ('A' for Active; 'I' for Inactive)
REMARK    1  A    between atoms: C_2  and  C_3
REMARK    2  A    between atoms: C_3  and  N_4
REMARK    3  A    between atoms: N_16  and  C_17
REMARK                            x       y       z     vdW  Elec       q    Type
REMARK                         _______ _______ _______ _____ _____    ______ ____
ROOT
ATOM      1  C   UNL     1       7.986   6.705  18.457  0.00  0.00    +0.000 C 
ENDROOT
BRANCH   1   2
ATOM      2  N   UNL     1       6.911   6.088  17.650  0.00  0.00    +0.000 NA
ATOM      3  C   UNL     1       6.770   4.629  17.878  0.00  0.00    +0.000 C 
ATOM      4  C   UNL     1       5.621   4.125  18.793  0.00  0.00    +0.000 C 
ATOM      5  N   UNL     1       4.374   4.725  18.319  0.00  0.00    +0.000 N 
ATOM      6  C   UNL     1       3.191   4.033  18.587  0.00  0.00    +0.000 A 
ATOM      7  C   UNL     1       2.055   4.304  17.816  0.00  0.00    +0.000 A 
ATOM      8  C   UNL     1       0.903   3.525  17.950  0.00  0.00    +0.000 A 
ATOM      9  C   UNL     1       0.891   2.496  18.875  0.00  0.00    +0.000 A 
ATOM     10  C   UNL     1       2.037   2.294  19.620  0.00  0.00    +0.000 A 
ATOM     11  N   UNL     1       3.175   3.025  19.486  0.00  0.00    +0.000 NA
ATOM     12  C   UNL     1       4.383   6.179  18.501  0.00  0.00    +0.000 C 
ATOM     13  C   UNL     1       5.594   6.794  17.722  0.00  0.00    +0.000 C 
ENDBRANCH   1   2
BRANCH   1  15
ATOM     14  O   UNL     1       7.919   8.705  17.099  0.00  0.00    +0.000 OA
ATOM     15  C   UNL     1       8.216   8.235  18.199  0.00  0.00    +0.000 C 
ATOM     16  N   UNL     1       8.857   8.965  19.186  0.00  0.00    +0.000 N 
ATOM     17  H   UNL     1       9.167   8.412  19.982  0.00  0.00    +0.000 HD
BRANCH  16  18
ATOM     18  C   UNL     1       9.267  10.333  19.158  0.00  0.00    +0.000 A 
ATOM     19  C   UNL     1       9.861  11.023  20.227  0.00  0.00    +0.000 A 
ATOM     20  C   UNL     1      10.163  12.396  20.127  0.00  0.00    +0.000 A 
ATOM     21  C   UNL     1       9.888  13.085  18.955  0.00  0.00    +0.000 A 
ATOM     22  F   UNL     1      10.155  14.396  18.867  0.00  0.00    +0.000 F 
ATOM     23  C   UNL     1       9.338  12.419  17.870  0.00  0.00    +0.000 A 
ATOM     24  C   UNL     1       9.037  11.051  17.971  0.00  0.00    +0.000 A 
ENDBRANCH  16  18
ENDBRANCH   1  15
TORSDOF 3
ENDMDL
