MODEL 1
REMARK VINA RESULT:      -7.5      0.000      0.000
REMARK  Name = 
REMARK  10 active torsions:
REMARK  status: ('A' for Active; 'I' for Inactive)
REMARK    1  A    between atoms: C_1  and  O_2
REMARK    2  A    between atoms: O_2  and  C_3
REMARK    3  A    between atoms: C_6  and  C_7
REMARK    4  A    between atoms: C_7  and  C_9
REMARK    5  A    between atoms: C_13  and  O_14
REMARK    6  A    between atoms: O_14  and  C_15
REMARK    7  A    between atoms: C_16  and  O_17
REMARK    8  A    between atoms: O_17  and  C_18
REMARK    9  A    between atoms: C_19  and  O_20
REMARK   10  A    between atoms: O_20  and  C_21
REMARK                            x       y       z     vdW  Elec       q    Type
REMARK                         _______ _______ _______ _____ _____    ______ ____
ROOT
ATOM      1  C   UNL     1       1.827   8.305  19.111  0.00  0.00    +0.000 A 
ATOM      2  C   UNL     1       1.341   8.217  20.399  0.00  0.00    +0.000 A 
ATOM      3  N   UNL     1       1.699   7.002  20.899  0.00  0.00    +0.000 N 
ATOM      4  C   UNL     1       2.370   6.249  19.957  0.00  0.00    +0.000 A 
ATOM      5  C   UNL     1       2.820   4.906  19.935  0.00  0.00    +0.000 A 
ATOM      6  C   UNL     1       3.493   4.444  18.752  0.00  0.00    +0.000 A 
ATOM      7  C   UNL     1       3.827   5.345  17.731  0.00  0.00    +0.000 A 
ATOM      8  C   UNL     1       3.398   6.673  17.825  0.00  0.00    +0.000 A 
ATOM      9  C   UNL     1       2.586   7.118  18.883  0.00  0.00    +0.000 A 
ATOM     10  H   UNL     1       1.436   6.700  21.823  0.00  0.00    +0.000 HD
ENDROOT
BRANCH   1  11
ATOM     11  C   UNL     1       1.529   9.438  18.240  0.00  0.00    +0.000 C 
ATOM     12  O   UNL     1       2.358   9.879  17.450  0.00  0.00    +0.000 OA
BRANCH  11  16
ATOM     13  C   UNL     1      -2.406  11.118  18.498  0.00  0.00    +0.000 A 
ATOM     14  C   UNL     1      -2.087  10.154  17.536  0.00  0.00    +0.000 A 
ATOM     15  C   UNL     1      -0.795   9.633  17.450  0.00  0.00    +0.000 A 
ATOM     16  C   UNL     1       0.198  10.094  18.313  0.00  0.00    +0.000 A 
ATOM     17  C   UNL     1      -0.079  11.140  19.198  0.00  0.00    +0.000 A 
ATOM     18  C   UNL     1      -1.385  11.627  19.314  0.00  0.00    +0.000 A 
ATOM     19  I   UNL     1      -1.754  13.049  20.812  0.00  0.00    +0.000 I 
BRANCH  13  21
ATOM     20  C   UNL     1      -4.533  11.457  17.538  0.00  0.00    +0.000 C 
ATOM     21  O   UNL     1      -3.674  11.608  18.664  0.00  0.00    +0.000 OA
ENDBRANCH  13  21
ENDBRANCH  11  16
ENDBRANCH   1  11
BRANCH   5  22
ATOM     22  O   UNL     1       2.689   3.996  20.976  0.00  0.00    +0.000 OA
ATOM     23  C   UNL     1       1.451   3.325  21.139  0.00  0.00    +0.000 C 
ENDBRANCH   5  22
BRANCH   6  24
ATOM     24  O   UNL     1       3.862   3.128  18.572  0.00  0.00    +0.000 OA
ATOM     25  C   UNL     1       2.962   2.318  17.814  0.00  0.00    +0.000 C 
ENDBRANCH   6  24
BRANCH   7  26
ATOM     26  O   UNL     1       4.493   5.162  16.552  0.00  0.00    +0.000 OA
ATOM     27  C   UNL     1       5.213   6.206  15.927  0.00  0.00    +0.000 C 
ENDBRANCH   7  26
TORSDOF 6
ENDMDL
MODEL 2
REMARK VINA RESULT:      -7.4      1.282      1.642
REMARK  Name = 
REMARK  10 active torsions:
REMARK  status: ('A' for Active; 'I' for Inactive)
REMARK    1  A    between atoms: C_1  and  O_2
REMARK    2  A    between atoms: O_2  and  C_3
REMARK    3  A    between atoms: C_6  and  C_7
REMARK    4  A    between atoms: C_7  and  C_9
REMARK    5  A    between atoms: C_13  and  O_14
REMARK    6  A    between atoms: O_14  and  C_15
REMARK    7  A    between atoms: C_16  and  O_17
REMARK    8  A    between atoms: O_17  and  C_18
REMARK    9  A    between atoms: C_19  and  O_20
REMARK   10  A    between atoms: O_20  and  C_21
REMARK                            x       y       z     vdW  Elec       q    Type
REMARK                         _______ _______ _______ _____ _____    ______ ____
ROOT
ATOM      1  C   UNL     1       1.951   8.042  19.234  0.00  0.00    +0.000 A 
ATOM      2  C   UNL     1       1.504   7.925  20.533  0.00  0.00    +0.000 A 
ATOM      3  N   UNL     1       1.850   6.688  20.986  0.00  0.00    +0.000 N 
ATOM      4  C   UNL     1       2.474   5.950  20.001  0.00  0.00    +0.000 A 
ATOM      5  C   UNL     1       2.893   4.598  19.924  0.00  0.00    +0.000 A 
ATOM      6  C   UNL     1       3.518   4.158  18.707  0.00  0.00    +0.000 A 
ATOM      7  C   UNL     1       3.840   5.082  17.704  0.00  0.00    +0.000 A 
ATOM      8  C   UNL     1       3.444   6.416  17.850  0.00  0.00    +0.000 A 
ATOM      9  C   UNL     1       2.676   6.846  18.947  0.00  0.00    +0.000 A 
ATOM     10  H   UNL     1       1.609   6.364  21.908  0.00  0.00    +0.000 HD
ENDROOT
BRANCH   1  11
ATOM     11  C   UNL     1       1.652   9.207  18.407  0.00  0.00    +0.000 C 
ATOM     12  O   UNL     1       2.415   9.581  17.521  0.00  0.00    +0.000 OA
BRANCH  11  16
ATOM     13  C   UNL     1      -1.819  11.629  19.079  0.00  0.00    +0.000 A 
ATOM     14  C   UNL     1      -0.749  11.624  19.980  0.00  0.00    +0.000 A 
ATOM     15  C   UNL     1       0.365  10.813  19.758  0.00  0.00    +0.000 A 
ATOM     16  C   UNL     1       0.405   9.978  18.643  0.00  0.00    +0.000 A 
ATOM     17  C   UNL     1      -0.709   9.887  17.801  0.00  0.00    +0.000 A 
ATOM     18  C   UNL     1      -1.803  10.735  17.999  0.00  0.00    +0.000 A 
ATOM     19  I   UNL     1      -3.336  10.679  16.569  0.00  0.00    +0.000 I 
BRANCH  13  21
ATOM     20  C   UNL     1      -3.254  12.770  20.563  0.00  0.00    +0.000 C 
ATOM     21  O   UNL     1      -2.901  12.457  19.219  0.00  0.00    +0.000 OA
ENDBRANCH  13  21
ENDBRANCH  11  16
ENDBRANCH   1  11
BRANCH   5  22
ATOM     22  O   UNL     1       2.774   3.661  20.942  0.00  0.00    +0.000 OA
ATOM     23  C   UNL     1       1.505   3.075  21.180  0.00  0.00    +0.000 C 
ENDBRANCH   5  22
BRANCH   6  24
ATOM     24  O   UNL     1       3.852   2.841  18.477  0.00  0.00    +0.000 OA
ATOM     25  C   UNL     1       2.863   2.045  17.821  0.00  0.00    +0.000 C 
ENDBRANCH   6  24
BRANCH   7  26
ATOM     26  O   UNL     1       4.466   4.921  16.499  0.00  0.00    +0.000 OA
ATOM     27  C   UNL     1       5.868   4.785  16.394  0.00  0.00    +0.000 C 
ENDBRANCH   7  26
TORSDOF 6
ENDMDL
MODEL 3
REMARK VINA RESULT:      -7.2      1.208      1.312
REMARK  Name = 
REMARK  10 active torsions:
REMARK  status: ('A' for Active; 'I' for Inactive)
REMARK    1  A    between atoms: C_1  and  O_2
REMARK    2  A    between atoms: O_2  and  C_3
REMARK    3  A    between atoms: C_6  and  C_7
REMARK    4  A    between atoms: C_7  and  C_9
REMARK    5  A    between atoms: C_13  and  O_14
REMARK    6  A    between atoms: O_14  and  C_15
REMARK    7  A    between atoms: C_16  and  O_17
REMARK    8  A    between atoms: O_17  and  C_18
REMARK    9  A    between atoms: C_19  and  O_20
REMARK   10  A    between atoms: O_20  and  C_21
REMARK                            x       y       z     vdW  Elec       q    Type
REMARK                         _______ _______ _______ _____ _____    ______ ____
ROOT
ATOM      1  C   UNL     1       2.123   7.891  19.040  0.00  0.00    +0.000 A 
ATOM      2  C   UNL     1       1.538   7.874  20.288  0.00  0.00    +0.000 A 
ATOM      3  N   UNL     1       1.812   6.670  20.863  0.00  0.00    +0.000 N 
ATOM      4  C   UNL     1       2.523   5.855  20.006  0.00  0.00    +0.000 A 
ATOM      5  C   UNL     1       2.924   4.498  20.072  0.00  0.00    +0.000 A 
ATOM      6  C   UNL     1       3.667   3.963  18.964  0.00  0.00    +0.000 A 
ATOM      7  C   UNL     1       4.111   4.808  17.937  0.00  0.00    +0.000 A 
ATOM      8  C   UNL     1       3.726   6.153  17.945  0.00  0.00    +0.000 A 
ATOM      9  C   UNL     1       2.853   6.670  18.919  0.00  0.00    +0.000 A 
ATOM     10  H   UNL     1       1.468   6.416  21.774  0.00  0.00    +0.000 HD
ENDROOT
BRANCH   1  11
ATOM     11  C   UNL     1       1.935   8.996  18.104  0.00  0.00    +0.000 C 
ATOM     12  O   UNL     1       2.540   9.046  17.037  0.00  0.00    +0.000 OA
BRANCH  11  16
ATOM     13  C   UNL     1      -0.882  12.029  19.212  0.00  0.00    +0.000 A 
ATOM     14  C   UNL     1      -1.262  10.932  18.432  0.00  0.00    +0.000 A 
ATOM     15  C   UNL     1      -0.328   9.964  18.061  0.00  0.00    +0.000 A 
ATOM     16  C   UNL     1       1.004  10.101  18.446  0.00  0.00    +0.000 A 
ATOM     17  C   UNL     1       1.418  11.253  19.124  0.00  0.00    +0.000 A 
ATOM     18  C   UNL     1       0.472  12.197  19.536  0.00  0.00    +0.000 A 
ATOM     19  I   UNL     1       1.151  13.785  20.726  0.00  0.00    +0.000 I 
BRANCH  13  21
ATOM     20  C   UNL     1      -2.972  12.441  20.225  0.00  0.00    +0.000 C 
ATOM     21  O   UNL     1      -1.776  12.967  19.658  0.00  0.00    +0.000 OA
ENDBRANCH  13  21
ENDBRANCH  11  16
ENDBRANCH   1  11
BRANCH   5  22
ATOM     22  O   UNL     1       2.680   3.638  21.135  0.00  0.00    +0.000 OA
ATOM     23  C   UNL     1       1.409   3.017  21.228  0.00  0.00    +0.000 C 
ENDBRANCH   5  22
BRANCH   6  24
ATOM     24  O   UNL     1       3.999   2.629  18.865  0.00  0.00    +0.000 OA
ATOM     25  C   UNL     1       3.123   1.817  18.083  0.00  0.00    +0.000 C 
ENDBRANCH   6  24
BRANCH   7  26
ATOM     26  O   UNL     1       4.858   4.553  16.821  0.00  0.00    +0.000 OA
ATOM     27  C   UNL     1       5.238   5.575  15.922  0.00  0.00    +0.000 C 
ENDBRANCH   7  26
TORSDOF 6
ENDMDL
MODEL 4
REMARK VINA RESULT:      -7.1      1.576      2.018
REMARK  Name = 
REMARK  10 active torsions:
REMARK  status: ('A' for Active; 'I' for Inactive)
REMARK    1  A    between atoms: C_1  and  O_2
REMARK    2  A    between atoms: O_2  and  C_3
REMARK    3  A    between atoms: C_6  and  C_7
REMARK    4  A    between atoms: C_7  and  C_9
REMARK    5  A    between atoms: C_13  and  O_14
REMARK    6  A    between atoms: O_14  and  C_15
REMARK    7  A    between atoms: C_16  and  O_17
REMARK    8  A    between atoms: O_17  and  C_18
REMARK    9  A    between atoms: C_19  and  O_20
REMARK   10  A    between atoms: O_20  and  C_21
REMARK                            x       y       z     vdW  Elec       q    Type
REMARK                         _______ _______ _______ _____ _____    ______ ____
ROOT
ATOM      1  C   UNL     1       2.249   7.536  19.114  0.00  0.00    +0.000 A 
ATOM      2  C   UNL     1       1.541   7.538  20.298  0.00  0.00    +0.000 A 
ATOM      3  N   UNL     1       1.786   6.359  20.934  0.00  0.00    +0.000 N 
ATOM      4  C   UNL     1       2.601   5.541  20.178  0.00  0.00    +0.000 A 
ATOM      5  C   UNL     1       3.027   4.197  20.325  0.00  0.00    +0.000 A 
ATOM      6  C   UNL     1       3.891   3.653  19.314  0.00  0.00    +0.000 A 
ATOM      7  C   UNL     1       4.414   4.481  18.311  0.00  0.00    +0.000 A 
ATOM      8  C   UNL     1       3.996   5.814  18.238  0.00  0.00    +0.000 A 
ATOM      9  C   UNL     1       3.017   6.333  19.104  0.00  0.00    +0.000 A 
ATOM     10  H   UNL     1       1.360   6.121  21.814  0.00  0.00    +0.000 HD
ENDROOT
BRANCH   1  11
ATOM     11  C   UNL     1       2.127   8.608  18.130  0.00  0.00    +0.000 C 
ATOM     12  O   UNL     1       2.804   8.622  17.106  0.00  0.00    +0.000 OA
BRANCH  11  16
ATOM     13  C   UNL     1      -0.473  11.968  18.693  0.00  0.00    +0.000 A 
ATOM     14  C   UNL     1       0.847  11.981  19.159  0.00  0.00    +0.000 A 
ATOM     15  C   UNL     1       1.674  10.871  18.987  0.00  0.00    +0.000 A 
ATOM     16  C   UNL     1       1.177   9.724  18.370  0.00  0.00    +0.000 A 
ATOM     17  C   UNL     1      -0.172   9.657  18.008  0.00  0.00    +0.000 A 
ATOM     18  C   UNL     1      -0.985  10.787  18.137  0.00  0.00    +0.000 A 
ATOM     19  I   UNL     1      -2.936  10.662  17.377  0.00  0.00    +0.000 I 
BRANCH  13  21
ATOM     20  C   UNL     1      -1.020  13.946  19.854  0.00  0.00    +0.000 C 
ATOM     21  O   UNL     1      -1.299  13.057  18.778  0.00  0.00    +0.000 OA
ENDBRANCH  13  21
ENDBRANCH  11  16
ENDBRANCH   1  11
BRANCH   5  22
ATOM     22  O   UNL     1       2.700   3.362  21.385  0.00  0.00    +0.000 OA
ATOM     23  C   UNL     1       1.422   2.747  21.396  0.00  0.00    +0.000 C 
ENDBRANCH   5  22
BRANCH   6  24
ATOM     24  O   UNL     1       4.265   2.327  19.290  0.00  0.00    +0.000 OA
ATOM     25  C   UNL     1       3.487   1.466  18.457  0.00  0.00    +0.000 C 
ENDBRANCH   6  24
BRANCH   7  26
ATOM     26  O   UNL     1       5.276   4.215  17.283  0.00  0.00    +0.000 OA
ATOM     27  C   UNL     1       4.954   4.508  15.939  0.00  0.00    +0.000 C 
ENDBRANCH   7  26
TORSDOF 6
ENDMDL
MODEL 5
REMARK VINA RESULT:      -7.1      1.611      1.882
REMARK  Name = 
REMARK  10 active torsions:
REMARK  status: ('A' for Active; 'I' for Inactive)
REMARK    1  A    between atoms: C_1  and  O_2
REMARK    2  A    between atoms: O_2  and  C_3
REMARK    3  A    between atoms: C_6  and  C_7
REMARK    4  A    between atoms: C_7  and  C_9
REMARK    5  A    between atoms: C_13  and  O_14
REMARK    6  A    between atoms: O_14  and  C_15
REMARK    7  A    between atoms: C_16  and  O_17
REMARK    8  A    between atoms: O_17  and  C_18
REMARK    9  A    between atoms: C_19  and  O_20
REMARK   10  A    between atoms: O_20  and  C_21
REMARK                            x       y       z     vdW  Elec       q    Type
REMARK                         _______ _______ _______ _____ _____    ______ ____
ROOT
ATOM      1  C   UNL     1       1.348   9.025  19.602  0.00  0.00    +0.000 A 
ATOM      2  C   UNL     1       0.864   8.835  20.880  0.00  0.00    +0.000 A 
ATOM      3  N   UNL     1       1.243   7.594  21.291  0.00  0.00    +0.000 N 
ATOM      4  C   UNL     1       1.926   6.923  20.297  0.00  0.00    +0.000 A 
ATOM      5  C   UNL     1       2.399   5.592  20.177  0.00  0.00    +0.000 A 
ATOM      6  C   UNL     1       3.078   5.228  18.964  0.00  0.00    +0.000 A 
ATOM      7  C   UNL     1       3.396   6.207  18.012  0.00  0.00    +0.000 A 
ATOM      8  C   UNL     1       2.946   7.518  18.201  0.00  0.00    +0.000 A 
ATOM      9  C   UNL     1       2.127   7.870  19.289  0.00  0.00    +0.000 A 
ATOM     10  H   UNL     1       0.986   7.221  22.190  0.00  0.00    +0.000 HD
ENDROOT
BRANCH   1  11
ATOM     11  C   UNL     1       1.031  10.214  18.816  0.00  0.00    +0.000 C 
ATOM     12  O   UNL     1       1.909  10.962  18.396  0.00  0.00    +0.000 OA
BRANCH  11  16
ATOM     13  C   UNL     1      -3.002  11.402  17.986  0.00  0.00    +0.000 A 
ATOM     14  C   UNL     1      -2.387  11.712  19.204  0.00  0.00    +0.000 A 
ATOM     15  C   UNL     1      -1.081  11.299  19.468  0.00  0.00    +0.000 A 
ATOM     16  C   UNL     1      -0.386  10.546  18.522  0.00  0.00    +0.000 A 
ATOM     17  C   UNL     1      -1.032  10.130  17.353  0.00  0.00    +0.000 A 
ATOM     18  C   UNL     1      -2.324  10.585  17.070  0.00  0.00    +0.000 A 
ATOM     19  I   UNL     1      -3.134  10.084  15.201  0.00  0.00    +0.000 I 
BRANCH  13  21
ATOM     20  C   UNL     1      -5.322  11.226  18.370  0.00  0.00    +0.000 C 
ATOM     21  O   UNL     1      -4.256  11.844  17.655  0.00  0.00    +0.000 OA
ENDBRANCH  13  21
ENDBRANCH  11  16
ENDBRANCH   1  11
BRANCH   5  22
ATOM     22  O   UNL     1       2.284   4.607  21.149  0.00  0.00    +0.000 OA
ATOM     23  C   UNL     1       1.296   3.602  20.984  0.00  0.00    +0.000 C 
ENDBRANCH   5  22
BRANCH   6  24
ATOM     24  O   UNL     1       3.469   3.936  18.689  0.00  0.00    +0.000 OA
ATOM     25  C   UNL     1       4.803   3.588  19.062  0.00  0.00    +0.000 C 
ENDBRANCH   6  24
BRANCH   7  26
ATOM     26  O   UNL     1       4.066   6.122  16.823  0.00  0.00    +0.000 OA
ATOM     27  C   UNL     1       5.342   6.699  16.637  0.00  0.00    +0.000 C 
ENDBRANCH   7  26
TORSDOF 6
ENDMDL
MODEL 6
REMARK VINA RESULT:      -7.1      2.833      7.831
REMARK  Name = 
REMARK  10 active torsions:
REMARK  status: ('A' for Active; 'I' for Inactive)
REMARK    1  A    between atoms: C_1  and  O_2
REMARK    2  A    between atoms: O_2  and  C_3
REMARK    3  A    between atoms: C_6  and  C_7
REMARK    4  A    between atoms: C_7  and  C_9
REMARK    5  A    between atoms: C_13  and  O_14
REMARK    6  A    between atoms: O_14  and  C_15
REMARK    7  A    between atoms: C_16  and  O_17
REMARK    8  A    between atoms: O_17  and  C_18
REMARK    9  A    between atoms: C_19  and  O_20
REMARK   10  A    between atoms: O_20  and  C_21
REMARK                            x       y       z     vdW  Elec       q    Type
REMARK                         _______ _______ _______ _____ _____    ______ ____
ROOT
ATOM      1  C   UNL     1       0.688  10.105  18.940  0.00  0.00    +0.000 A 
ATOM      2  C   UNL     1       0.861  10.854  20.085  0.00  0.00    +0.000 A 
ATOM      3  N   UNL     1      -0.287  11.551  20.307  0.00  0.00    +0.000 N 
ATOM      4  C   UNL     1      -1.211  11.328  19.306  0.00  0.00    +0.000 A 
ATOM      5  C   UNL     1      -2.471  11.904  19.008  0.00  0.00    +0.000 A 
ATOM      6  C   UNL     1      -3.171  11.421  17.849  0.00  0.00    +0.000 A 
ATOM      7  C   UNL     1      -2.688  10.310  17.144  0.00  0.00    +0.000 A 
ATOM      8  C   UNL     1      -1.460   9.749  17.510  0.00  0.00    +0.000 A 
ATOM      9  C   UNL     1      -0.663  10.306  18.526  0.00  0.00    +0.000 A 
ATOM     10  H   UNL     1      -0.392  12.187  21.080  0.00  0.00    +0.000 HD
ENDROOT
BRANCH   1  11
ATOM     11  C   UNL     1       1.768   9.319  18.350  0.00  0.00    +0.000 C 
ATOM     12  O   UNL     1       2.411   9.728  17.388  0.00  0.00    +0.000 OA
BRANCH  11  16
ATOM     13  C   UNL     1       2.484   5.425  19.992  0.00  0.00    +0.000 A 
ATOM     14  C   UNL     1       1.869   6.432  20.745  0.00  0.00    +0.000 A 
ATOM     15  C   UNL     1       1.662   7.701  20.203  0.00  0.00    +0.000 A 
ATOM     16  C   UNL     1       2.096   7.983  18.909  0.00  0.00    +0.000 A 
ATOM     17  C   UNL     1       2.817   7.022  18.192  0.00  0.00    +0.000 A 
ATOM     18  C   UNL     1       2.981   5.737  18.718  0.00  0.00    +0.000 A 
ATOM     19  I   UNL     1       3.890   4.301  17.490  0.00  0.00    +0.000 I 
BRANCH  13  21
ATOM     20  C   UNL     1       1.442   3.482  20.827  0.00  0.00    +0.000 C 
ATOM     21  O   UNL     1       2.646   4.147  20.456  0.00  0.00    +0.000 OA
ENDBRANCH  13  21
ENDBRANCH  11  16
ENDBRANCH   1  11
BRANCH   5  22
ATOM     22  O   UNL     1      -3.105  12.885  19.758  0.00  0.00    +0.000 OA
ATOM     23  C   UNL     1      -3.734  12.511  20.972  0.00  0.00    +0.000 C 
ENDBRANCH   5  22
BRANCH   6  24
ATOM     24  O   UNL     1      -4.341  11.991  17.396  0.00  0.00    +0.000 OA
ATOM     25  C   UNL     1      -5.553  11.369  17.824  0.00  0.00    +0.000 C 
ENDBRANCH   6  24
BRANCH   7  26
ATOM     26  O   UNL     1      -3.189   9.646  16.059  0.00  0.00    +0.000 OA
ATOM     27  C   UNL     1      -3.083  10.163  14.748  0.00  0.00    +0.000 C 
ENDBRANCH   7  26
TORSDOF 6
ENDMDL
MODEL 7
REMARK VINA RESULT:      -6.9      2.056      3.535
REMARK  Name = 
REMARK  10 active torsions:
REMARK  status: ('A' for Active; 'I' for Inactive)
REMARK    1  A    between atoms: C_1  and  O_2
REMARK    2  A    between atoms: O_2  and  C_3
REMARK    3  A    between atoms: C_6  and  C_7
REMARK    4  A    between atoms: C_7  and  C_9
REMARK    5  A    between atoms: C_13  and  O_14
REMARK    6  A    between atoms: O_14  and  C_15
REMARK    7  A    between atoms: C_16  and  O_17
REMARK    8  A    between atoms: O_17  and  C_18
REMARK    9  A    between atoms: C_19  and  O_20
REMARK   10  A    between atoms: O_20  and  C_21
REMARK                            x       y       z     vdW  Elec       q    Type
REMARK                         _______ _______ _______ _____ _____    ______ ____
ROOT
ATOM      1  C   UNL     1       2.007   7.845  19.483  0.00  0.00    +0.000 A 
ATOM      2  C   UNL     1       2.553   8.323  18.311  0.00  0.00    +0.000 A 
ATOM      3  N   UNL     1       3.339   7.344  17.785  0.00  0.00    +0.000 N 
ATOM      4  C   UNL     1       3.377   6.236  18.606  0.00  0.00    +0.000 A 
ATOM      5  C   UNL     1       4.135   5.039  18.580  0.00  0.00    +0.000 A 
ATOM      6  C   UNL     1       3.914   4.083  19.630  0.00  0.00    +0.000 A 
ATOM      7  C   UNL     1       2.870   4.269  20.548  0.00  0.00    +0.000 A 
ATOM      8  C   UNL     1       2.121   5.449  20.500  0.00  0.00    +0.000 A 
ATOM      9  C   UNL     1       2.424   6.485  19.598  0.00  0.00    +0.000 A 
ATOM     10  H   UNL     1       3.862   7.470  16.934  0.00  0.00    +0.000 HD
ENDROOT
BRANCH   1  11
ATOM     11  C   UNL     1       1.195   8.680  20.365  0.00  0.00    +0.000 C 
ATOM     12  O   UNL     1       0.960   8.353  21.524  0.00  0.00    +0.000 OA
BRANCH  11  16
ATOM     13  C   UNL     1      -0.260  12.385  18.777  0.00  0.00    +0.000 A 
ATOM     14  C   UNL     1       0.837  12.345  19.646  0.00  0.00    +0.000 A 
ATOM     15  C   UNL     1       1.285  11.133  20.171  0.00  0.00    +0.000 A 
ATOM     16  C   UNL     1       0.620   9.950  19.853  0.00  0.00    +0.000 A 
ATOM     17  C   UNL     1      -0.546   9.992  19.082  0.00  0.00    +0.000 A 
ATOM     18  C   UNL     1      -0.965  11.202  18.518  0.00  0.00    +0.000 A 
ATOM     19  I   UNL     1      -2.602  11.138  17.208  0.00  0.00    +0.000 I 
BRANCH  13  21
ATOM     20  C   UNL     1      -0.276  14.743  18.824  0.00  0.00    +0.000 C 
ATOM     21  O   UNL     1      -0.692  13.541  18.183  0.00  0.00    +0.000 OA
ENDBRANCH  13  21
ENDBRANCH  11  16
ENDBRANCH   1  11
BRANCH   5  22
ATOM     22  O   UNL     1       5.062   4.695  17.606  0.00  0.00    +0.000 OA
ATOM     23  C   UNL     1       4.593   4.139  16.388  0.00  0.00    +0.000 C 
ENDBRANCH   5  22
BRANCH   6  24
ATOM     24  O   UNL     1       4.679   2.945  19.774  0.00  0.00    +0.000 OA
ATOM     25  C   UNL     1       4.146   1.751  19.200  0.00  0.00    +0.000 C 
ENDBRANCH   6  24
BRANCH   7  26
ATOM     26  O   UNL     1       2.437   3.495  21.588  0.00  0.00    +0.000 OA
ATOM     27  C   UNL     1       1.324   2.632  21.469  0.00  0.00    +0.000 C 
ENDBRANCH   7  26
TORSDOF 6
ENDMDL
MODEL 8
REMARK VINA RESULT:      -6.7      1.401      2.918
REMARK  Name = 
REMARK  10 active torsions:
REMARK  status: ('A' for Active; 'I' for Inactive)
REMARK    1  A    between atoms: C_1  and  O_2
REMARK    2  A    between atoms: O_2  and  C_3
REMARK    3  A    between atoms: C_6  and  C_7
REMARK    4  A    between atoms: C_7  and  C_9
REMARK    5  A    between atoms: C_13  and  O_14
REMARK    6  A    between atoms: O_14  and  C_15
REMARK    7  A    between atoms: C_16  and  O_17
REMARK    8  A    between atoms: O_17  and  C_18
REMARK    9  A    between atoms: C_19  and  O_20
REMARK   10  A    between atoms: O_20  and  C_21
REMARK                            x       y       z     vdW  Elec       q    Type
REMARK                         _______ _______ _______ _____ _____    ______ ____
ROOT
ATOM      1  C   UNL     1       1.859   8.347  19.230  0.00  0.00    +0.000 A 
ATOM      2  C   UNL     1       2.423   8.768  18.043  0.00  0.00    +0.000 A 
ATOM      3  N   UNL     1       3.187   7.751  17.558  0.00  0.00    +0.000 N 
ATOM      4  C   UNL     1       3.193   6.673  18.420  0.00  0.00    +0.000 A 
ATOM      5  C   UNL     1       3.920   5.457  18.442  0.00  0.00    +0.000 A 
ATOM      6  C   UNL     1       3.670   4.545  19.524  0.00  0.00    +0.000 A 
ATOM      7  C   UNL     1       2.626   4.791  20.428  0.00  0.00    +0.000 A 
ATOM      8  C   UNL     1       1.907   5.987  20.333  0.00  0.00    +0.000 A 
ATOM      9  C   UNL     1       2.241   6.981  19.396  0.00  0.00    +0.000 A 
ATOM     10  H   UNL     1       3.717   7.833  16.707  0.00  0.00    +0.000 HD
ENDROOT
BRANCH   1  11
ATOM     11  C   UNL     1       1.064   9.233  20.075  0.00  0.00    +0.000 C 
ATOM     12  O   UNL     1       1.289   9.350  21.276  0.00  0.00    +0.000 OA
BRANCH  11  16
ATOM     13  C   UNL     1      -2.291  11.260  18.342  0.00  0.00    +0.000 A 
ATOM     14  C   UNL     1      -1.574  10.295  17.627  0.00  0.00    +0.000 A 
ATOM     15  C   UNL     1      -0.470   9.659  18.197  0.00  0.00    +0.000 A 
ATOM     16  C   UNL     1      -0.057  10.006  19.483  0.00  0.00    +0.000 A 
ATOM     17  C   UNL     1      -0.693  11.052  20.160  0.00  0.00    +0.000 A 
ATOM     18  C   UNL     1      -1.827  11.653  19.606  0.00  0.00    +0.000 A 
ATOM     19  I   UNL     1      -2.839  13.066  20.780  0.00  0.00    +0.000 I 
BRANCH  13  21
ATOM     20  C   UNL     1      -4.411  10.967  17.353  0.00  0.00    +0.000 C 
ATOM     21  O   UNL     1      -3.420  11.860  17.851  0.00  0.00    +0.000 OA
ENDBRANCH  13  21
ENDBRANCH  11  16
ENDBRANCH   1  11
BRANCH   5  22
ATOM     22  O   UNL     1       4.843   5.054  17.486  0.00  0.00    +0.000 OA
ATOM     23  C   UNL     1       6.145   5.615  17.521  0.00  0.00    +0.000 C 
ENDBRANCH   5  22
BRANCH   6  24
ATOM     24  O   UNL     1       4.404   3.395  19.714  0.00  0.00    +0.000 OA
ATOM     25  C   UNL     1       3.938   2.229  19.032  0.00  0.00    +0.000 C 
ENDBRANCH   6  24
BRANCH   7  26
ATOM     26  O   UNL     1       2.169   4.066  21.493  0.00  0.00    +0.000 OA
ATOM     27  C   UNL     1       1.322   2.946  21.330  0.00  0.00    +0.000 C 
ENDBRANCH   7  26
TORSDOF 6
ENDMDL
MODEL 9
REMARK VINA RESULT:      -6.7      2.813      4.694
REMARK  Name = 
REMARK  10 active torsions:
REMARK  status: ('A' for Active; 'I' for Inactive)
REMARK    1  A    between atoms: C_1  and  O_2
REMARK    2  A    between atoms: O_2  and  C_3
REMARK    3  A    between atoms: C_6  and  C_7
REMARK    4  A    between atoms: C_7  and  C_9
REMARK    5  A    between atoms: C_13  and  O_14
REMARK    6  A    between atoms: O_14  and  C_15
REMARK    7  A    between atoms: C_16  and  O_17
REMARK    8  A    between atoms: O_17  and  C_18
REMARK    9  A    between atoms: C_19  and  O_20
REMARK   10  A    between atoms: O_20  and  C_21
REMARK                            x       y       z     vdW  Elec       q    Type
REMARK                         _______ _______ _______ _____ _____    ______ ____
ROOT
ATOM      1  C   UNL     1       2.983   4.800  18.886  0.00  0.00    +0.000 A 
ATOM      2  C   UNL     1       2.228   4.012  18.042  0.00  0.00    +0.000 A 
ATOM      3  N   UNL     1       3.053   3.528  17.072  0.00  0.00    +0.000 N 
ATOM      4  C   UNL     1       4.335   4.017  17.215  0.00  0.00    +0.000 A 
ATOM      5  C   UNL     1       5.499   3.928  16.410  0.00  0.00    +0.000 A 
ATOM      6  C   UNL     1       6.689   4.584  16.878  0.00  0.00    +0.000 A 
ATOM      7  C   UNL     1       6.727   5.149  18.160  0.00  0.00    +0.000 A 
ATOM      8  C   UNL     1       5.561   5.169  18.934  0.00  0.00    +0.000 A 
ATOM      9  C   UNL     1       4.334   4.694  18.437  0.00  0.00    +0.000 A 
ATOM     10  H   UNL     1       2.721   2.941  16.325  0.00  0.00    +0.000 HD
ENDROOT
BRANCH   1  11
ATOM     11  C   UNL     1       2.389   5.566  19.978  0.00  0.00    +0.000 C 
ATOM     12  O   UNL     1       2.157   5.056  21.071  0.00  0.00    +0.000 OA
BRANCH  11  16
ATOM     13  C   UNL     1       1.242   9.620  19.197  0.00  0.00    +0.000 A 
ATOM     14  C   UNL     1       1.956   8.871  18.256  0.00  0.00    +0.000 A 
ATOM     15  C   UNL     1       2.342   7.559  18.534  0.00  0.00    +0.000 A 
ATOM     16  C   UNL     1       2.038   6.994  19.771  0.00  0.00    +0.000 A 
ATOM     17  C   UNL     1       1.430   7.772  20.762  0.00  0.00    +0.000 A 
ATOM     18  C   UNL     1       1.002   9.070  20.464  0.00  0.00    +0.000 A 
ATOM     19  I   UNL     1      -0.085  10.089  21.940  0.00  0.00    +0.000 I 
BRANCH  13  21
ATOM     20  C   UNL     1       1.787  11.833  18.591  0.00  0.00    +0.000 C 
ATOM     21  O   UNL     1       0.783  10.886  18.942  0.00  0.00    +0.000 OA
ENDBRANCH  13  21
ENDBRANCH  11  16
ENDBRANCH   1  11
BRANCH   5  22
ATOM     22  O   UNL     1       5.596   3.235  15.211  0.00  0.00    +0.000 OA
ATOM     23  C   UNL     1       5.223   3.895  14.013  0.00  0.00    +0.000 C 
ENDBRANCH   5  22
BRANCH   6  24
ATOM     24  O   UNL     1       7.838   4.668  16.122  0.00  0.00    +0.000 OA
ATOM     25  C   UNL     1       7.790   5.545  14.996  0.00  0.00    +0.000 C 
ENDBRANCH   6  24
BRANCH   7  26
ATOM     26  O   UNL     1       7.735   5.776  18.838  0.00  0.00    +0.000 OA
ATOM     27  C   UNL     1       8.108   7.111  18.563  0.00  0.00    +0.000 C 
ENDBRANCH   7  26
TORSDOF 6
ENDMDL
