MODEL 1
REMARK VINA RESULT:      -7.6      0.000      0.000
REMARK  Name = 
REMARK  11 active torsions:
REMARK  status: ('A' for Active; 'I' for Inactive)
REMARK    1  A    between atoms: C_1  and  O_2
REMARK    2  A    between atoms: O_2  and  C_3
REMARK    3  A    between atoms: C_3  and  C_5
REMARK    4  A    between atoms: C_5  and  C_8
REMARK    5  A    between atoms: N_6  and  N_7
REMARK    6  A    between atoms: C_8  and  C_9
REMARK    7  A    between atoms: C_8  and  C_20
REMARK    8  A    between atoms: C_9  and  C_11
REMARK    9  A    between atoms: C_17  and  S_18
REMARK   10  A    between atoms: C_25  and  N_26
REMARK   11  A    between atoms: C_32  and  O_33
REMARK                            x       y       z     vdW  Elec       q    Type
REMARK                         _______ _______ _______ _____ _____    ______ ____
ROOT
ATOM      1  C   UNL     1       5.175   5.226  18.864  0.00  0.00    +0.000 C 
ENDROOT
BRANCH   1   2
ATOM      2  C   UNL     1       4.066   6.214  18.562  0.00  0.00    +0.000 A 
ATOM      3  N   UNL     1       3.223   6.571  19.564  0.00  0.00    +0.000 NA
ATOM      4  C   UNL     1       2.397   7.614  19.330  0.00  0.00    +0.000 A 
ATOM      5  C   UNL     1       1.581   8.070  20.351  0.00  0.00    +0.000 A 
ATOM      6  C   UNL     1       0.757   9.185  20.189  0.00  0.00    +0.000 A 
ATOM      7  C   UNL     1       0.745   9.847  18.962  0.00  0.00    +0.000 A 
ATOM      8  C   UNL     1       1.539   9.385  17.902  0.00  0.00    +0.000 A 
ATOM      9  C   UNL     1       2.369   8.279  18.071  0.00  0.00    +0.000 A 
ATOM     10  N   UNL     1       3.147   7.868  17.056  0.00  0.00    +0.000 NA
ATOM     11  C   UNL     1       3.988   6.854  17.332  0.00  0.00    +0.000 A 
BRANCH   7  12
ATOM     12  N   UNL     1      -0.087  11.044  18.789  0.00  0.00    +0.000 N 
ATOM     13  O   UNL     1       0.479  12.147  18.839  0.00  0.00    +0.000 OA
ATOM     14  O   UNL     1      -1.298  10.885  18.598  0.00  0.00    +0.000 OA
ENDBRANCH   7  12
BRANCH  11  15
ATOM     15  O   UNL     1       4.797   6.530  16.294  0.00  0.00    +0.000 OA
ATOM     16  H   UNL     1       4.456   7.135  15.608  0.00  0.00    +0.000 HD
ENDBRANCH  11  15
ENDBRANCH   1   2
BRANCH   1  17
ATOM     17  C   UNL     1       4.705   3.777  18.814  0.00  0.00    +0.000 C 
ATOM     18  N   UNL     1       5.231   2.893  19.624  0.00  0.00    +0.000 NA
BRANCH  18  19
ATOM     19  N   UNL     1       4.796   1.620  19.601  0.00  0.00    +0.000 N 
ATOM     20  H   UNL     1       4.180   1.448  18.804  0.00  0.00    +0.000 HD
ATOM     21  H   UNL     1       4.326   1.288  20.451  0.00  0.00    +0.000 HD
ENDBRANCH  18  19
BRANCH  17  22
ATOM     22  C   UNL     1       3.664   3.438  17.720  0.00  0.00    +0.000 C 
ATOM     23  O   UNL     1       3.865   3.598  16.529  0.00  0.00    +0.000 OA
BRANCH  22  25
ATOM     24  C   UNL     1       1.353   3.850  18.059  0.00  0.00    +0.000 C 
ATOM     25  O   UNL     1       2.507   3.032  18.286  0.00  0.00    +0.000 OA
ENDBRANCH  22  25
ENDBRANCH  17  22
ENDBRANCH   1  17
BRANCH   1  26
ATOM     26  C   UNL     1       6.383   5.461  17.974  0.00  0.00    +0.000 C 
ATOM     27  O   UNL     1       6.675   4.825  16.963  0.00  0.00    +0.000 OA
BRANCH  26  28
ATOM     28  C   UNL     1       7.356   6.526  18.458  0.00  0.00    +0.000 C 
ATOM     29  O   UNL     1       8.098   6.236  19.385  0.00  0.00    +0.000 OA
ATOM     30  N   UNL     1       7.290   7.707  17.743  0.00  0.00    +0.000 N 
ATOM     31  C   UNL     1       8.089   8.765  18.098  0.00  0.00    +0.000 A 
ATOM     32  N   UNL     1       8.999   8.818  19.048  0.00  0.00    +0.000 NA
ATOM     33  N   UNL     1       9.514  10.091  19.097  0.00  0.00    +0.000 NA
ATOM     34  C   UNL     1       8.906  10.781  18.169  0.00  0.00    +0.000 A 
ATOM     35  N   UNL     1       8.027   9.994  17.492  0.00  0.00    +0.000 N 
ATOM     36  H   UNL     1       6.617   7.768  16.985  0.00  0.00    +0.000 HD
ATOM     37  H   UNL     1       7.430  10.287  16.735  0.00  0.00    +0.000 HD
BRANCH  34  38
ATOM     38  S   UNL     1       9.110  12.447  17.820  0.00  0.00    +0.000 S 
ATOM     39  H   UNL     1       7.896  12.631  17.275  0.00  0.00    +0.000 HD
ENDBRANCH  34  38
ENDBRANCH  26  28
ENDBRANCH   1  26
TORSDOF 10
ENDMDL
MODEL 2
REMARK VINA RESULT:      -7.6      1.413      1.555
REMARK  Name = 
REMARK  11 active torsions:
REMARK  status: ('A' for Active; 'I' for Inactive)
REMARK    1  A    between atoms: C_1  and  O_2
REMARK    2  A    between atoms: O_2  and  C_3
REMARK    3  A    between atoms: C_3  and  C_5
REMARK    4  A    between atoms: C_5  and  C_8
REMARK    5  A    between atoms: N_6  and  N_7
REMARK    6  A    between atoms: C_8  and  C_9
REMARK    7  A    between atoms: C_8  and  C_20
REMARK    8  A    between atoms: C_9  and  C_11
REMARK    9  A    between atoms: C_17  and  S_18
REMARK   10  A    between atoms: C_25  and  N_26
REMARK   11  A    between atoms: C_32  and  O_33
REMARK                            x       y       z     vdW  Elec       q    Type
REMARK                         _______ _______ _______ _____ _____    ______ ____
ROOT
ATOM      1  C   UNL     1       4.669   4.745  18.983  0.00  0.00    +0.000 C 
ENDROOT
BRANCH   1   2
ATOM      2  C   UNL     1       3.684   5.881  18.788  0.00  0.00    +0.000 A 
ATOM      3  N   UNL     1       2.918   6.266  19.840  0.00  0.00    +0.000 NA
ATOM      4  C   UNL     1       2.224   7.417  19.706  0.00  0.00    +0.000 A 
ATOM      5  C   UNL     1       1.499   7.896  20.784  0.00  0.00    +0.000 A 
ATOM      6  C   UNL     1       0.817   9.112  20.726  0.00  0.00    +0.000 A 
ATOM      7  C   UNL     1       0.855   9.857  19.549  0.00  0.00    +0.000 A 
ATOM      8  C   UNL     1       1.558   9.377  18.433  0.00  0.00    +0.000 A 
ATOM      9  C   UNL     1       2.246   8.169  18.497  0.00  0.00    +0.000 A 
ATOM     10  N   UNL     1       2.940   7.740  17.430  0.00  0.00    +0.000 NA
ATOM     11  C   UNL     1       3.655   6.612  17.607  0.00  0.00    +0.000 A 
BRANCH   7  12
ATOM     12  N   UNL     1       0.176  11.157  19.486  0.00  0.00    +0.000 N 
ATOM     13  O   UNL     1      -0.318  11.493  18.399  0.00  0.00    +0.000 OA
ATOM     14  O   UNL     1       0.129  11.836  20.519  0.00  0.00    +0.000 OA
ENDBRANCH   7  12
BRANCH  11  15
ATOM     15  O   UNL     1       4.390   6.267  16.522  0.00  0.00    +0.000 OA
ATOM     16  H   UNL     1       5.146   5.826  16.954  0.00  0.00    +0.000 HD
ENDBRANCH  11  15
ENDBRANCH   1   2
BRANCH   1  17
ATOM     17  C   UNL     1       4.021   3.372  18.845  0.00  0.00    +0.000 C 
ATOM     18  N   UNL     1       3.354   3.073  17.759  0.00  0.00    +0.000 NA
BRANCH  18  19
ATOM     19  N   UNL     1       2.807   1.851  17.623  0.00  0.00    +0.000 N 
ATOM     20  H   UNL     1       2.056   1.699  18.299  0.00  0.00    +0.000 HD
ATOM     21  H   UNL     1       3.456   1.057  17.677  0.00  0.00    +0.000 HD
ENDBRANCH  18  19
BRANCH  17  22
ATOM     22  C   UNL     1       4.143   2.436  20.072  0.00  0.00    +0.000 C 
ATOM     23  O   UNL     1       5.198   1.959  20.450  0.00  0.00    +0.000 OA
BRANCH  22  25
ATOM     24  C   UNL     1       2.365   3.159  21.466  0.00  0.00    +0.000 C 
ATOM     25  O   UNL     1       2.921   2.176  20.585  0.00  0.00    +0.000 OA
ENDBRANCH  22  25
ENDBRANCH  17  22
ENDBRANCH   1  17
BRANCH   1  26
ATOM     26  C   UNL     1       5.875   4.896  18.074  0.00  0.00    +0.000 C 
ATOM     27  O   UNL     1       6.112   4.236  17.065  0.00  0.00    +0.000 OA
BRANCH  26  28
ATOM     28  C   UNL     1       6.921   5.902  18.535  0.00  0.00    +0.000 C 
ATOM     29  O   UNL     1       7.666   5.567  19.444  0.00  0.00    +0.000 OA
ATOM     30  N   UNL     1       6.908   7.085  17.822  0.00  0.00    +0.000 N 
ATOM     31  C   UNL     1       7.776   8.094  18.158  0.00  0.00    +0.000 A 
ATOM     32  N   UNL     1       8.709   8.091  19.086  0.00  0.00    +0.000 NA
ATOM     33  N   UNL     1       9.300   9.332  19.123  0.00  0.00    +0.000 NA
ATOM     34  C   UNL     1       8.712  10.058  18.210  0.00  0.00    +0.000 A 
ATOM     35  N   UNL     1       7.773   9.325  17.553  0.00  0.00    +0.000 N 
ATOM     36  H   UNL     1       6.222   7.187  17.080  0.00  0.00    +0.000 HD
ATOM     37  H   UNL     1       7.177   9.654  16.811  0.00  0.00    +0.000 HD
BRANCH  34  38
ATOM     38  S   UNL     1       9.006  11.709  17.856  0.00  0.00    +0.000 S 
ATOM     39  H   UNL     1       8.023  12.201  18.629  0.00  0.00    +0.000 HD
ENDBRANCH  34  38
ENDBRANCH  26  28
ENDBRANCH   1  26
TORSDOF 10
ENDMDL
MODEL 3
REMARK VINA RESULT:      -7.4      4.598      9.832
REMARK  Name = 
REMARK  11 active torsions:
REMARK  status: ('A' for Active; 'I' for Inactive)
REMARK    1  A    between atoms: C_1  and  O_2
REMARK    2  A    between atoms: O_2  and  C_3
REMARK    3  A    between atoms: C_3  and  C_5
REMARK    4  A    between atoms: C_5  and  C_8
REMARK    5  A    between atoms: N_6  and  N_7
REMARK    6  A    between atoms: C_8  and  C_9
REMARK    7  A    between atoms: C_8  and  C_20
REMARK    8  A    between atoms: C_9  and  C_11
REMARK    9  A    between atoms: C_17  and  S_18
REMARK   10  A    between atoms: C_25  and  N_26
REMARK   11  A    between atoms: C_32  and  O_33
REMARK                            x       y       z     vdW  Elec       q    Type
REMARK                         _______ _______ _______ _____ _____    ______ ____
ROOT
ATOM      1  C   UNL     1       0.132  13.297  21.059  0.00  0.00    +0.000 C 
ENDROOT
BRANCH   1   2
ATOM      2  C   UNL     1       0.343  11.826  20.762  0.00  0.00    +0.000 A 
ATOM      3  N   UNL     1       0.810  11.469  19.539  0.00  0.00    +0.000 NA
ATOM      4  C   UNL     1       1.204  10.187  19.381  0.00  0.00    +0.000 A 
ATOM      5  C   UNL     1       1.769   9.799  18.178  0.00  0.00    +0.000 A 
ATOM      6  C   UNL     1       2.256   8.506  17.980  0.00  0.00    +0.000 A 
ATOM      7  C   UNL     1       2.158   7.577  19.015  0.00  0.00    +0.000 A 
ATOM      8  C   UNL     1       1.561   7.939  20.232  0.00  0.00    +0.000 A 
ATOM      9  C   UNL     1       1.086   9.232  20.431  0.00  0.00    +0.000 A 
ATOM     10  N   UNL     1       0.547   9.570  21.614  0.00  0.00    +0.000 NA
ATOM     11  C   UNL     1       0.202  10.864  21.755  0.00  0.00    +0.000 A 
BRANCH   7  12
ATOM     12  N   UNL     1       2.701   6.226  18.835  0.00  0.00    +0.000 N 
ATOM     13  O   UNL     1       3.208   5.953  17.736  0.00  0.00    +0.000 OA
ATOM     14  O   UNL     1       2.628   5.440  19.788  0.00  0.00    +0.000 OA
ENDBRANCH   7  12
BRANCH  11  15
ATOM     15  O   UNL     1      -0.270  11.162  22.990  0.00  0.00    +0.000 OA
ATOM     16  H   UNL     1       0.561  11.396  23.445  0.00  0.00    +0.000 HD
ENDBRANCH  11  15
ENDBRANCH   1   2
BRANCH   1  17
ATOM     17  C   UNL     1       1.118  14.195  20.321  0.00  0.00    +0.000 C 
ATOM     18  N   UNL     1       0.759  14.778  19.205  0.00  0.00    +0.000 NA
BRANCH  18  19
ATOM     19  N   UNL     1       1.618  15.595  18.568  0.00  0.00    +0.000 N 
ATOM     20  H   UNL     1       2.534  15.603  19.022  0.00  0.00    +0.000 HD
ATOM     21  H   UNL     1       1.310  16.566  18.444  0.00  0.00    +0.000 HD
ENDBRANCH  18  19
BRANCH  17  22
ATOM     22  C   UNL     1       2.538  14.291  20.930  0.00  0.00    +0.000 C 
ATOM     23  O   UNL     1       3.548  13.973  20.328  0.00  0.00    +0.000 OA
BRANCH  22  25
ATOM     24  C   UNL     1       2.832  16.043  22.502  0.00  0.00    +0.000 C 
ATOM     25  O   UNL     1       2.468  14.686  22.219  0.00  0.00    +0.000 OA
ENDBRANCH  22  25
ENDBRANCH  17  22
ENDBRANCH   1  17
BRANCH   1  26
ATOM     26  C   UNL     1      -1.308  13.710  20.809  0.00  0.00    +0.000 C 
ATOM     27  O   UNL     1      -1.861  14.718  21.244  0.00  0.00    +0.000 OA
BRANCH  26  28
ATOM     28  C   UNL     1      -2.148  12.714  20.023  0.00  0.00    +0.000 C 
ATOM     29  O   UNL     1      -2.990  12.075  20.636  0.00  0.00    +0.000 OA
ATOM     30  N   UNL     1      -1.859  12.685  18.672  0.00  0.00    +0.000 N 
ATOM     31  C   UNL     1      -2.519  11.805  17.851  0.00  0.00    +0.000 A 
ATOM     32  N   UNL     1      -3.478  10.960  18.165  0.00  0.00    +0.000 NA
ATOM     33  N   UNL     1      -3.804  10.226  17.049  0.00  0.00    +0.000 NA
ATOM     34  C   UNL     1      -3.037  10.650  16.081  0.00  0.00    +0.000 A 
ATOM     35  N   UNL     1      -2.235  11.659  16.517  0.00  0.00    +0.000 N 
ATOM     36  H   UNL     1      -1.131  13.304  18.327  0.00  0.00    +0.000 HD
ATOM     37  H   UNL     1      -1.549  12.150  15.968  0.00  0.00    +0.000 HD
BRANCH  34  38
ATOM     38  S   UNL     1      -2.970  10.048  14.477  0.00  0.00    +0.000 S 
ATOM     39  H   UNL     1      -1.757   9.480  14.585  0.00  0.00    +0.000 HD
ENDBRANCH  34  38
ENDBRANCH  26  28
ENDBRANCH   1  26
TORSDOF 10
ENDMDL
MODEL 4
REMARK VINA RESULT:      -7.4      5.208     10.667
REMARK  Name = 
REMARK  11 active torsions:
REMARK  status: ('A' for Active; 'I' for Inactive)
REMARK    1  A    between atoms: C_1  and  O_2
REMARK    2  A    between atoms: O_2  and  C_3
REMARK    3  A    between atoms: C_3  and  C_5
REMARK    4  A    between atoms: C_5  and  C_8
REMARK    5  A    between atoms: N_6  and  N_7
REMARK    6  A    between atoms: C_8  and  C_9
REMARK    7  A    between atoms: C_8  and  C_20
REMARK    8  A    between atoms: C_9  and  C_11
REMARK    9  A    between atoms: C_17  and  S_18
REMARK   10  A    between atoms: C_25  and  N_26
REMARK   11  A    between atoms: C_32  and  O_33
REMARK                            x       y       z     vdW  Elec       q    Type
REMARK                         _______ _______ _______ _____ _____    ______ ____
ROOT
ATOM      1  C   UNL     1      -0.315  12.381  21.110  0.00  0.00    +0.000 C 
ENDROOT
BRANCH   1   2
ATOM      2  C   UNL     1       0.147  10.963  20.842  0.00  0.00    +0.000 A 
ATOM      3  N   UNL     1       0.487  10.618  19.574  0.00  0.00    +0.000 NA
ATOM      4  C   UNL     1       1.108   9.430  19.406  0.00  0.00    +0.000 A 
ATOM      5  C   UNL     1       1.552   9.075  18.144  0.00  0.00    +0.000 A 
ATOM      6  C   UNL     1       2.258   7.892  17.922  0.00  0.00    +0.000 A 
ATOM      7  C   UNL     1       2.511   7.040  18.996  0.00  0.00    +0.000 A 
ATOM      8  C   UNL     1       2.044   7.364  20.278  0.00  0.00    +0.000 A 
ATOM      9  C   UNL     1       1.349   8.549  20.499  0.00  0.00    +0.000 A 
ATOM     10  N   UNL     1       0.937   8.860  21.739  0.00  0.00    +0.000 NA
ATOM     11  C   UNL     1       0.358  10.067  21.883  0.00  0.00    +0.000 A 
BRANCH   7  12
ATOM     12  N   UNL     1       3.287   5.812  18.784  0.00  0.00    +0.000 N 
ATOM     13  O   UNL     1       3.939   5.720  17.733  0.00  0.00    +0.000 OA
ATOM     14  O   UNL     1       3.252   4.945  19.666  0.00  0.00    +0.000 OA
ENDBRANCH   7  12
BRANCH  11  15
ATOM     15  O   UNL     1       0.028  10.355  23.165  0.00  0.00    +0.000 OA
ATOM     16  H   UNL     1      -0.604   9.635  23.351  0.00  0.00    +0.000 HD
ENDBRANCH  11  15
ENDBRANCH   1   2
BRANCH   1  17
ATOM     17  C   UNL     1       0.843  13.349  21.327  0.00  0.00    +0.000 C 
ATOM     18  N   UNL     1       2.054  13.009  20.962  0.00  0.00    +0.000 NA
BRANCH  18  19
ATOM     19  N   UNL     1       3.072  13.873  21.125  0.00  0.00    +0.000 N 
ATOM     20  H   UNL     1       3.814  13.473  21.703  0.00  0.00    +0.000 HD
ATOM     21  H   UNL     1       2.825  14.794  21.508  0.00  0.00    +0.000 HD
ENDBRANCH  18  19
BRANCH  17  22
ATOM     22  C   UNL     1       0.498  14.670  22.055  0.00  0.00    +0.000 C 
ATOM     23  O   UNL     1       0.921  15.758  21.707  0.00  0.00    +0.000 OA
BRANCH  22  25
ATOM     24  C   UNL     1      -0.944  15.530  23.731  0.00  0.00    +0.000 C 
ATOM     25  O   UNL     1      -0.252  14.419  23.150  0.00  0.00    +0.000 OA
ENDBRANCH  22  25
ENDBRANCH  17  22
ENDBRANCH   1  17
BRANCH   1  26
ATOM     26  C   UNL     1      -1.264  12.868  20.029  0.00  0.00    +0.000 C 
ATOM     27  O   UNL     1      -0.964  13.551  19.052  0.00  0.00    +0.000 OA
BRANCH  26  28
ATOM     28  C   UNL     1      -2.734  12.546  20.255  0.00  0.00    +0.000 C 
ATOM     29  O   UNL     1      -3.329  11.959  19.363  0.00  0.00    +0.000 OA
ATOM     30  N   UNL     1      -3.208  12.946  21.489  0.00  0.00    +0.000 N 
ATOM     31  C   UNL     1      -4.528  12.750  21.810  0.00  0.00    +0.000 A 
ATOM     32  N   UNL     1      -5.462  12.160  21.094  0.00  0.00    +0.000 NA
ATOM     33  N   UNL     1      -6.656  12.242  21.771  0.00  0.00    +0.000 NA
ATOM     34  C   UNL     1      -6.415  12.875  22.887  0.00  0.00    +0.000 A 
ATOM     35  N   UNL     1      -5.094  13.189  22.980  0.00  0.00    +0.000 N 
ATOM     36  H   UNL     1      -2.563  13.413  22.119  0.00  0.00    +0.000 HD
ATOM     37  H   UNL     1      -4.654  13.684  23.738  0.00  0.00    +0.000 HD
BRANCH  34  38
ATOM     38  S   UNL     1      -7.553  13.313  24.093  0.00  0.00    +0.000 S 
ATOM     39  H   UNL     1      -8.199  12.135  24.116  0.00  0.00    +0.000 HD
ENDBRANCH  34  38
ENDBRANCH  26  28
ENDBRANCH   1  26
TORSDOF 10
ENDMDL
MODEL 5
REMARK VINA RESULT:      -7.3      5.221      9.253
REMARK  Name = 
REMARK  11 active torsions:
REMARK  status: ('A' for Active; 'I' for Inactive)
REMARK    1  A    between atoms: C_1  and  O_2
REMARK    2  A    between atoms: O_2  and  C_3
REMARK    3  A    between atoms: C_3  and  C_5
REMARK    4  A    between atoms: C_5  and  C_8
REMARK    5  A    between atoms: N_6  and  N_7
REMARK    6  A    between atoms: C_8  and  C_9
REMARK    7  A    between atoms: C_8  and  C_20
REMARK    8  A    between atoms: C_9  and  C_11
REMARK    9  A    between atoms: C_17  and  S_18
REMARK   10  A    between atoms: C_25  and  N_26
REMARK   11  A    between atoms: C_32  and  O_33
REMARK                            x       y       z     vdW  Elec       q    Type
REMARK                         _______ _______ _______ _____ _____    ______ ____
ROOT
ATOM      1  C   UNL     1      -0.273  11.921  20.389  0.00  0.00    +0.000 C 
ENDROOT
BRANCH   1   2
ATOM      2  C   UNL     1      -1.710  12.081  20.843  0.00  0.00    +0.000 A 
ATOM      3  N   UNL     1      -1.990  11.976  22.167  0.00  0.00    +0.000 NA
ATOM      4  C   UNL     1      -3.226  12.347  22.566  0.00  0.00    +0.000 A 
ATOM      5  C   UNL     1      -3.528  12.342  23.918  0.00  0.00    +0.000 A 
ATOM      6  C   UNL     1      -4.765  12.779  24.394  0.00  0.00    +0.000 A 
ATOM      7  C   UNL     1      -5.726  13.219  23.485  0.00  0.00    +0.000 A 
ATOM      8  C   UNL     1      -5.454  13.204  22.108  0.00  0.00    +0.000 A 
ATOM      9  C   UNL     1      -4.215  12.778  21.637  0.00  0.00    +0.000 A 
ATOM     10  N   UNL     1      -3.960  12.801  20.318  0.00  0.00    +0.000 NA
ATOM     11  C   UNL     1      -2.707  12.465  19.955  0.00  0.00    +0.000 A 
BRANCH   7  12
ATOM     12  N   UNL     1      -7.016  13.718  23.974  0.00  0.00    +0.000 N 
ATOM     13  O   UNL     1      -7.887  12.879  24.252  0.00  0.00    +0.000 OA
ATOM     14  O   UNL     1      -7.160  14.941  24.085  0.00  0.00    +0.000 OA
ENDBRANCH   7  12
BRANCH  11  15
ATOM     15  O   UNL     1      -2.487  12.575  18.622  0.00  0.00    +0.000 OA
ATOM     16  H   UNL     1      -2.511  11.635  18.362  0.00  0.00    +0.000 HD
ENDBRANCH  11  15
ENDBRANCH   1   2
BRANCH   1  17
ATOM     17  C   UNL     1       0.542  13.199  20.549  0.00  0.00    +0.000 C 
ATOM     18  N   UNL     1       0.788  13.670  21.745  0.00  0.00    +0.000 NA
BRANCH  18  19
ATOM     19  N   UNL     1       1.533  14.781  21.889  0.00  0.00    +0.000 N 
ATOM     20  H   UNL     1       1.843  14.903  22.855  0.00  0.00    +0.000 HD
ATOM     21  H   UNL     1       1.100  15.658  21.574  0.00  0.00    +0.000 HD
ENDBRANCH  18  19
BRANCH  17  22
ATOM     22  C   UNL     1       0.963  13.905  19.237  0.00  0.00    +0.000 C 
ATOM     23  O   UNL     1       2.121  14.014  18.876  0.00  0.00    +0.000 OA
BRANCH  22  25
ATOM     24  C   UNL     1      -0.345  15.837  18.813  0.00  0.00    +0.000 C 
ATOM     25  O   UNL     1      -0.117  14.436  18.624  0.00  0.00    +0.000 OA
ENDBRANCH  22  25
ENDBRANCH  17  22
ENDBRANCH   1  17
BRANCH   1  26
ATOM     26  C   UNL     1       0.393  10.736  21.067  0.00  0.00    +0.000 C 
ATOM     27  O   UNL     1       0.523  10.570  22.277  0.00  0.00    +0.000 OA
BRANCH  26  28
ATOM     28  C   UNL     1       1.038   9.724  20.130  0.00  0.00    +0.000 C 
ATOM     29  O   UNL     1       1.166  10.040  18.957  0.00  0.00    +0.000 OA
ATOM     30  N   UNL     1       1.432   8.558  20.757  0.00  0.00    +0.000 N 
ATOM     31  C   UNL     1       1.996   7.545  20.023  0.00  0.00    +0.000 A 
ATOM     32  N   UNL     1       2.277   7.529  18.737  0.00  0.00    +0.000 NA
ATOM     33  N   UNL     1       2.773   6.290  18.408  0.00  0.00    +0.000 NA
ATOM     34  C   UNL     1       2.786   5.584  19.507  0.00  0.00    +0.000 A 
ATOM     35  N   UNL     1       2.341   6.329  20.555  0.00  0.00    +0.000 N 
ATOM     36  H   UNL     1       1.259   8.471  21.755  0.00  0.00    +0.000 HD
ATOM     37  H   UNL     1       2.247   6.015  21.507  0.00  0.00    +0.000 HD
BRANCH  34  38
ATOM     38  S   UNL     1       3.251   3.942  19.674  0.00  0.00    +0.000 S 
ATOM     39  H   UNL     1       2.026   3.424  19.480  0.00  0.00    +0.000 HD
ENDBRANCH  34  38
ENDBRANCH  26  28
ENDBRANCH   1  26
TORSDOF 10
ENDMDL
MODEL 6
REMARK VINA RESULT:      -7.3      4.135      8.797
REMARK  Name = 
REMARK  11 active torsions:
REMARK  status: ('A' for Active; 'I' for Inactive)
REMARK    1  A    between atoms: C_1  and  O_2
REMARK    2  A    between atoms: O_2  and  C_3
REMARK    3  A    between atoms: C_3  and  C_5
REMARK    4  A    between atoms: C_5  and  C_8
REMARK    5  A    between atoms: N_6  and  N_7
REMARK    6  A    between atoms: C_8  and  C_9
REMARK    7  A    between atoms: C_8  and  C_20
REMARK    8  A    between atoms: C_9  and  C_11
REMARK    9  A    between atoms: C_17  and  S_18
REMARK   10  A    between atoms: C_25  and  N_26
REMARK   11  A    between atoms: C_32  and  O_33
REMARK                            x       y       z     vdW  Elec       q    Type
REMARK                         _______ _______ _______ _____ _____    ______ ____
ROOT
ATOM      1  C   UNL     1       0.475  10.722  19.454  0.00  0.00    +0.000 C 
ENDROOT
BRANCH   1   2
ATOM      2  C   UNL     1       1.354   9.504  19.250  0.00  0.00    +0.000 A 
ATOM      3  N   UNL     1       1.290   8.496  20.156  0.00  0.00    +0.000 NA
ATOM      4  C   UNL     1       1.904   7.338  19.832  0.00  0.00    +0.000 A 
ATOM      5  C   UNL     1       1.791   6.253  20.685  0.00  0.00    +0.000 A 
ATOM      6  C   UNL     1       2.346   5.012  20.371  0.00  0.00    +0.000 A 
ATOM      7  C   UNL     1       3.045   4.865  19.174  0.00  0.00    +0.000 A 
ATOM      8  C   UNL     1       3.200   5.958  18.308  0.00  0.00    +0.000 A 
ATOM      9  C   UNL     1       2.635   7.191  18.619  0.00  0.00    +0.000 A 
ATOM     10  N   UNL     1       2.765   8.219  17.763  0.00  0.00    +0.000 NA
ATOM     11  C   UNL     1       2.108   9.347  18.093  0.00  0.00    +0.000 A 
BRANCH   7  12
ATOM     12  N   UNL     1       3.602   3.555  18.811  0.00  0.00    +0.000 N 
ATOM     13  O   UNL     1       3.065   2.944  17.875  0.00  0.00    +0.000 OA
ATOM     14  O   UNL     1       4.574   3.141  19.454  0.00  0.00    +0.000 OA
ENDBRANCH   7  12
BRANCH  11  15
ATOM     15  O   UNL     1       2.217  10.324  17.161  0.00  0.00    +0.000 OA
ATOM     16  H   UNL     1       2.199   9.791  16.344  0.00  0.00    +0.000 HD
ENDBRANCH  11  15
ENDBRANCH   1   2
BRANCH   1  17
ATOM     17  C   UNL     1      -0.691  10.779  18.474  0.00  0.00    +0.000 C 
ATOM     18  N   UNL     1      -0.992   9.725  17.756  0.00  0.00    +0.000 NA
BRANCH  18  19
ATOM     19  N   UNL     1      -2.039   9.765  16.912  0.00  0.00    +0.000 N 
ATOM     20  H   UNL     1      -2.928   9.710  17.414  0.00  0.00    +0.000 HD
ATOM     21  H   UNL     1      -2.044   9.060  16.166  0.00  0.00    +0.000 HD
ENDBRANCH  18  19
BRANCH  17  22
ATOM     22  C   UNL     1      -1.404  12.147  18.344  0.00  0.00    +0.000 C 
ATOM     23  O   UNL     1      -0.811  13.199  18.185  0.00  0.00    +0.000 OA
BRANCH  22  25
ATOM     24  C   UNL     1      -3.276  12.414  19.775  0.00  0.00    +0.000 C 
ATOM     25  O   UNL     1      -2.735  11.999  18.515  0.00  0.00    +0.000 OA
ENDBRANCH  22  25
ENDBRANCH  17  22
ENDBRANCH   1  17
BRANCH   1  26
ATOM     26  C   UNL     1       0.009  10.833  20.895  0.00  0.00    +0.000 C 
ATOM     27  O   UNL     1      -0.567   9.962  21.542  0.00  0.00    +0.000 OA
BRANCH  26  28
ATOM     28  C   UNL     1       0.200  12.198  21.541  0.00  0.00    +0.000 C 
ATOM     29  O   UNL     1       1.228  12.808  21.283  0.00  0.00    +0.000 OA
ATOM     30  N   UNL     1      -0.861  12.593  22.333  0.00  0.00    +0.000 N 
ATOM     31  C   UNL     1      -0.804  13.788  23.005  0.00  0.00    +0.000 A 
ATOM     32  N   UNL     1       0.148  14.696  22.974  0.00  0.00    +0.000 NA
ATOM     33  N   UNL     1      -0.176  15.707  23.848  0.00  0.00    +0.000 NA
ATOM     34  C   UNL     1      -1.322  15.388  24.386  0.00  0.00    +0.000 A 
ATOM     35  N   UNL     1      -1.778  14.214  23.871  0.00  0.00    +0.000 N 
ATOM     36  H   UNL     1      -1.650  11.959  22.423  0.00  0.00    +0.000 HD
ATOM     37  H   UNL     1      -2.634  13.748  24.125  0.00  0.00    +0.000 HD
BRANCH  34  38
ATOM     38  S   UNL     1      -2.174  16.258  25.593  0.00  0.00    +0.000 S 
ATOM     39  H   UNL     1      -3.406  15.934  25.164  0.00  0.00    +0.000 HD
ENDBRANCH  34  38
ENDBRANCH  26  28
ENDBRANCH   1  26
TORSDOF 10
ENDMDL
MODEL 7
REMARK VINA RESULT:      -7.3      4.348      9.746
REMARK  Name = 
REMARK  11 active torsions:
REMARK  status: ('A' for Active; 'I' for Inactive)
REMARK    1  A    between atoms: C_1  and  O_2
REMARK    2  A    between atoms: O_2  and  C_3
REMARK    3  A    between atoms: C_3  and  C_5
REMARK    4  A    between atoms: C_5  and  C_8
REMARK    5  A    between atoms: N_6  and  N_7
REMARK    6  A    between atoms: C_8  and  C_9
REMARK    7  A    between atoms: C_8  and  C_20
REMARK    8  A    between atoms: C_9  and  C_11
REMARK    9  A    between atoms: C_17  and  S_18
REMARK   10  A    between atoms: C_25  and  N_26
REMARK   11  A    between atoms: C_32  and  O_33
REMARK                            x       y       z     vdW  Elec       q    Type
REMARK                         _______ _______ _______ _____ _____    ______ ____
ROOT
ATOM      1  C   UNL     1       0.407  10.696  19.584  0.00  0.00    +0.000 C 
ENDROOT
BRANCH   1   2
ATOM      2  C   UNL     1       1.001   9.302  19.567  0.00  0.00    +0.000 A 
ATOM      3  N   UNL     1       1.759   8.930  18.505  0.00  0.00    +0.000 NA
ATOM      4  C   UNL     1       2.458   7.780  18.620  0.00  0.00    +0.000 A 
ATOM      5  C   UNL     1       3.313   7.405  17.598  0.00  0.00    +0.000 A 
ATOM      6  C   UNL     1       4.111   6.264  17.691  0.00  0.00    +0.000 A 
ATOM      7  C   UNL     1       4.034   5.473  18.837  0.00  0.00    +0.000 A 
ATOM      8  C   UNL     1       3.152   5.815  19.872  0.00  0.00    +0.000 A 
ATOM      9  C   UNL     1       2.366   6.961  19.782  0.00  0.00    +0.000 A 
ATOM     10  N   UNL     1       1.550   7.291  20.797  0.00  0.00    +0.000 NA
ATOM     11  C   UNL     1       0.898   8.463  20.670  0.00  0.00    +0.000 A 
BRANCH   7  12
ATOM     12  N   UNL     1       4.896   4.291  18.965  0.00  0.00    +0.000 N 
ATOM     13  O   UNL     1       6.069   4.474  19.323  0.00  0.00    +0.000 OA
ATOM     14  O   UNL     1       4.402   3.185  18.717  0.00  0.00    +0.000 OA
ENDBRANCH   7  12
BRANCH  11  15
ATOM     15  O   UNL     1       0.147   8.779  21.753  0.00  0.00    +0.000 OA
ATOM     16  H   UNL     1      -0.735   8.847  21.342  0.00  0.00    +0.000 HD
ENDBRANCH  11  15
ENDBRANCH   1   2
BRANCH   1  17
ATOM     17  C   UNL     1       1.397  11.765  19.135  0.00  0.00    +0.000 C 
ATOM     18  N   UNL     1       2.057  11.612  18.014  0.00  0.00    +0.000 NA
BRANCH  18  19
ATOM     19  N   UNL     1       2.909  12.569  17.602  0.00  0.00    +0.000 N 
ATOM     20  H   UNL     1       3.813  12.493  18.072  0.00  0.00    +0.000 HD
ATOM     21  H   UNL     1       2.578  13.537  17.692  0.00  0.00    +0.000 HD
ENDBRANCH  18  19
BRANCH  17  22
ATOM     22  C   UNL     1       1.607  12.948  20.110  0.00  0.00    +0.000 C 
ATOM     23  O   UNL     1       1.911  12.807  21.281  0.00  0.00    +0.000 OA
BRANCH  22  25
ATOM     24  C   UNL     1       0.129  14.792  19.904  0.00  0.00    +0.000 C 
ATOM     25  O   UNL     1       1.324  14.117  19.495  0.00  0.00    +0.000 OA
ENDBRANCH  22  25
ENDBRANCH  17  22
ENDBRANCH   1  17
BRANCH   1  26
ATOM     26  C   UNL     1      -0.887  10.755  18.792  0.00  0.00    +0.000 C 
ATOM     27  O   UNL     1      -1.076  10.290  17.670  0.00  0.00    +0.000 OA
BRANCH  26  28
ATOM     28  C   UNL     1      -2.011  11.558  19.433  0.00  0.00    +0.000 C 
ATOM     29  O   UNL     1      -1.848  11.942  20.582  0.00  0.00    +0.000 OA
ATOM     30  N   UNL     1      -3.086  11.778  18.595  0.00  0.00    +0.000 N 
ATOM     31  C   UNL     1      -4.185  12.458  19.057  0.00  0.00    +0.000 A 
ATOM     32  N   UNL     1      -4.365  13.008  20.240  0.00  0.00    +0.000 NA
ATOM     33  N   UNL     1      -5.636  13.529  20.297  0.00  0.00    +0.000 NA
ATOM     34  C   UNL     1      -6.195  13.288  19.141  0.00  0.00    +0.000 A 
ATOM     35  N   UNL     1      -5.323  12.649  18.316  0.00  0.00    +0.000 N 
ATOM     36  H   UNL     1      -3.045  11.394  17.655  0.00  0.00    +0.000 HD
ATOM     37  H   UNL     1      -5.511  12.346  17.374  0.00  0.00    +0.000 HD
BRANCH  34  38
ATOM     38  S   UNL     1      -7.801  13.663  18.673  0.00  0.00    +0.000 S 
ATOM     39  H   UNL     1      -8.403  12.826  19.536  0.00  0.00    +0.000 HD
ENDBRANCH  34  38
ENDBRANCH  26  28
ENDBRANCH   1  26
TORSDOF 10
ENDMDL
MODEL 8
REMARK VINA RESULT:      -7.3      3.686      8.236
REMARK  Name = 
REMARK  11 active torsions:
REMARK  status: ('A' for Active; 'I' for Inactive)
REMARK    1  A    between atoms: C_1  and  O_2
REMARK    2  A    between atoms: O_2  and  C_3
REMARK    3  A    between atoms: C_3  and  C_5
REMARK    4  A    between atoms: C_5  and  C_8
REMARK    5  A    between atoms: N_6  and  N_7
REMARK    6  A    between atoms: C_8  and  C_9
REMARK    7  A    between atoms: C_8  and  C_20
REMARK    8  A    between atoms: C_9  and  C_11
REMARK    9  A    between atoms: C_17  and  S_18
REMARK   10  A    between atoms: C_25  and  N_26
REMARK   11  A    between atoms: C_32  and  O_33
REMARK                            x       y       z     vdW  Elec       q    Type
REMARK                         _______ _______ _______ _____ _____    ______ ____
ROOT
ATOM      1  C   UNL     1       0.398  10.618  19.552  0.00  0.00    +0.000 C 
ENDROOT
BRANCH   1   2
ATOM      2  C   UNL     1       1.320   9.445  19.287  0.00  0.00    +0.000 A 
ATOM      3  N   UNL     1       1.314   8.403  20.156  0.00  0.00    +0.000 NA
ATOM      4  C   UNL     1       1.967   7.283  19.778  0.00  0.00    +0.000 A 
ATOM      5  C   UNL     1       1.915   6.165  20.592  0.00  0.00    +0.000 A 
ATOM      6  C   UNL     1       2.513   4.960  20.222  0.00  0.00    +0.000 A 
ATOM      7  C   UNL     1       3.193   4.884  19.007  0.00  0.00    +0.000 A 
ATOM      8  C   UNL     1       3.286   6.013  18.179  0.00  0.00    +0.000 A 
ATOM      9  C   UNL     1       2.679   7.211  18.546  0.00  0.00    +0.000 A 
ATOM     10  N   UNL     1       2.751   8.273  17.727  0.00  0.00    +0.000 NA
ATOM     11  C   UNL     1       2.056   9.361  18.111  0.00  0.00    +0.000 A 
BRANCH   7  12
ATOM     12  N   UNL     1       3.793   3.612  18.586  0.00  0.00    +0.000 N 
ATOM     13  O   UNL     1       3.592   3.242  17.419  0.00  0.00    +0.000 OA
ATOM     14  O   UNL     1       4.469   2.989  19.413  0.00  0.00    +0.000 OA
ENDBRANCH   7  12
BRANCH  11  15
ATOM     15  O   UNL     1       2.106  10.375  17.213  0.00  0.00    +0.000 OA
ATOM     16  H   UNL     1       2.205  11.137  17.814  0.00  0.00    +0.000 HD
ENDBRANCH  11  15
ENDBRANCH   1   2
BRANCH   1  17
ATOM     17  C   UNL     1      -0.727  10.728  18.528  0.00  0.00    +0.000 C 
ATOM     18  N   UNL     1      -1.000   9.713  17.748  0.00  0.00    +0.000 NA
BRANCH  18  19
ATOM     19  N   UNL     1      -2.011   9.799  16.865  0.00  0.00    +0.000 N 
ATOM     20  H   UNL     1      -2.558   8.936  16.835  0.00  0.00    +0.000 HD
ATOM     21  H   UNL     1      -1.750  10.050  15.904  0.00  0.00    +0.000 HD
ENDBRANCH  18  19
BRANCH  17  22
ATOM     22  C   UNL     1      -1.429  12.105  18.436  0.00  0.00    +0.000 C 
ATOM     23  O   UNL     1      -0.837  13.147  18.222  0.00  0.00    +0.000 OA
BRANCH  22  25
ATOM     24  C   UNL     1      -3.207  12.524  19.949  0.00  0.00    +0.000 C 
ATOM     25  O   UNL     1      -2.746  11.977  18.708  0.00  0.00    +0.000 OA
ENDBRANCH  22  25
ENDBRANCH  17  22
ENDBRANCH   1  17
BRANCH   1  26
ATOM     26  C   UNL     1      -0.133  10.594  20.975  0.00  0.00    +0.000 C 
ATOM     27  O   UNL     1      -0.724   9.662  21.515  0.00  0.00    +0.000 OA
BRANCH  26  28
ATOM     28  C   UNL     1       0.008  11.898  21.748  0.00  0.00    +0.000 C 
ATOM     29  O   UNL     1      -0.449  11.936  22.881  0.00  0.00    +0.000 OA
ATOM     30  N   UNL     1       0.682  12.885  21.056  0.00  0.00    +0.000 N 
ATOM     31  C   UNL     1       0.849  14.124  21.623  0.00  0.00    +0.000 A 
ATOM     32  N   UNL     1       0.480  14.529  22.820  0.00  0.00    +0.000 NA
ATOM     33  N   UNL     1       0.787  15.863  22.950  0.00  0.00    +0.000 NA
ATOM     34  C   UNL     1       1.341  16.234  21.827  0.00  0.00    +0.000 A 
ATOM     35  N   UNL     1       1.435  15.180  20.972  0.00  0.00    +0.000 N 
ATOM     36  H   UNL     1       1.010  12.672  20.119  0.00  0.00    +0.000 HD
ATOM     37  H   UNL     1       1.816  15.204  20.041  0.00  0.00    +0.000 HD
BRANCH  34  38
ATOM     38  S   UNL     1       1.868  17.811  21.407  0.00  0.00    +0.000 S 
ATOM     39  H   UNL     1       0.993  17.994  20.403  0.00  0.00    +0.000 HD
ENDBRANCH  34  38
ENDBRANCH  26  28
ENDBRANCH   1  26
TORSDOF 10
ENDMDL
MODEL 9
REMARK VINA RESULT:      -7.2      4.469      9.517
REMARK  Name = 
REMARK  11 active torsions:
REMARK  status: ('A' for Active; 'I' for Inactive)
REMARK    1  A    between atoms: C_1  and  O_2
REMARK    2  A    between atoms: O_2  and  C_3
REMARK    3  A    between atoms: C_3  and  C_5
REMARK    4  A    between atoms: C_5  and  C_8
REMARK    5  A    between atoms: N_6  and  N_7
REMARK    6  A    between atoms: C_8  and  C_9
REMARK    7  A    between atoms: C_8  and  C_20
REMARK    8  A    between atoms: C_9  and  C_11
REMARK    9  A    between atoms: C_17  and  S_18
REMARK   10  A    between atoms: C_25  and  N_26
REMARK   11  A    between atoms: C_32  and  O_33
REMARK                            x       y       z     vdW  Elec       q    Type
REMARK                         _______ _______ _______ _____ _____    ______ ____
ROOT
ATOM      1  C   UNL     1       0.599  12.943  20.822  0.00  0.00    +0.000 C 
ENDROOT
BRANCH   1   2
ATOM      2  C   UNL     1       0.743  11.461  20.543  0.00  0.00    +0.000 A 
ATOM      3  N   UNL     1       1.169  11.068  19.315  0.00  0.00    +0.000 NA
ATOM      4  C   UNL     1       1.506   9.768  19.168  0.00  0.00    +0.000 A 
ATOM      5  C   UNL     1       2.030   9.340  17.960  0.00  0.00    +0.000 A 
ATOM      6  C   UNL     1       2.459   8.026  17.772  0.00  0.00    +0.000 A 
ATOM      7  C   UNL     1       2.343   7.117  18.822  0.00  0.00    +0.000 A 
ATOM      8  C   UNL     1       1.787   7.519  20.046  0.00  0.00    +0.000 A 
ATOM      9  C   UNL     1       1.371   8.834  20.235  0.00  0.00    +0.000 A 
ATOM     10  N   UNL     1       0.870   9.211  21.423  0.00  0.00    +0.000 NA
ATOM     11  C   UNL     1       0.582  10.520  21.552  0.00  0.00    +0.000 A 
BRANCH   7  12
ATOM     12  N   UNL     1       2.826   5.741  18.652  0.00  0.00    +0.000 N 
ATOM     13  O   UNL     1       3.674   5.327  19.457  0.00  0.00    +0.000 OA
ATOM     14  O   UNL     1       2.357   5.074  17.722  0.00  0.00    +0.000 OA
ENDBRANCH   7  12
BRANCH  11  15
ATOM     15  O   UNL     1       0.149  10.854  22.792  0.00  0.00    +0.000 OA
ATOM     16  H   UNL     1       0.201   9.987  23.237  0.00  0.00    +0.000 HD
ENDBRANCH  11  15
ENDBRANCH   1   2
BRANCH   1  17
ATOM     17  C   UNL     1       1.893  13.716  20.591  0.00  0.00    +0.000 C 
ATOM     18  N   UNL     1       2.783  13.796  21.548  0.00  0.00    +0.000 NA
BRANCH  18  19
ATOM     19  N   UNL     1       3.938  14.453  21.337  0.00  0.00    +0.000 N 
ATOM     20  H   UNL     1       4.037  14.731  20.358  0.00  0.00    +0.000 HD
ATOM     21  H   UNL     1       4.794  13.964  21.622  0.00  0.00    +0.000 HD
ENDBRANCH  18  19
BRANCH  17  22
ATOM     22  C   UNL     1       2.023  14.432  19.225  0.00  0.00    +0.000 C 
ATOM     23  O   UNL     1       2.083  13.842  18.162  0.00  0.00    +0.000 OA
BRANCH  22  25
ATOM     24  C   UNL     1       2.304  16.567  18.229  0.00  0.00    +0.000 C 
ATOM     25  O   UNL     1       2.141  15.765  19.406  0.00  0.00    +0.000 OA
ENDBRANCH  22  25
ENDBRANCH  17  22
ENDBRANCH   1  17
BRANCH   1  26
ATOM     26  C   UNL     1      -0.563  13.542  20.048  0.00  0.00    +0.000 C 
ATOM     27  O   UNL     1      -0.830  14.737  19.947  0.00  0.00    +0.000 OA
BRANCH  26  28
ATOM     28  C   UNL     1      -1.526  12.537  19.432  0.00  0.00    +0.000 C 
ATOM     29  O   UNL     1      -2.211  11.869  20.192  0.00  0.00    +0.000 OA
ATOM     30  N   UNL     1      -1.519  12.535  18.050  0.00  0.00    +0.000 N 
ATOM     31  C   UNL     1      -2.315  11.651  17.365  0.00  0.00    +0.000 A 
ATOM     32  N   UNL     1      -3.172  10.779  17.853  0.00  0.00    +0.000 NA
ATOM     33  N   UNL     1      -3.705  10.054  16.813  0.00  0.00    +0.000 NA
ATOM     34  C   UNL     1      -3.161  10.509  15.717  0.00  0.00    +0.000 A 
ATOM     35  N   UNL     1      -2.307  11.531  15.999  0.00  0.00    +0.000 N 
ATOM     36  H   UNL     1      -0.889  13.175  17.575  0.00  0.00    +0.000 HD
ATOM     37  H   UNL     1      -1.758  12.046  15.330  0.00  0.00    +0.000 HD
BRANCH  34  38
ATOM     38  S   UNL     1      -3.412   9.932  14.122  0.00  0.00    +0.000 S 
ATOM     39  H   UNL     1      -4.752  10.038  14.139  0.00  0.00    +0.000 HD
ENDBRANCH  34  38
ENDBRANCH  26  28
ENDBRANCH   1  26
TORSDOF 10
ENDMDL
