MODEL 1
REMARK VINA RESULT:      -7.6      0.000      0.000
REMARK  Name = 
REMARK  8 active torsions:
REMARK  status: ('A' for Active; 'I' for Inactive)
REMARK    1  A    between atoms: C_1  and  C_2
REMARK    2  A    between atoms: C_2  and  C_3
REMARK    3  A    between atoms: C_3  and  C_4
REMARK    4  A    between atoms: C_4  and  O_6
REMARK    5  A    between atoms: O_6  and  C_7
REMARK    6  A    between atoms: C_7  and  C_8
REMARK    7  A    between atoms: C_7  and  C_14
REMARK    8  A    between atoms: C_8  and  N_9
REMARK                            x       y       z     vdW  Elec       q    Type
REMARK                         _______ _______ _______ _____ _____    ______ ____
ROOT
ATOM      1  C   UNL     1       3.635   6.336  18.059  0.00  0.00    +0.000 C 
ENDROOT
BRANCH   1   2
ATOM      2  C   UNL     1       2.690   7.424  18.565  0.00  0.00    +0.000 A 
ATOM      3  C   UNL     1       2.238   8.429  17.698  0.00  0.00    +0.000 A 
ATOM      4  C   UNL     1       1.383   9.440  18.146  0.00  0.00    +0.000 A 
ATOM      5  C   UNL     1       0.938   9.464  19.476  0.00  0.00    +0.000 A 
ATOM      6  C   UNL     1       0.105  10.490  19.954  0.00  0.00    +0.000 A 
ATOM      7  C   UNL     1      -0.329  10.495  21.282  0.00  0.00    +0.000 A 
ATOM      8  C   UNL     1       0.059   9.474  22.144  0.00  0.00    +0.000 A 
ATOM      9  C   UNL     1       0.887   8.450  21.682  0.00  0.00    +0.000 A 
ATOM     10  C   UNL     1       1.338   8.442  20.351  0.00  0.00    +0.000 A 
ATOM     11  C   UNL     1       2.195   7.426  19.881  0.00  0.00    +0.000 A 
ENDBRANCH   1   2
BRANCH   1  12
ATOM     12  O   UNL     1       2.847   5.233  17.534  0.00  0.00    +0.000 OA
BRANCH  12  13
ATOM     13  C   UNL     1       2.959   4.049  18.199  0.00  0.00    +0.000 C 
ATOM     14  O   UNL     1       3.967   3.658  18.764  0.00  0.00    +0.000 OA
BRANCH  13  15
ATOM     15  C   UNL     1       1.654   3.283  18.159  0.00  0.00    +0.000 C 
BRANCH  15  17
ATOM     16  C   UNL     1       0.991   4.091  20.467  0.00  0.00    +0.000 C 
ATOM     17  C   UNL     1       1.205   2.888  19.562  0.00  0.00    +0.000 C 
ENDBRANCH  15  17
ENDBRANCH  13  15
ENDBRANCH  12  13
ENDBRANCH   1  12
BRANCH   1  18
ATOM     18  C   UNL     1       4.676   6.808  17.017  0.00  0.00    +0.000 C 
BRANCH  18  19
ATOM     19  N   UNL     1       5.634   5.806  16.587  0.00  0.00    +0.000 N 
ATOM     20  C   UNL     1       5.683   5.210  15.355  0.00  0.00    +0.000 A 
ATOM     21  C   UNL     1       6.893   4.556  15.327  0.00  0.00    +0.000 A 
ATOM     22  N   UNL     1       7.541   4.677  16.528  0.00  0.00    +0.000 NA
ATOM     23  C   UNL     1       6.748   5.414  17.272  0.00  0.00    +0.000 A 
ENDBRANCH  18  19
ENDBRANCH   1  18
TORSDOF 7
ENDMDL
MODEL 2
REMARK VINA RESULT:      -7.6      3.348      5.285
REMARK  Name = 
REMARK  8 active torsions:
REMARK  status: ('A' for Active; 'I' for Inactive)
REMARK    1  A    between atoms: C_1  and  C_2
REMARK    2  A    between atoms: C_2  and  C_3
REMARK    3  A    between atoms: C_3  and  C_4
REMARK    4  A    between atoms: C_4  and  O_6
REMARK    5  A    between atoms: O_6  and  C_7
REMARK    6  A    between atoms: C_7  and  C_8
REMARK    7  A    between atoms: C_7  and  C_14
REMARK    8  A    between atoms: C_8  and  N_9
REMARK                            x       y       z     vdW  Elec       q    Type
REMARK                         _______ _______ _______ _____ _____    ______ ____
ROOT
ATOM      1  C   UNL     1       5.938   4.650  16.721  0.00  0.00    +0.000 C 
ENDROOT
BRANCH   1   2
ATOM      2  C   UNL     1       4.733   4.589  17.657  0.00  0.00    +0.000 A 
ATOM      3  C   UNL     1       3.680   5.505  17.517  0.00  0.00    +0.000 A 
ATOM      4  C   UNL     1       2.575   5.473  18.372  0.00  0.00    +0.000 A 
ATOM      5  C   UNL     1       2.482   4.508  19.385  0.00  0.00    +0.000 A 
ATOM      6  C   UNL     1       1.395   4.479  20.276  0.00  0.00    +0.000 A 
ATOM      7  C   UNL     1       1.319   3.509  21.277  0.00  0.00    +0.000 A 
ATOM      8  C   UNL     1       2.323   2.552  21.396  0.00  0.00    +0.000 A 
ATOM      9  C   UNL     1       3.408   2.570  20.518  0.00  0.00    +0.000 A 
ATOM     10  C   UNL     1       3.499   3.549  19.515  0.00  0.00    +0.000 A 
ATOM     11  C   UNL     1       4.604   3.592  18.640  0.00  0.00    +0.000 A 
ENDBRANCH   1   2
BRANCH   1  12
ATOM     12  O   UNL     1       7.148   4.427  17.495  0.00  0.00    +0.000 OA
BRANCH  12  13
ATOM     13  C   UNL     1       7.509   5.431  18.343  0.00  0.00    +0.000 C 
ATOM     14  O   UNL     1       7.869   5.275  19.498  0.00  0.00    +0.000 OA
BRANCH  13  15
ATOM     15  C   UNL     1       7.417   6.777  17.655  0.00  0.00    +0.000 C 
BRANCH  15  17
ATOM     16  C   UNL     1       8.080   9.218  17.805  0.00  0.00    +0.000 C 
ATOM     17  C   UNL     1       8.266   7.820  18.374  0.00  0.00    +0.000 C 
ENDBRANCH  15  17
ENDBRANCH  13  15
ENDBRANCH  12  13
ENDBRANCH   1  12
BRANCH   1  18
ATOM     18  C   UNL     1       5.877   3.686  15.514  0.00  0.00    +0.000 C 
BRANCH  18  19
ATOM     19  N   UNL     1       6.596   4.117  14.328  0.00  0.00    +0.000 N 
ATOM     20  C   UNL     1       6.426   3.633  13.058  0.00  0.00    +0.000 A 
ATOM     21  C   UNL     1       7.107   4.514  12.250  0.00  0.00    +0.000 A 
ATOM     22  N   UNL     1       7.742   5.470  12.998  0.00  0.00    +0.000 NA
ATOM     23  C   UNL     1       7.436   5.190  14.244  0.00  0.00    +0.000 A 
ENDBRANCH  18  19
ENDBRANCH   1  18
TORSDOF 7
ENDMDL
MODEL 3
REMARK VINA RESULT:      -7.5      1.056      1.278
REMARK  Name = 
REMARK  8 active torsions:
REMARK  status: ('A' for Active; 'I' for Inactive)
REMARK    1  A    between atoms: C_1  and  C_2
REMARK    2  A    between atoms: C_2  and  C_3
REMARK    3  A    between atoms: C_3  and  C_4
REMARK    4  A    between atoms: C_4  and  O_6
REMARK    5  A    between atoms: O_6  and  C_7
REMARK    6  A    between atoms: C_7  and  C_8
REMARK    7  A    between atoms: C_7  and  C_14
REMARK    8  A    between atoms: C_8  and  N_9
REMARK                            x       y       z     vdW  Elec       q    Type
REMARK                         _______ _______ _______ _____ _____    ______ ____
ROOT
ATOM      1  C   UNL     1       3.841   5.253  18.981  0.00  0.00    +0.000 C 
ENDROOT
BRANCH   1   2
ATOM      2  C   UNL     1       3.017   6.538  19.018  0.00  0.00    +0.000 A 
ATOM      3  C   UNL     1       2.979   7.389  17.903  0.00  0.00    +0.000 A 
ATOM      4  C   UNL     1       2.241   8.575  17.924  0.00  0.00    +0.000 A 
ATOM      5  C   UNL     1       1.501   8.939  19.058  0.00  0.00    +0.000 A 
ATOM      6  C   UNL     1       0.780  10.144  19.110  0.00  0.00    +0.000 A 
ATOM      7  C   UNL     1       0.047  10.487  20.249  0.00  0.00    +0.000 A 
ATOM      8  C   UNL     1       0.021   9.630  21.344  0.00  0.00    +0.000 A 
ATOM      9  C   UNL     1       0.735   8.430  21.305  0.00  0.00    +0.000 A 
ATOM     10  C   UNL     1       1.484   8.082  20.169  0.00  0.00    +0.000 A 
ATOM     11  C   UNL     1       2.229   6.885  20.130  0.00  0.00    +0.000 A 
ENDBRANCH   1   2
BRANCH   1  12
ATOM     12  O   UNL     1       3.427   4.461  17.834  0.00  0.00    +0.000 OA
BRANCH  12  13
ATOM     13  C   UNL     1       2.215   3.847  17.938  0.00  0.00    +0.000 C 
ATOM     14  O   UNL     1       1.237   4.112  17.258  0.00  0.00    +0.000 OA
BRANCH  13  15
ATOM     15  C   UNL     1       2.244   2.775  19.006  0.00  0.00    +0.000 C 
BRANCH  15  17
ATOM     16  C   UNL     1       1.608   3.284  21.406  0.00  0.00    +0.000 C 
ATOM     17  C   UNL     1       1.108   2.965  20.006  0.00  0.00    +0.000 C 
ENDBRANCH  15  17
ENDBRANCH  13  15
ENDBRANCH  12  13
ENDBRANCH   1  12
BRANCH   1  18
ATOM     18  C   UNL     1       5.374   5.460  18.977  0.00  0.00    +0.000 C 
BRANCH  18  19
ATOM     19  N   UNL     1       6.047   5.147  17.730  0.00  0.00    +0.000 N 
ATOM     20  C   UNL     1       5.724   5.633  16.491  0.00  0.00    +0.000 A 
ATOM     21  C   UNL     1       6.784   5.285  15.686  0.00  0.00    +0.000 A 
ATOM     22  N   UNL     1       7.700   4.542  16.382  0.00  0.00    +0.000 NA
ATOM     23  C   UNL     1       7.219   4.456  17.601  0.00  0.00    +0.000 A 
ENDBRANCH  18  19
ENDBRANCH   1  18
TORSDOF 7
ENDMDL
MODEL 4
REMARK VINA RESULT:      -7.5      1.072      1.290
REMARK  Name = 
REMARK  8 active torsions:
REMARK  status: ('A' for Active; 'I' for Inactive)
REMARK    1  A    between atoms: C_1  and  C_2
REMARK    2  A    between atoms: C_2  and  C_3
REMARK    3  A    between atoms: C_3  and  C_4
REMARK    4  A    between atoms: C_4  and  O_6
REMARK    5  A    between atoms: O_6  and  C_7
REMARK    6  A    between atoms: C_7  and  C_8
REMARK    7  A    between atoms: C_7  and  C_14
REMARK    8  A    between atoms: C_8  and  N_9
REMARK                            x       y       z     vdW  Elec       q    Type
REMARK                         _______ _______ _______ _____ _____    ______ ____
ROOT
ATOM      1  C   UNL     1       3.245   6.238  18.393  0.00  0.00    +0.000 C 
ENDROOT
BRANCH   1   2
ATOM      2  C   UNL     1       2.389   7.432  18.811  0.00  0.00    +0.000 A 
ATOM      3  C   UNL     1       1.977   8.377  17.859  0.00  0.00    +0.000 A 
ATOM      4  C   UNL     1       1.205   9.482  18.226  0.00  0.00    +0.000 A 
ATOM      5  C   UNL     1       0.804   9.667  19.557  0.00  0.00    +0.000 A 
ATOM      6  C   UNL     1       0.055  10.789  19.951  0.00  0.00    +0.000 A 
ATOM      7  C   UNL     1      -0.336  10.954  21.282  0.00  0.00    +0.000 A 
ATOM      8  C   UNL     1       0.009   9.997  22.231  0.00  0.00    +0.000 A 
ATOM      9  C   UNL     1       0.754   8.878  21.853  0.00  0.00    +0.000 A 
ATOM     10  C   UNL     1       1.162   8.710  20.519  0.00  0.00    +0.000 A 
ATOM     11  C   UNL     1       1.936   7.597  20.132  0.00  0.00    +0.000 A 
ENDBRANCH   1   2
BRANCH   1  12
ATOM     12  O   UNL     1       2.420   5.309  17.638  0.00  0.00    +0.000 OA
BRANCH  12  13
ATOM     13  C   UNL     1       1.964   4.223  18.322  0.00  0.00    +0.000 C 
ATOM     14  O   UNL     1       1.146   3.423  17.899  0.00  0.00    +0.000 OA
BRANCH  13  15
ATOM     15  C   UNL     1       2.622   4.127  19.682  0.00  0.00    +0.000 C 
BRANCH  15  17
ATOM     16  C   UNL     1       1.460   2.700  21.424  0.00  0.00    +0.000 C 
ATOM     17  C   UNL     1       1.580   4.079  20.794  0.00  0.00    +0.000 C 
ENDBRANCH  15  17
ENDBRANCH  13  15
ENDBRANCH  12  13
ENDBRANCH   1  12
BRANCH   1  18
ATOM     18  C   UNL     1       4.525   6.597  17.605  0.00  0.00    +0.000 C 
BRANCH  18  19
ATOM     19  N   UNL     1       5.633   5.669  17.748  0.00  0.00    +0.000 N 
ATOM     20  C   UNL     1       6.377   5.133  16.731  0.00  0.00    +0.000 A 
ATOM     21  C   UNL     1       7.456   4.548  17.352  0.00  0.00    +0.000 A 
ATOM     22  N   UNL     1       7.348   4.649  18.714  0.00  0.00    +0.000 NA
ATOM     23  C   UNL     1       6.230   5.307  18.922  0.00  0.00    +0.000 A 
ENDBRANCH  18  19
ENDBRANCH   1  18
TORSDOF 7
ENDMDL
MODEL 5
REMARK VINA RESULT:      -7.5      1.292      1.591
REMARK  Name = 
REMARK  8 active torsions:
REMARK  status: ('A' for Active; 'I' for Inactive)
REMARK    1  A    between atoms: C_1  and  C_2
REMARK    2  A    between atoms: C_2  and  C_3
REMARK    3  A    between atoms: C_3  and  C_4
REMARK    4  A    between atoms: C_4  and  O_6
REMARK    5  A    between atoms: O_6  and  C_7
REMARK    6  A    between atoms: C_7  and  C_8
REMARK    7  A    between atoms: C_7  and  C_14
REMARK    8  A    between atoms: C_8  and  N_9
REMARK                            x       y       z     vdW  Elec       q    Type
REMARK                         _______ _______ _______ _____ _____    ______ ____
ROOT
ATOM      1  C   UNL     1       3.426   5.264  18.237  0.00  0.00    +0.000 C 
ENDROOT
BRANCH   1   2
ATOM      2  C   UNL     1       2.746   6.586  18.587  0.00  0.00    +0.000 A 
ATOM      3  C   UNL     1       2.562   7.570  17.605  0.00  0.00    +0.000 A 
ATOM      4  C   UNL     1       1.954   8.791  17.910  0.00  0.00    +0.000 A 
ATOM      5  C   UNL     1       1.494   9.058  19.207  0.00  0.00    +0.000 A 
ATOM      6  C   UNL     1       0.910  10.291  19.542  0.00  0.00    +0.000 A 
ATOM      7  C   UNL     1       0.456  10.537  20.839  0.00  0.00    +0.000 A 
ATOM      8  C   UNL     1       0.573   9.553  21.815  0.00  0.00    +0.000 A 
ATOM      9  C   UNL     1       1.152   8.323  21.496  0.00  0.00    +0.000 A 
ATOM     10  C   UNL     1       1.623   8.071  20.197  0.00  0.00    +0.000 A 
ATOM     11  C   UNL     1       2.232   6.842  19.871  0.00  0.00    +0.000 A 
ENDBRANCH   1   2
BRANCH   1  12
ATOM     12  O   UNL     1       2.423   4.336  17.740  0.00  0.00    +0.000 OA
BRANCH  12  13
ATOM     13  C   UNL     1       2.398   3.110  18.333  0.00  0.00    +0.000 C 
ATOM     14  O   UNL     1       3.350   2.350  18.410  0.00  0.00    +0.000 OA
BRANCH  13  15
ATOM     15  C   UNL     1       1.026   2.815  18.903  0.00  0.00    +0.000 C 
BRANCH  15  17
ATOM     16  C   UNL     1       1.494   2.840  21.394  0.00  0.00    +0.000 C 
ATOM     17  C   UNL     1       0.815   3.541  20.228  0.00  0.00    +0.000 C 
ENDBRANCH  15  17
ENDBRANCH  13  15
ENDBRANCH  12  13
ENDBRANCH   1  12
BRANCH   1  18
ATOM     18  C   UNL     1       4.605   5.379  17.244  0.00  0.00    +0.000 C 
BRANCH  18  19
ATOM     19  N   UNL     1       5.817   5.977  17.773  0.00  0.00    +0.000 N 
ATOM     20  C   UNL     1       6.638   5.436  18.726  0.00  0.00    +0.000 A 
ATOM     21  C   UNL     1       7.772   6.214  18.700  0.00  0.00    +0.000 A 
ATOM     22  N   UNL     1       7.632   7.249  17.815  0.00  0.00    +0.000 NA
ATOM     23  C   UNL     1       6.437   7.094  17.290  0.00  0.00    +0.000 A 
ENDBRANCH  18  19
ENDBRANCH   1  18
TORSDOF 7
ENDMDL
MODEL 6
REMARK VINA RESULT:      -7.5      1.172      1.647
REMARK  Name = 
REMARK  8 active torsions:
REMARK  status: ('A' for Active; 'I' for Inactive)
REMARK    1  A    between atoms: C_1  and  C_2
REMARK    2  A    between atoms: C_2  and  C_3
REMARK    3  A    between atoms: C_3  and  C_4
REMARK    4  A    between atoms: C_4  and  O_6
REMARK    5  A    between atoms: O_6  and  C_7
REMARK    6  A    between atoms: C_7  and  C_8
REMARK    7  A    between atoms: C_7  and  C_14
REMARK    8  A    between atoms: C_8  and  N_9
REMARK                            x       y       z     vdW  Elec       q    Type
REMARK                         _______ _______ _______ _____ _____    ______ ____
ROOT
ATOM      1  C   UNL     1       4.414   4.898  19.196  0.00  0.00    +0.000 C 
ENDROOT
BRANCH   1   2
ATOM      2  C   UNL     1       3.532   6.134  19.033  0.00  0.00    +0.000 A 
ATOM      3  C   UNL     1       3.499   6.825  17.813  0.00  0.00    +0.000 A 
ATOM      4  C   UNL     1       2.708   7.965  17.649  0.00  0.00    +0.000 A 
ATOM      5  C   UNL     1       1.909   8.441  18.700  0.00  0.00    +0.000 A 
ATOM      6  C   UNL     1       1.133   9.604  18.566  0.00  0.00    +0.000 A 
ATOM      7  C   UNL     1       0.342  10.060  19.623  0.00  0.00    +0.000 A 
ATOM      8  C   UNL     1       0.313   9.356  20.823  0.00  0.00    +0.000 A 
ATOM      9  C   UNL     1       1.081   8.199  20.970  0.00  0.00    +0.000 A 
ATOM     10  C   UNL     1       1.888   7.739  19.916  0.00  0.00    +0.000 A 
ATOM     11  C   UNL     1       2.687   6.587  20.062  0.00  0.00    +0.000 A 
ENDBRANCH   1   2
BRANCH   1  12
ATOM     12  O   UNL     1       4.064   3.931  18.169  0.00  0.00    +0.000 OA
BRANCH  12  13
ATOM     13  C   UNL     1       3.662   2.707  18.612  0.00  0.00    +0.000 C 
ATOM     14  O   UNL     1       4.267   2.023  19.421  0.00  0.00    +0.000 OA
BRANCH  13  15
ATOM     15  C   UNL     1       2.347   2.309  17.976  0.00  0.00    +0.000 C 
BRANCH  15  17
ATOM     16  C   UNL     1       0.937   3.314  19.827  0.00  0.00    +0.000 C 
ATOM     17  C   UNL     1       1.242   3.296  18.337  0.00  0.00    +0.000 C 
ENDBRANCH  15  17
ENDBRANCH  13  15
ENDBRANCH  12  13
ENDBRANCH   1  12
BRANCH   1  18
ATOM     18  C   UNL     1       5.935   5.176  19.191  0.00  0.00    +0.000 C 
BRANCH  18  19
ATOM     19  N   UNL     1       6.555   5.257  17.881  0.00  0.00    +0.000 N 
ATOM     20  C   UNL     1       6.574   4.270  16.931  0.00  0.00    +0.000 A 
ATOM     21  C   UNL     1       7.020   4.888  15.787  0.00  0.00    +0.000 A 
ATOM     22  N   UNL     1       7.341   6.197  16.033  0.00  0.00    +0.000 NA
ATOM     23  C   UNL     1       7.073   6.382  17.306  0.00  0.00    +0.000 A 
ENDBRANCH  18  19
ENDBRANCH   1  18
TORSDOF 7
ENDMDL
MODEL 7
REMARK VINA RESULT:      -7.4      0.869      1.342
REMARK  Name = 
REMARK  8 active torsions:
REMARK  status: ('A' for Active; 'I' for Inactive)
REMARK    1  A    between atoms: C_1  and  C_2
REMARK    2  A    between atoms: C_2  and  C_3
REMARK    3  A    between atoms: C_3  and  C_4
REMARK    4  A    between atoms: C_4  and  O_6
REMARK    5  A    between atoms: O_6  and  C_7
REMARK    6  A    between atoms: C_7  and  C_8
REMARK    7  A    between atoms: C_7  and  C_14
REMARK    8  A    between atoms: C_8  and  N_9
REMARK                            x       y       z     vdW  Elec       q    Type
REMARK                         _______ _______ _______ _____ _____    ______ ____
ROOT
ATOM      1  C   UNL     1       3.750   5.816  18.554  0.00  0.00    +0.000 C 
ENDROOT
BRANCH   1   2
ATOM      2  C   UNL     1       2.843   7.018  18.811  0.00  0.00    +0.000 A 
ATOM      3  C   UNL     1       2.590   7.946  17.789  0.00  0.00    +0.000 A 
ATOM      4  C   UNL     1       1.773   9.058  18.009  0.00  0.00    +0.000 A 
ATOM      5  C   UNL     1       1.168   9.267  19.257  0.00  0.00    +0.000 A 
ATOM      6  C   UNL     1       0.370  10.396  19.508  0.00  0.00    +0.000 A 
ATOM      7  C   UNL     1      -0.226  10.585  20.757  0.00  0.00    +0.000 A 
ATOM      8  C   UNL     1      -0.038   9.645  21.766  0.00  0.00    +0.000 A 
ATOM      9  C   UNL     1       0.753   8.519  21.530  0.00  0.00    +0.000 A 
ATOM     10  C   UNL     1       1.366   8.327  20.281  0.00  0.00    +0.000 A 
ATOM     11  C   UNL     1       2.187   7.207  20.040  0.00  0.00    +0.000 A 
ENDBRANCH   1   2
BRANCH   1  12
ATOM     12  O   UNL     1       2.965   4.598  18.677  0.00  0.00    +0.000 OA
BRANCH  12  13
ATOM     13  C   UNL     1       3.382   3.712  19.624  0.00  0.00    +0.000 C 
ATOM     14  O   UNL     1       4.475   3.170  19.641  0.00  0.00    +0.000 OA
BRANCH  13  15
ATOM     15  C   UNL     1       2.309   3.498  20.671  0.00  0.00    +0.000 C 
BRANCH  15  17
ATOM     16  C   UNL     1       0.594   2.489  19.101  0.00  0.00    +0.000 C 
ATOM     17  C   UNL     1       0.916   3.622  20.063  0.00  0.00    +0.000 C 
ENDBRANCH  15  17
ENDBRANCH  13  15
ENDBRANCH  12  13
ENDBRANCH   1  12
BRANCH   1  18
ATOM     18  C   UNL     1       4.506   5.845  17.206  0.00  0.00    +0.000 C 
BRANCH  18  19
ATOM     19  N   UNL     1       5.901   5.448  17.259  0.00  0.00    +0.000 N 
ATOM     20  C   UNL     1       6.694   5.421  18.376  0.00  0.00    +0.000 A 
ATOM     21  C   UNL     1       7.822   4.733  17.992  0.00  0.00    +0.000 A 
ATOM     22  N   UNL     1       7.767   4.410  16.663  0.00  0.00    +0.000 NA
ATOM     23  C   UNL     1       6.612   4.873  16.243  0.00  0.00    +0.000 A 
ENDBRANCH  18  19
ENDBRANCH   1  18
TORSDOF 7
ENDMDL
MODEL 8
REMARK VINA RESULT:      -7.4      1.023      1.283
REMARK  Name = 
REMARK  8 active torsions:
REMARK  status: ('A' for Active; 'I' for Inactive)
REMARK    1  A    between atoms: C_1  and  C_2
REMARK    2  A    between atoms: C_2  and  C_3
REMARK    3  A    between atoms: C_3  and  C_4
REMARK    4  A    between atoms: C_4  and  O_6
REMARK    5  A    between atoms: O_6  and  C_7
REMARK    6  A    between atoms: C_7  and  C_8
REMARK    7  A    between atoms: C_7  and  C_14
REMARK    8  A    between atoms: C_8  and  N_9
REMARK                            x       y       z     vdW  Elec       q    Type
REMARK                         _______ _______ _______ _____ _____    ______ ____
ROOT
ATOM      1  C   UNL     1       4.063   5.214  18.553  0.00  0.00    +0.000 C 
ENDROOT
BRANCH   1   2
ATOM      2  C   UNL     1       3.218   6.479  18.692  0.00  0.00    +0.000 A 
ATOM      3  C   UNL     1       3.103   7.375  17.619  0.00  0.00    +0.000 A 
ATOM      4  C   UNL     1       2.345   8.544  17.732  0.00  0.00    +0.000 A 
ATOM      5  C   UNL     1       1.663   8.844  18.920  0.00  0.00    +0.000 A 
ATOM      6  C   UNL     1       0.923  10.030  19.064  0.00  0.00    +0.000 A 
ATOM      7  C   UNL     1       0.248  10.309  20.255  0.00  0.00    +0.000 A 
ATOM      8  C   UNL     1       0.299   9.405  21.311  0.00  0.00    +0.000 A 
ATOM      9  C   UNL     1       1.031   8.223  21.181  0.00  0.00    +0.000 A 
ATOM     10  C   UNL     1       1.723   7.939  19.992  0.00  0.00    +0.000 A 
ATOM     11  C   UNL     1       2.486   6.761  19.859  0.00  0.00    +0.000 A 
ENDBRANCH   1   2
BRANCH   1  12
ATOM     12  O   UNL     1       3.657   4.262  19.574  0.00  0.00    +0.000 OA
BRANCH  12  13
ATOM     13  C   UNL     1       3.181   3.068  19.122  0.00  0.00    +0.000 C 
ATOM     14  O   UNL     1       3.874   2.120  18.789  0.00  0.00    +0.000 OA
BRANCH  13  15
ATOM     15  C   UNL     1       1.667   3.064  19.099  0.00  0.00    +0.000 C 
BRANCH  15  17
ATOM     16  C   UNL     1       1.437   2.647  21.588  0.00  0.00    +0.000 C 
ATOM     17  C   UNL     1       1.097   3.563  20.422  0.00  0.00    +0.000 C 
ENDBRANCH  15  17
ENDBRANCH  13  15
ENDBRANCH  12  13
ENDBRANCH   1  12
BRANCH   1  18
ATOM     18  C   UNL     1       4.034   4.560  17.153  0.00  0.00    +0.000 C 
BRANCH  18  19
ATOM     19  N   UNL     1       5.313   4.479  16.470  0.00  0.00    +0.000 N 
ATOM     20  C   UNL     1       5.505   4.406  15.116  0.00  0.00    +0.000 A 
ATOM     21  C   UNL     1       6.852   4.621  14.938  0.00  0.00    +0.000 A 
ATOM     22  N   UNL     1       7.489   4.746  16.144  0.00  0.00    +0.000 NA
ATOM     23  C   UNL     1       6.542   4.633  17.047  0.00  0.00    +0.000 A 
ENDBRANCH  18  19
ENDBRANCH   1  18
TORSDOF 7
ENDMDL
MODEL 9
REMARK VINA RESULT:      -7.4      1.459      2.295
REMARK  Name = 
REMARK  8 active torsions:
REMARK  status: ('A' for Active; 'I' for Inactive)
REMARK    1  A    between atoms: C_1  and  C_2
REMARK    2  A    between atoms: C_2  and  C_3
REMARK    3  A    between atoms: C_3  and  C_4
REMARK    4  A    between atoms: C_4  and  O_6
REMARK    5  A    between atoms: O_6  and  C_7
REMARK    6  A    between atoms: C_7  and  C_8
REMARK    7  A    between atoms: C_7  and  C_14
REMARK    8  A    between atoms: C_8  and  N_9
REMARK                            x       y       z     vdW  Elec       q    Type
REMARK                         _______ _______ _______ _____ _____    ______ ____
ROOT
ATOM      1  C   UNL     1       3.336   5.066  18.345  0.00  0.00    +0.000 C 
ENDROOT
BRANCH   1   2
ATOM      2  C   UNL     1       2.647   6.289  18.947  0.00  0.00    +0.000 A 
ATOM      3  C   UNL     1       2.200   6.268  20.277  0.00  0.00    +0.000 A 
ATOM      4  C   UNL     1       1.556   7.373  20.840  0.00  0.00    +0.000 A 
ATOM      5  C   UNL     1       1.355   8.543  20.094  0.00  0.00    +0.000 A 
ATOM      6  C   UNL     1       0.680   9.652  20.631  0.00  0.00    +0.000 A 
ATOM      7  C   UNL     1       0.492  10.809  19.872  0.00  0.00    +0.000 A 
ATOM      8  C   UNL     1       0.981  10.874  18.571  0.00  0.00    +0.000 A 
ATOM      9  C   UNL     1       1.652   9.779  18.024  0.00  0.00    +0.000 A 
ATOM     10  C   UNL     1       1.836   8.606  18.776  0.00  0.00    +0.000 A 
ATOM     11  C   UNL     1       2.489   7.485  18.225  0.00  0.00    +0.000 A 
ENDBRANCH   1   2
BRANCH   1  12
ATOM     12  O   UNL     1       2.327   4.192  17.769  0.00  0.00    +0.000 OA
BRANCH  12  13
ATOM     13  C   UNL     1       2.339   2.900  18.198  0.00  0.00    +0.000 C 
ATOM     14  O   UNL     1       3.304   2.155  18.146  0.00  0.00    +0.000 OA
BRANCH  13  15
ATOM     15  C   UNL     1       0.993   2.508  18.769  0.00  0.00    +0.000 C 
BRANCH  15  17
ATOM     16  C   UNL     1       1.549   2.672  21.236  0.00  0.00    +0.000 C 
ATOM     17  C   UNL     1       0.724   3.228  20.086  0.00  0.00    +0.000 C 
ENDBRANCH  15  17
ENDBRANCH  13  15
ENDBRANCH  12  13
ENDBRANCH   1  12
BRANCH   1  18
ATOM     18  C   UNL     1       4.441   5.381  17.312  0.00  0.00    +0.000 C 
BRANCH  18  19
ATOM     19  N   UNL     1       5.688   5.885  17.858  0.00  0.00    +0.000 N 
ATOM     20  C   UNL     1       6.381   5.358  18.916  0.00  0.00    +0.000 A 
ATOM     21  C   UNL     1       7.603   5.988  18.887  0.00  0.00    +0.000 A 
ATOM     22  N   UNL     1       7.644   6.929  17.893  0.00  0.00    +0.000 NA
ATOM     23  C   UNL     1       6.470   6.861  17.307  0.00  0.00    +0.000 A 
ENDBRANCH  18  19
ENDBRANCH   1  18
TORSDOF 7
ENDMDL
