MODEL 1
REMARK VINA RESULT:      -7.4      0.000      0.000
REMARK  Name = 
REMARK  2 active torsions:
REMARK  status: ('A' for Active; 'I' for Inactive)
REMARK    1  A    between atoms: C_2  and  C_3
REMARK    2  A    between atoms: C_4  and  C_5
REMARK                            x       y       z     vdW  Elec       q    Type
REMARK                         _______ _______ _______ _____ _____    ______ ____
ROOT
ATOM      1  O   UNL     1       6.723   5.414  19.735  0.00  0.00    +0.000 OA
ATOM      2  C   UNL     1       5.758   4.939  19.134  0.00  0.00    +0.000 C 
ATOM      3  N   UNL     1       4.587   4.720  19.805  0.00  0.00    +0.000 N 
ATOM      4  C   UNL     1       3.425   4.053  19.394  0.00  0.00    +0.000 A 
ATOM      5  C   UNL     1       2.268   4.227  20.144  0.00  0.00    +0.000 A 
ATOM      6  C   UNL     1       1.090   3.608  19.722  0.00  0.00    +0.000 A 
ATOM      7  C   UNL     1       1.100   2.819  18.580  0.00  0.00    +0.000 A 
ATOM      8  C   UNL     1       2.297   2.671  17.913  0.00  0.00    +0.000 A 
ATOM      9  N   UNL     1       3.443   3.263  18.306  0.00  0.00    +0.000 NA
ATOM     10  H   UNL     1       4.599   5.094  20.742  0.00  0.00    +0.000 HD
ENDROOT
BRANCH   2  11
ATOM     11  C   UNL     1       5.813   4.714  17.669  0.00  0.00    +0.000 C 
ATOM     12  C   UNL     1       6.930   4.852  16.943  0.00  0.00    +0.000 C 
BRANCH  12  13
ATOM     13  C   UNL     1       6.856   4.651  15.536  0.00  0.00    +0.000 A 
ATOM     14  C   UNL     1       6.032   3.805  14.803  0.00  0.00    +0.000 A 
ATOM     15  C   UNL     1       6.352   3.960  13.431  0.00  0.00    +0.000 A 
ATOM     16  C   UNL     1       7.353   4.894  13.383  0.00  0.00    +0.000 A 
ATOM     17  O   UNL     1       7.664   5.312  14.630  0.00  0.00    +0.000 OA
ENDBRANCH  12  13
ENDBRANCH   2  11
TORSDOF 2
ENDMDL
MODEL 2
REMARK VINA RESULT:      -7.1      1.307      1.366
REMARK  Name = 
REMARK  2 active torsions:
REMARK  status: ('A' for Active; 'I' for Inactive)
REMARK    1  A    between atoms: C_2  and  C_3
REMARK    2  A    between atoms: C_4  and  C_5
REMARK                            x       y       z     vdW  Elec       q    Type
REMARK                         _______ _______ _______ _____ _____    ______ ____
ROOT
ATOM      1  O   UNL     1       8.061   5.369  19.300  0.00  0.00    +0.000 OA
ATOM      2  C   UNL     1       7.025   5.135  18.676  0.00  0.00    +0.000 C 
ATOM      3  N   UNL     1       5.815   5.371  19.268  0.00  0.00    +0.000 N 
ATOM      4  C   UNL     1       4.523   5.041  18.836  0.00  0.00    +0.000 A 
ATOM      5  C   UNL     1       3.445   5.654  19.464  0.00  0.00    +0.000 A 
ATOM      6  C   UNL     1       2.153   5.372  19.015  0.00  0.00    +0.000 A 
ATOM      7  C   UNL     1       1.969   4.474  17.972  0.00  0.00    +0.000 A 
ATOM      8  C   UNL     1       3.089   3.884  17.428  0.00  0.00    +0.000 A 
ATOM      9  N   UNL     1       4.344   4.146  17.848  0.00  0.00    +0.000 NA
ATOM     10  H   UNL     1       5.900   5.843  20.155  0.00  0.00    +0.000 HD
ENDROOT
BRANCH   2  11
ATOM     11  C   UNL     1       7.073   4.714  17.256  0.00  0.00    +0.000 C 
ATOM     12  C   UNL     1       6.836   5.546  16.232  0.00  0.00    +0.000 C 
BRANCH  12  13
ATOM     13  C   UNL     1       6.869   5.023  14.909  0.00  0.00    +0.000 A 
ATOM     14  C   UNL     1       6.086   4.032  14.327  0.00  0.00    +0.000 A 
ATOM     15  C   UNL     1       6.516   3.862  12.988  0.00  0.00    +0.000 A 
ATOM     16  C   UNL     1       7.539   4.756  12.806  0.00  0.00    +0.000 A 
ATOM     17  O   UNL     1       7.760   5.452  13.944  0.00  0.00    +0.000 OA
ENDBRANCH  12  13
ENDBRANCH   2  11
TORSDOF 2
ENDMDL
MODEL 3
REMARK VINA RESULT:      -6.9      2.123      2.364
REMARK  Name = 
REMARK  2 active torsions:
REMARK  status: ('A' for Active; 'I' for Inactive)
REMARK    1  A    between atoms: C_2  and  C_3
REMARK    2  A    between atoms: C_4  and  C_5
REMARK                            x       y       z     vdW  Elec       q    Type
REMARK                         _______ _______ _______ _____ _____    ______ ____
ROOT
ATOM      1  O   UNL     1       2.879   8.172  18.071  0.00  0.00    +0.000 OA
ATOM      2  C   UNL     1       3.005   6.966  18.288  0.00  0.00    +0.000 C 
ATOM      3  N   UNL     1       2.316   6.392  19.321  0.00  0.00    +0.000 N 
ATOM      4  C   UNL     1       2.413   5.102  19.860  0.00  0.00    +0.000 A 
ATOM      5  C   UNL     1       1.399   4.666  20.705  0.00  0.00    +0.000 A 
ATOM      6  C   UNL     1       1.455   3.367  21.213  0.00  0.00    +0.000 A 
ATOM      7  C   UNL     1       2.527   2.548  20.886  0.00  0.00    +0.000 A 
ATOM      8  C   UNL     1       3.508   3.069  20.070  0.00  0.00    +0.000 A 
ATOM      9  N   UNL     1       3.468   4.321  19.569  0.00  0.00    +0.000 NA
ATOM     10  H   UNL     1       1.657   7.025  19.750  0.00  0.00    +0.000 HD
ENDROOT
BRANCH   2  11
ATOM     11  C   UNL     1       3.796   6.109  17.374  0.00  0.00    +0.000 C 
ATOM     12  C   UNL     1       4.913   6.521  16.759  0.00  0.00    +0.000 C 
BRANCH  12  13
ATOM     13  C   UNL     1       5.570   5.626  15.869  0.00  0.00    +0.000 A 
ATOM     14  C   UNL     1       5.199   4.350  15.460  0.00  0.00    +0.000 A 
ATOM     15  C   UNL     1       6.194   3.865  14.576  0.00  0.00    +0.000 A 
ATOM     16  C   UNL     1       7.128   4.863  14.478  0.00  0.00    +0.000 A 
ATOM     17  O   UNL     1       6.769   5.916  15.245  0.00  0.00    +0.000 OA
ENDBRANCH  12  13
ENDBRANCH   2  11
TORSDOF 2
ENDMDL
MODEL 4
REMARK VINA RESULT:      -6.9      1.447      1.765
REMARK  Name = 
REMARK  2 active torsions:
REMARK  status: ('A' for Active; 'I' for Inactive)
REMARK    1  A    between atoms: C_2  and  C_3
REMARK    2  A    between atoms: C_4  and  C_5
REMARK                            x       y       z     vdW  Elec       q    Type
REMARK                         _______ _______ _______ _____ _____    ______ ____
ROOT
ATOM      1  O   UNL     1       7.967   4.907  18.570  0.00  0.00    +0.000 OA
ATOM      2  C   UNL     1       6.888   4.690  18.018  0.00  0.00    +0.000 C 
ATOM      3  N   UNL     1       5.724   4.927  18.697  0.00  0.00    +0.000 N 
ATOM      4  C   UNL     1       4.402   4.614  18.354  0.00  0.00    +0.000 A 
ATOM      5  C   UNL     1       3.377   5.226  19.065  0.00  0.00    +0.000 A 
ATOM      6  C   UNL     1       2.054   4.961  18.705  0.00  0.00    +0.000 A 
ATOM      7  C   UNL     1       1.788   4.081  17.665  0.00  0.00    +0.000 A 
ATOM      8  C   UNL     1       2.862   3.490  17.034  0.00  0.00    +0.000 A 
ATOM      9  N   UNL     1       4.145   3.736  17.368  0.00  0.00    +0.000 NA
ATOM     10  H   UNL     1       5.876   5.385  19.583  0.00  0.00    +0.000 HD
ENDROOT
BRANCH   2  11
ATOM     11  C   UNL     1       6.831   4.290  16.592  0.00  0.00    +0.000 C 
ATOM     12  C   UNL     1       7.031   5.144  15.579  0.00  0.00    +0.000 C 
BRANCH  12  13
ATOM     13  C   UNL     1       6.912   4.658  14.246  0.00  0.00    +0.000 A 
ATOM     14  C   UNL     1       7.591   5.045  13.097  0.00  0.00    +0.000 A 
ATOM     15  C   UNL     1       7.104   4.270  12.016  0.00  0.00    +0.000 A 
ATOM     16  C   UNL     1       6.151   3.441  12.549  0.00  0.00    +0.000 A 
ATOM     17  O   UNL     1       6.026   3.664  13.876  0.00  0.00    +0.000 OA
ENDBRANCH  12  13
ENDBRANCH   2  11
TORSDOF 2
ENDMDL
MODEL 5
REMARK VINA RESULT:      -6.8      2.094      2.933
REMARK  Name = 
REMARK  2 active torsions:
REMARK  status: ('A' for Active; 'I' for Inactive)
REMARK    1  A    between atoms: C_2  and  C_3
REMARK    2  A    between atoms: C_4  and  C_5
REMARK                            x       y       z     vdW  Elec       q    Type
REMARK                         _______ _______ _______ _____ _____    ______ ____
ROOT
ATOM      1  O   UNL     1       7.495   5.904  15.985  0.00  0.00    +0.000 OA
ATOM      2  C   UNL     1       6.371   5.403  16.028  0.00  0.00    +0.000 C 
ATOM      3  N   UNL     1       5.530   5.723  17.059  0.00  0.00    +0.000 N 
ATOM      4  C   UNL     1       4.290   5.173  17.412  0.00  0.00    +0.000 A 
ATOM      5  C   UNL     1       3.496   5.870  18.315  0.00  0.00    +0.000 A 
ATOM      6  C   UNL     1       2.238   5.361  18.643  0.00  0.00    +0.000 A 
ATOM      7  C   UNL     1       1.815   4.164  18.080  0.00  0.00    +0.000 A 
ATOM      8  C   UNL     1       2.677   3.519  17.220  0.00  0.00    +0.000 A 
ATOM      9  N   UNL     1       3.894   3.998  16.892  0.00  0.00    +0.000 NA
ATOM     10  H   UNL     1       5.893   6.460  17.644  0.00  0.00    +0.000 HD
ENDROOT
BRANCH   2  11
ATOM     11  C   UNL     1       5.875   4.553  14.919  0.00  0.00    +0.000 C 
ATOM     12  C   UNL     1       6.540   4.382  13.769  0.00  0.00    +0.000 C 
BRANCH  12  13
ATOM     13  C   UNL     1       5.949   3.576  12.755  0.00  0.00    +0.000 A 
ATOM     14  C   UNL     1       4.701   3.683  12.152  0.00  0.00    +0.000 A 
ATOM     15  C   UNL     1       4.576   2.632  11.210  0.00  0.00    +0.000 A 
ATOM     16  C   UNL     1       5.751   1.929  11.275  0.00  0.00    +0.000 A 
ATOM     17  O   UNL     1       6.576   2.480  12.193  0.00  0.00    +0.000 OA
ENDBRANCH  12  13
ENDBRANCH   2  11
TORSDOF 2
ENDMDL
MODEL 6
REMARK VINA RESULT:      -6.6      1.787      1.987
REMARK  Name = 
REMARK  2 active torsions:
REMARK  status: ('A' for Active; 'I' for Inactive)
REMARK    1  A    between atoms: C_2  and  C_3
REMARK    2  A    between atoms: C_4  and  C_5
REMARK                            x       y       z     vdW  Elec       q    Type
REMARK                         _______ _______ _______ _____ _____    ______ ____
ROOT
ATOM      1  O   UNL     1       6.286   7.409  17.047  0.00  0.00    +0.000 OA
ATOM      2  C   UNL     1       5.459   6.513  16.871  0.00  0.00    +0.000 C 
ATOM      3  N   UNL     1       4.470   6.319  17.796  0.00  0.00    +0.000 N 
ATOM      4  C   UNL     1       3.528   5.286  17.902  0.00  0.00    +0.000 A 
ATOM      5  C   UNL     1       2.442   5.473  18.749  0.00  0.00    +0.000 A 
ATOM      6  C   UNL     1       1.471   4.474  18.832  0.00  0.00    +0.000 A 
ATOM      7  C   UNL     1       1.617   3.310  18.089  0.00  0.00    +0.000 A 
ATOM      8  C   UNL     1       2.741   3.190  17.300  0.00  0.00    +0.000 A 
ATOM      9  N   UNL     1       3.688   4.146  17.207  0.00  0.00    +0.000 NA
ATOM     10  H   UNL     1       4.450   7.038  18.504  0.00  0.00    +0.000 HD
ENDROOT
BRANCH   2  11
ATOM     11  C   UNL     1       5.451   5.723  15.617  0.00  0.00    +0.000 C 
ATOM     12  C   UNL     1       6.551   5.174  15.085  0.00  0.00    +0.000 C 
BRANCH  12  13
ATOM     13  C   UNL     1       6.433   4.470  13.853  0.00  0.00    +0.000 A 
ATOM     14  C   UNL     1       5.437   3.602  13.420  0.00  0.00    +0.000 A 
ATOM     15  C   UNL     1       5.783   3.149  12.123  0.00  0.00    +0.000 A 
ATOM     16  C   UNL     1       6.971   3.760  11.817  0.00  0.00    +0.000 A 
ATOM     17  O   UNL     1       7.370   4.548  12.840  0.00  0.00    +0.000 OA
ENDBRANCH  12  13
ENDBRANCH   2  11
TORSDOF 2
ENDMDL
MODEL 7
REMARK VINA RESULT:      -6.6      2.428      5.921
REMARK  Name = 
REMARK  2 active torsions:
REMARK  status: ('A' for Active; 'I' for Inactive)
REMARK    1  A    between atoms: C_2  and  C_3
REMARK    2  A    between atoms: C_4  and  C_5
REMARK                            x       y       z     vdW  Elec       q    Type
REMARK                         _______ _______ _______ _____ _____    ______ ____
ROOT
ATOM      1  O   UNL     1       7.351   6.324  17.356  0.00  0.00    +0.000 OA
ATOM      2  C   UNL     1       6.861   5.526  16.556  0.00  0.00    +0.000 C 
ATOM      3  N   UNL     1       7.313   5.502  15.265  0.00  0.00    +0.000 N 
ATOM      4  C   UNL     1       6.815   4.814  14.150  0.00  0.00    +0.000 A 
ATOM      5  C   UNL     1       7.625   4.716  13.024  0.00  0.00    +0.000 A 
ATOM      6  C   UNL     1       7.164   3.994  11.922  0.00  0.00    +0.000 A 
ATOM      7  C   UNL     1       5.905   3.410  11.961  0.00  0.00    +0.000 A 
ATOM      8  C   UNL     1       5.152   3.584  13.103  0.00  0.00    +0.000 A 
ATOM      9  N   UNL     1       5.583   4.276  14.177  0.00  0.00    +0.000 NA
ATOM     10  H   UNL     1       8.119   6.092  15.123  0.00  0.00    +0.000 HD
ENDROOT
BRANCH   2  11
ATOM     11  C   UNL     1       5.875   4.512  17.002  0.00  0.00    +0.000 C 
ATOM     12  C   UNL     1       4.615   4.811  17.346  0.00  0.00    +0.000 C 
BRANCH  12  13
ATOM     13  C   UNL     1       3.767   3.762  17.800  0.00  0.00    +0.000 A 
ATOM     14  C   UNL     1       2.462   3.455  17.432  0.00  0.00    +0.000 A 
ATOM     15  C   UNL     1       2.049   2.324  18.179  0.00  0.00    +0.000 A 
ATOM     16  C   UNL     1       3.118   1.986  18.968  0.00  0.00    +0.000 A 
ATOM     17  O   UNL     1       4.146   2.836  18.753  0.00  0.00    +0.000 OA
ENDBRANCH  12  13
ENDBRANCH   2  11
TORSDOF 2
ENDMDL
MODEL 8
REMARK VINA RESULT:      -6.5      2.980      6.288
REMARK  Name = 
REMARK  2 active torsions:
REMARK  status: ('A' for Active; 'I' for Inactive)
REMARK    1  A    between atoms: C_2  and  C_3
REMARK    2  A    between atoms: C_4  and  C_5
REMARK                            x       y       z     vdW  Elec       q    Type
REMARK                         _______ _______ _______ _____ _____    ______ ____
ROOT
ATOM      1  O   UNL     1       1.977   8.450  17.840  0.00  0.00    +0.000 OA
ATOM      2  C   UNL     1       2.735   7.481  17.904  0.00  0.00    +0.000 C 
ATOM      3  N   UNL     1       4.031   7.612  17.488  0.00  0.00    +0.000 N 
ATOM      4  C   UNL     1       5.023   6.637  17.312  0.00  0.00    +0.000 A 
ATOM      5  C   UNL     1       6.340   7.058  17.172  0.00  0.00    +0.000 A 
ATOM      6  C   UNL     1       7.346   6.099  17.043  0.00  0.00    +0.000 A 
ATOM      7  C   UNL     1       7.012   4.751  17.036  0.00  0.00    +0.000 A 
ATOM      8  C   UNL     1       5.679   4.420  17.147  0.00  0.00    +0.000 A 
ATOM      9  N   UNL     1       4.695   5.333  17.273  0.00  0.00    +0.000 NA
ATOM     10  H   UNL     1       4.276   8.566  17.267  0.00  0.00    +0.000 HD
ENDROOT
BRANCH   2  11
ATOM     11  C   UNL     1       2.296   6.214  18.535  0.00  0.00    +0.000 C 
ATOM     12  C   UNL     1       2.416   5.962  19.845  0.00  0.00    +0.000 C 
BRANCH  12  13
ATOM     13  C   UNL     1       1.999   4.693  20.336  0.00  0.00    +0.000 A 
ATOM     14  C   UNL     1       1.185   3.736  19.740  0.00  0.00    +0.000 A 
ATOM     15  C   UNL     1       1.056   2.648  20.638  0.00  0.00    +0.000 A 
ATOM     16  C   UNL     1       1.798   2.983  21.741  0.00  0.00    +0.000 A 
ATOM     17  O   UNL     1       2.362   4.199  21.574  0.00  0.00    +0.000 OA
ENDBRANCH  12  13
ENDBRANCH   2  11
TORSDOF 2
ENDMDL
MODEL 9
REMARK VINA RESULT:      -6.4      1.988      5.710
REMARK  Name = 
REMARK  2 active torsions:
REMARK  status: ('A' for Active; 'I' for Inactive)
REMARK    1  A    between atoms: C_2  and  C_3
REMARK    2  A    between atoms: C_4  and  C_5
REMARK                            x       y       z     vdW  Elec       q    Type
REMARK                         _______ _______ _______ _____ _____    ______ ____
ROOT
ATOM      1  O   UNL     1       7.228   5.569  20.060  0.00  0.00    +0.000 OA
ATOM      2  C   UNL     1       6.595   5.158  19.086  0.00  0.00    +0.000 C 
ATOM      3  N   UNL     1       7.172   5.190  17.846  0.00  0.00    +0.000 N 
ATOM      4  C   UNL     1       6.612   4.937  16.587  0.00  0.00    +0.000 A 
ATOM      5  C   UNL     1       7.473   4.740  15.514  0.00  0.00    +0.000 A 
ATOM      6  C   UNL     1       6.934   4.441  14.261  0.00  0.00    +0.000 A 
ATOM      7  C   UNL     1       5.556   4.366  14.107  0.00  0.00    +0.000 A 
ATOM      8  C   UNL     1       4.772   4.609  15.215  0.00  0.00    +0.000 A 
ATOM      9  N   UNL     1       5.277   4.898  16.431  0.00  0.00    +0.000 NA
ATOM     10  H   UNL     1       8.146   5.454  17.876  0.00  0.00    +0.000 HD
ENDROOT
BRANCH   2  11
ATOM     11  C   UNL     1       5.267   4.521  19.257  0.00  0.00    +0.000 C 
ATOM     12  C   UNL     1       4.169   5.194  19.625  0.00  0.00    +0.000 C 
BRANCH  12  13
ATOM     13  C   UNL     1       2.955   4.473  19.798  0.00  0.00    +0.000 A 
ATOM     14  C   UNL     1       1.810   4.819  20.506  0.00  0.00    +0.000 A 
ATOM     15  C   UNL     1       0.880   3.758  20.387  0.00  0.00    +0.000 A 
ATOM     16  C   UNL     1       1.492   2.809  19.609  0.00  0.00    +0.000 A 
ATOM     17  O   UNL     1       2.729   3.222  19.254  0.00  0.00    +0.000 OA
ENDBRANCH  12  13
ENDBRANCH   2  11
TORSDOF 2
ENDMDL
