MODEL 1
REMARK VINA RESULT:      -8.0      0.000      0.000
REMARK  Name = 
REMARK  3 active torsions:
REMARK  status: ('A' for Active; 'I' for Inactive)
REMARK    1  A    between atoms: C_2  and  C_4
REMARK    2  A    between atoms: C_7  and  N_8
REMARK    3  A    between atoms: C_10  and  C_11
REMARK                            x       y       z     vdW  Elec       q    Type
REMARK                         _______ _______ _______ _____ _____    ______ ____
ROOT
ATOM      1  N   UNL     1       3.198   6.206  18.294  0.00  0.00    +0.000 N 
ATOM      2  N   UNL     1       4.433   6.372  17.737  0.00  0.00    +0.000 NA
ATOM      3  C   UNL     1       4.918   5.132  17.540  0.00  0.00    +0.000 A 
ATOM      4  C   UNL     1       3.925   4.165  17.817  0.00  0.00    +0.000 A 
ATOM      5  C   UNL     1       2.839   4.868  18.299  0.00  0.00    +0.000 A 
ATOM      6  C   UNL     1       1.500   4.267  18.577  0.00  0.00    +0.000 C 
ATOM      7  C   UNL     1       1.608   2.732  18.658  0.00  0.00    +0.000 C 
ATOM      8  C   UNL     1       2.495   2.145  17.551  0.00  0.00    +0.000 C 
ATOM      9  C   UNL     1       3.933   2.686  17.635  0.00  0.00    +0.000 C 
ENDROOT
BRANCH   1  13
ATOM     10  C   UNL     1       1.094   9.611  19.699  0.00  0.00    +0.000 A 
ATOM     11  C   UNL     1       1.368   8.520  20.545  0.00  0.00    +0.000 A 
ATOM     12  C   UNL     1       2.043   7.394  20.073  0.00  0.00    +0.000 A 
ATOM     13  C   UNL     1       2.474   7.344  18.742  0.00  0.00    +0.000 A 
ATOM     14  C   UNL     1       2.152   8.393  17.878  0.00  0.00    +0.000 A 
ATOM     15  C   UNL     1       1.476   9.521  18.357  0.00  0.00    +0.000 A 
BRANCH  10  17
ATOM     16  O   UNL     1       1.024  11.474  21.196  0.00  0.00    +0.000 OA
ATOM     17  C   UNL     1       0.458  10.849  20.248  0.00  0.00    +0.000 C 
ATOM     18  O   UNL     1      -0.738  11.103  19.876  0.00  0.00    +0.000 OA
ENDBRANCH  10  17
ENDBRANCH   1  13
BRANCH   3  19
ATOM     19  C   UNL     1       6.322   4.860  17.063  0.00  0.00    +0.000 C 
ATOM     20  F   UNL     1       6.395   3.989  16.019  0.00  0.00    +0.000 F 
ATOM     21  F   UNL     1       6.942   6.001  16.663  0.00  0.00    +0.000 F 
ATOM     22  F   UNL     1       7.096   4.336  18.056  0.00  0.00    +0.000 F 
ENDBRANCH   3  19
TORSDOF 3
ENDMDL
MODEL 2
REMARK VINA RESULT:      -8.0      0.450      1.127
REMARK  Name = 
REMARK  3 active torsions:
REMARK  status: ('A' for Active; 'I' for Inactive)
REMARK    1  A    between atoms: C_2  and  C_4
REMARK    2  A    between atoms: C_7  and  N_8
REMARK    3  A    between atoms: C_10  and  C_11
REMARK                            x       y       z     vdW  Elec       q    Type
REMARK                         _______ _______ _______ _____ _____    ______ ____
ROOT
ATOM      1  N   UNL     1       3.197   6.246  18.240  0.00  0.00    +0.000 N 
ATOM      2  N   UNL     1       4.436   6.401  17.689  0.00  0.00    +0.000 NA
ATOM      3  C   UNL     1       4.927   5.159  17.533  0.00  0.00    +0.000 A 
ATOM      4  C   UNL     1       3.936   4.195  17.830  0.00  0.00    +0.000 A 
ATOM      5  C   UNL     1       2.843   4.908  18.282  0.00  0.00    +0.000 A 
ATOM      6  C   UNL     1       1.504   4.309  18.566  0.00  0.00    +0.000 C 
ATOM      7  C   UNL     1       1.619   2.777  18.694  0.00  0.00    +0.000 C 
ATOM      8  C   UNL     1       2.517   2.162  17.612  0.00  0.00    +0.000 C 
ATOM      9  C   UNL     1       3.952   2.712  17.692  0.00  0.00    +0.000 C 
ENDROOT
BRANCH   1  13
ATOM     10  C   UNL     1       0.951   9.657  19.387  0.00  0.00    +0.000 A 
ATOM     11  C   UNL     1       1.451   9.518  18.079  0.00  0.00    +0.000 A 
ATOM     12  C   UNL     1       2.206   8.403  17.712  0.00  0.00    +0.000 A 
ATOM     13  C   UNL     1       2.463   7.393  18.648  0.00  0.00    +0.000 A 
ATOM     14  C   UNL     1       2.024   7.552  19.964  0.00  0.00    +0.000 A 
ATOM     15  C   UNL     1       1.267   8.671  20.327  0.00  0.00    +0.000 A 
BRANCH  10  17
ATOM     16  O   UNL     1      -0.394  10.914  20.914  0.00  0.00    +0.000 OA
ATOM     17  C   UNL     1       0.061  10.809  19.734  0.00  0.00    +0.000 C 
ATOM     18  O   UNL     1      -0.373  11.521  18.766  0.00  0.00    +0.000 OA
ENDBRANCH  10  17
ENDBRANCH   1  13
BRANCH   3  19
ATOM     19  C   UNL     1       6.337   4.878  17.077  0.00  0.00    +0.000 C 
ATOM     20  F   UNL     1       6.418   4.040  16.007  0.00  0.00    +0.000 F 
ATOM     21  F   UNL     1       6.983   6.022  16.725  0.00  0.00    +0.000 F 
ATOM     22  F   UNL     1       7.082   4.312  18.068  0.00  0.00    +0.000 F 
ENDBRANCH   3  19
TORSDOF 3
ENDMDL
MODEL 3
REMARK VINA RESULT:      -7.9      0.243      1.026
REMARK  Name = 
REMARK  3 active torsions:
REMARK  status: ('A' for Active; 'I' for Inactive)
REMARK    1  A    between atoms: C_2  and  C_4
REMARK    2  A    between atoms: C_7  and  N_8
REMARK    3  A    between atoms: C_10  and  C_11
REMARK                            x       y       z     vdW  Elec       q    Type
REMARK                         _______ _______ _______ _____ _____    ______ ____
ROOT
ATOM      1  N   UNL     1       3.162   6.226  18.275  0.00  0.00    +0.000 N 
ATOM      2  N   UNL     1       4.377   6.388  17.675  0.00  0.00    +0.000 NA
ATOM      3  C   UNL     1       4.863   5.148  17.488  0.00  0.00    +0.000 A 
ATOM      4  C   UNL     1       3.886   4.180  17.815  0.00  0.00    +0.000 A 
ATOM      5  C   UNL     1       2.812   4.887  18.318  0.00  0.00    +0.000 A 
ATOM      6  C   UNL     1       1.486   4.283  18.650  0.00  0.00    +0.000 C 
ATOM      7  C   UNL     1       1.607   2.750  18.758  0.00  0.00    +0.000 C 
ATOM      8  C   UNL     1       2.462   2.147  17.634  0.00  0.00    +0.000 C 
ATOM      9  C   UNL     1       3.898   2.698  17.662  0.00  0.00    +0.000 C 
ENDROOT
BRANCH   1  13
ATOM     10  C   UNL     1       1.081   9.645  19.679  0.00  0.00    +0.000 A 
ATOM     11  C   UNL     1       1.381   8.569  20.535  0.00  0.00    +0.000 A 
ATOM     12  C   UNL     1       2.048   7.438  20.064  0.00  0.00    +0.000 A 
ATOM     13  C   UNL     1       2.444   7.368  18.723  0.00  0.00    +0.000 A 
ATOM     14  C   UNL     1       2.097   8.402  17.851  0.00  0.00    +0.000 A 
ATOM     15  C   UNL     1       1.428   9.535  18.329  0.00  0.00    +0.000 A 
BRANCH  10  17
ATOM     16  O   UNL     1      -0.132  11.691  19.435  0.00  0.00    +0.000 OA
ATOM     17  C   UNL     1       0.454  10.890  20.224  0.00  0.00    +0.000 C 
ATOM     18  O   UNL     1       0.724  11.194  21.435  0.00  0.00    +0.000 OA
ENDBRANCH  10  17
ENDBRANCH   1  13
BRANCH   3  19
ATOM     19  C   UNL     1       6.254   4.874  16.972  0.00  0.00    +0.000 C 
ATOM     20  F   UNL     1       7.078   4.287  17.882  0.00  0.00    +0.000 F 
ATOM     21  F   UNL     1       6.230   4.058  15.885  0.00  0.00    +0.000 F 
ATOM     22  F   UNL     1       6.875   6.019  16.571  0.00  0.00    +0.000 F 
ENDBRANCH   3  19
TORSDOF 3
ENDMDL
MODEL 4
REMARK VINA RESULT:      -7.9      2.096      3.112
REMARK  Name = 
REMARK  3 active torsions:
REMARK  status: ('A' for Active; 'I' for Inactive)
REMARK    1  A    between atoms: C_2  and  C_4
REMARK    2  A    between atoms: C_7  and  N_8
REMARK    3  A    between atoms: C_10  and  C_11
REMARK                            x       y       z     vdW  Elec       q    Type
REMARK                         _______ _______ _______ _____ _____    ______ ____
ROOT
ATOM      1  N   UNL     1       2.796   5.963  18.477  0.00  0.00    +0.000 N 
ATOM      2  N   UNL     1       2.400   4.776  19.022  0.00  0.00    +0.000 NA
ATOM      3  C   UNL     1       3.016   3.819  18.305  0.00  0.00    +0.000 A 
ATOM      4  C   UNL     1       3.940   4.396  17.403  0.00  0.00    +0.000 A 
ATOM      5  C   UNL     1       3.781   5.762  17.525  0.00  0.00    +0.000 A 
ATOM      6  C   UNL     1       4.663   6.775  16.870  0.00  0.00    +0.000 C 
ATOM      7  C   UNL     1       5.480   6.123  15.738  0.00  0.00    +0.000 C 
ATOM      8  C   UNL     1       6.053   4.756  16.138  0.00  0.00    +0.000 C 
ATOM      9  C   UNL     1       4.936   3.760  16.495  0.00  0.00    +0.000 C 
ENDROOT
BRANCH   1  13
ATOM     10  C   UNL     1       1.114   9.581  19.918  0.00  0.00    +0.000 A 
ATOM     11  C   UNL     1       1.329   8.484  20.772  0.00  0.00    +0.000 A 
ATOM     12  C   UNL     1       1.864   7.289  20.289  0.00  0.00    +0.000 A 
ATOM     13  C   UNL     1       2.211   7.174  18.938  0.00  0.00    +0.000 A 
ATOM     14  C   UNL     1       1.944   8.235  18.070  0.00  0.00    +0.000 A 
ATOM     15  C   UNL     1       1.408   9.432  18.559  0.00  0.00    +0.000 A 
BRANCH  10  17
ATOM     16  O   UNL     1       0.785  11.133  21.708  0.00  0.00    +0.000 OA
ATOM     17  C   UNL     1       0.634  10.886  20.472  0.00  0.00    +0.000 C 
ATOM     18  O   UNL     1      -0.100  11.606  19.714  0.00  0.00    +0.000 OA
ENDBRANCH  10  17
ENDBRANCH   1  13
BRANCH   3  19
ATOM     19  C   UNL     1       2.748   2.346  18.489  0.00  0.00    +0.000 C 
ATOM     20  F   UNL     1       1.779   2.068  19.404  0.00  0.00    +0.000 F 
ATOM     21  F   UNL     1       2.363   1.761  17.324  0.00  0.00    +0.000 F 
ATOM     22  F   UNL     1       3.866   1.680  18.896  0.00  0.00    +0.000 F 
ENDBRANCH   3  19
TORSDOF 3
ENDMDL
MODEL 5
REMARK VINA RESULT:      -7.9      2.104      3.217
REMARK  Name = 
REMARK  3 active torsions:
REMARK  status: ('A' for Active; 'I' for Inactive)
REMARK    1  A    between atoms: C_2  and  C_4
REMARK    2  A    between atoms: C_7  and  N_8
REMARK    3  A    between atoms: C_10  and  C_11
REMARK                            x       y       z     vdW  Elec       q    Type
REMARK                         _______ _______ _______ _____ _____    ______ ____
ROOT
ATOM      1  N   UNL     1       2.796   5.976  18.450  0.00  0.00    +0.000 N 
ATOM      2  N   UNL     1       2.385   4.797  19.002  0.00  0.00    +0.000 NA
ATOM      3  C   UNL     1       3.004   3.829  18.303  0.00  0.00    +0.000 A 
ATOM      4  C   UNL     1       3.945   4.390  17.409  0.00  0.00    +0.000 A 
ATOM      5  C   UNL     1       3.794   5.758  17.515  0.00  0.00    +0.000 A 
ATOM      6  C   UNL     1       4.692   6.759  16.863  0.00  0.00    +0.000 C 
ATOM      7  C   UNL     1       5.521   6.090  15.750  0.00  0.00    +0.000 C 
ATOM      8  C   UNL     1       6.079   4.723  16.172  0.00  0.00    +0.000 C 
ATOM      9  C   UNL     1       4.950   3.738  16.523  0.00  0.00    +0.000 C 
ENDROOT
BRANCH   1  13
ATOM     10  C   UNL     1       1.119   9.621  19.829  0.00  0.00    +0.000 A 
ATOM     11  C   UNL     1       1.325   8.535  20.700  0.00  0.00    +0.000 A 
ATOM     12  C   UNL     1       1.858   7.331  20.238  0.00  0.00    +0.000 A 
ATOM     13  C   UNL     1       2.213   7.195  18.890  0.00  0.00    +0.000 A 
ATOM     14  C   UNL     1       1.956   8.245  18.006  0.00  0.00    +0.000 A 
ATOM     15  C   UNL     1       1.421   9.450  18.474  0.00  0.00    +0.000 A 
BRANCH  10  17
ATOM     16  O   UNL     1       0.009  11.726  19.597  0.00  0.00    +0.000 OA
ATOM     17  C   UNL     1       0.640  10.934  20.362  0.00  0.00    +0.000 C 
ATOM     18  O   UNL     1       1.075  11.290  21.509  0.00  0.00    +0.000 OA
ENDBRANCH  10  17
ENDBRANCH   1  13
BRANCH   3  19
ATOM     19  C   UNL     1       2.723   2.359  18.498  0.00  0.00    +0.000 C 
ATOM     20  F   UNL     1       3.793   1.644  18.944  0.00  0.00    +0.000 F 
ATOM     21  F   UNL     1       1.720   2.159  19.394  0.00  0.00    +0.000 F 
ATOM     22  F   UNL     1       2.320   1.767  17.339  0.00  0.00    +0.000 F 
ENDBRANCH   3  19
TORSDOF 3
ENDMDL
MODEL 6
REMARK VINA RESULT:      -7.9      2.109      3.345
REMARK  Name = 
REMARK  3 active torsions:
REMARK  status: ('A' for Active; 'I' for Inactive)
REMARK    1  A    between atoms: C_2  and  C_4
REMARK    2  A    between atoms: C_7  and  N_8
REMARK    3  A    between atoms: C_10  and  C_11
REMARK                            x       y       z     vdW  Elec       q    Type
REMARK                         _______ _______ _______ _____ _____    ______ ____
ROOT
ATOM      1  N   UNL     1       2.793   5.934  18.539  0.00  0.00    +0.000 N 
ATOM      2  N   UNL     1       2.384   4.739  19.057  0.00  0.00    +0.000 NA
ATOM      3  C   UNL     1       2.978   3.791  18.309  0.00  0.00    +0.000 A 
ATOM      4  C   UNL     1       3.902   4.377  17.413  0.00  0.00    +0.000 A 
ATOM      5  C   UNL     1       3.766   5.742  17.572  0.00  0.00    +0.000 A 
ATOM      6  C   UNL     1       4.657   6.758  16.935  0.00  0.00    +0.000 C 
ATOM      7  C   UNL     1       5.453   6.123  15.778  0.00  0.00    +0.000 C 
ATOM      8  C   UNL     1       6.008   4.737  16.136  0.00  0.00    +0.000 C 
ATOM      9  C   UNL     1       4.879   3.750  16.479  0.00  0.00    +0.000 C 
ENDROOT
BRANCH   1  13
ATOM     10  C   UNL     1       1.057   9.533  19.961  0.00  0.00    +0.000 A 
ATOM     11  C   UNL     1       1.434   9.386  18.613  0.00  0.00    +0.000 A 
ATOM     12  C   UNL     1       2.023   8.208  18.154  0.00  0.00    +0.000 A 
ATOM     13  C   UNL     1       2.232   7.141  19.037  0.00  0.00    +0.000 A 
ATOM     14  C   UNL     1       1.918   7.299  20.389  0.00  0.00    +0.000 A 
ATOM     15  C   UNL     1       1.327   8.483  20.843  0.00  0.00    +0.000 A 
BRANCH  10  17
ATOM     16  O   UNL     1      -0.522  11.302  19.647  0.00  0.00    +0.000 OA
ATOM     17  C   UNL     1       0.336  10.765  20.411  0.00  0.00    +0.000 C 
ATOM     18  O   UNL     1       0.775  11.343  21.463  0.00  0.00    +0.000 OA
ENDBRANCH  10  17
ENDBRANCH   1  13
BRANCH   3  19
ATOM     19  C   UNL     1       2.688   2.318  18.457  0.00  0.00    +0.000 C 
ATOM     20  F   UNL     1       1.692   2.035  19.341  0.00  0.00    +0.000 F 
ATOM     21  F   UNL     1       2.327   1.760  17.272  0.00  0.00    +0.000 F 
ATOM     22  F   UNL     1       3.787   1.631  18.881  0.00  0.00    +0.000 F 
ENDBRANCH   3  19
TORSDOF 3
ENDMDL
MODEL 7
REMARK VINA RESULT:      -7.9      0.651      1.592
REMARK  Name = 
REMARK  3 active torsions:
REMARK  status: ('A' for Active; 'I' for Inactive)
REMARK    1  A    between atoms: C_2  and  C_4
REMARK    2  A    between atoms: C_7  and  N_8
REMARK    3  A    between atoms: C_10  and  C_11
REMARK                            x       y       z     vdW  Elec       q    Type
REMARK                         _______ _______ _______ _____ _____    ______ ____
ROOT
ATOM      1  N   UNL     1       2.859   6.244  18.296  0.00  0.00    +0.000 N 
ATOM      2  N   UNL     1       3.856   6.419  17.380  0.00  0.00    +0.000 NA
ATOM      3  C   UNL     1       4.329   5.188  17.112  0.00  0.00    +0.000 A 
ATOM      4  C   UNL     1       3.523   4.205  17.731  0.00  0.00    +0.000 A 
ATOM      5  C   UNL     1       2.595   4.898  18.483  0.00  0.00    +0.000 A 
ATOM      6  C   UNL     1       1.440   4.266  19.188  0.00  0.00    +0.000 C 
ATOM      7  C   UNL     1       1.656   2.745  19.314  0.00  0.00    +0.000 C 
ATOM      8  C   UNL     1       2.198   2.118  18.022  0.00  0.00    +0.000 C 
ATOM      9  C   UNL     1       3.561   2.718  17.634  0.00  0.00    +0.000 C 
ENDROOT
BRANCH   1  13
ATOM     10  C   UNL     1       0.944   9.633  19.982  0.00  0.00    +0.000 A 
ATOM     11  C   UNL     1       1.263   9.580  18.612  0.00  0.00    +0.000 A 
ATOM     12  C   UNL     1       1.911   8.472  18.066  0.00  0.00    +0.000 A 
ATOM     13  C   UNL     1       2.240   7.382  18.882  0.00  0.00    +0.000 A 
ATOM     14  C   UNL     1       1.984   7.451  20.253  0.00  0.00    +0.000 A 
ATOM     15  C   UNL     1       1.333   8.565  20.795  0.00  0.00    +0.000 A 
BRANCH  10  17
ATOM     16  O   UNL     1      -0.805  11.259  19.858  0.00  0.00    +0.000 OA
ATOM     17  C   UNL     1       0.162  10.786  20.529  0.00  0.00    +0.000 C 
ATOM     18  O   UNL     1       0.640  11.378  21.555  0.00  0.00    +0.000 OA
ENDBRANCH  10  17
ENDBRANCH   1  13
BRANCH   3  19
ATOM     19  C   UNL     1       5.537   4.937  16.245  0.00  0.00    +0.000 C 
ATOM     20  F   UNL     1       6.502   4.185  16.841  0.00  0.00    +0.000 F 
ATOM     21  F   UNL     1       5.199   4.296  15.094  0.00  0.00    +0.000 F 
ATOM     22  F   UNL     1       6.135   6.103  15.868  0.00  0.00    +0.000 F 
ENDBRANCH   3  19
TORSDOF 3
ENDMDL
MODEL 8
REMARK VINA RESULT:      -7.6      1.013      1.700
REMARK  Name = 
REMARK  3 active torsions:
REMARK  status: ('A' for Active; 'I' for Inactive)
REMARK    1  A    between atoms: C_2  and  C_4
REMARK    2  A    between atoms: C_7  and  N_8
REMARK    3  A    between atoms: C_10  and  C_11
REMARK                            x       y       z     vdW  Elec       q    Type
REMARK                         _______ _______ _______ _____ _____    ______ ____
ROOT
ATOM      1  N   UNL     1       2.566   6.336  18.801  0.00  0.00    +0.000 N 
ATOM      2  N   UNL     1       3.502   6.450  17.814  0.00  0.00    +0.000 NA
ATOM      3  C   UNL     1       3.938   5.200  17.574  0.00  0.00    +0.000 A 
ATOM      4  C   UNL     1       3.161   4.260  18.290  0.00  0.00    +0.000 A 
ATOM      5  C   UNL     1       2.296   5.004  19.069  0.00  0.00    +0.000 A 
ATOM      6  C   UNL     1       1.181   4.426  19.878  0.00  0.00    +0.000 C 
ATOM      7  C   UNL     1       1.383   2.909  20.062  0.00  0.00    +0.000 C 
ATOM      8  C   UNL     1       1.829   2.213  18.768  0.00  0.00    +0.000 C 
ATOM      9  C   UNL     1       3.171   2.771  18.263  0.00  0.00    +0.000 C 
ENDROOT
BRANCH   1  13
ATOM     10  C   UNL     1       0.824   9.839  20.440  0.00  0.00    +0.000 A 
ATOM     11  C   UNL     1       1.180   9.767  19.080  0.00  0.00    +0.000 A 
ATOM     12  C   UNL     1       1.771   8.620  18.550  0.00  0.00    +0.000 A 
ATOM     13  C   UNL     1       2.004   7.510  19.371  0.00  0.00    +0.000 A 
ATOM     14  C   UNL     1       1.711   7.593  20.734  0.00  0.00    +0.000 A 
ATOM     15  C   UNL     1       1.118   8.746  21.261  0.00  0.00    +0.000 A 
BRANCH  10  17
ATOM     16  O   UNL     1       0.152  11.303  22.207  0.00  0.00    +0.000 OA
ATOM     17  C   UNL     1       0.101  11.038  20.967  0.00  0.00    +0.000 C 
ATOM     18  O   UNL     1      -0.712  11.623  20.173  0.00  0.00    +0.000 OA
ENDBRANCH  10  17
ENDBRANCH   1  13
BRANCH   3  19
ATOM     19  C   UNL     1       5.082   4.887  16.641  0.00  0.00    +0.000 C 
ATOM     20  F   UNL     1       5.667   5.988  16.093  0.00  0.00    +0.000 F 
ATOM     21  F   UNL     1       6.066   4.197  17.275  0.00  0.00    +0.000 F 
ATOM     22  F   UNL     1       4.680   4.105  15.600  0.00  0.00    +0.000 F 
ENDBRANCH   3  19
TORSDOF 3
ENDMDL
MODEL 9
REMARK VINA RESULT:      -7.5      1.300      1.969
REMARK  Name = 
REMARK  3 active torsions:
REMARK  status: ('A' for Active; 'I' for Inactive)
REMARK    1  A    between atoms: C_2  and  C_4
REMARK    2  A    between atoms: C_7  and  N_8
REMARK    3  A    between atoms: C_10  and  C_11
REMARK                            x       y       z     vdW  Elec       q    Type
REMARK                         _______ _______ _______ _____ _____    ______ ____
ROOT
ATOM      1  N   UNL     1       2.958   6.463  18.942  0.00  0.00    +0.000 N 
ATOM      2  N   UNL     1       3.917   6.367  17.975  0.00  0.00    +0.000 NA
ATOM      3  C   UNL     1       4.538   5.193  18.187  0.00  0.00    +0.000 A 
ATOM      4  C   UNL     1       3.868   4.455  19.190  0.00  0.00    +0.000 A 
ATOM      5  C   UNL     1       2.868   5.282  19.660  0.00  0.00    +0.000 A 
ATOM      6  C   UNL     1       1.808   4.860  20.624  0.00  0.00    +0.000 C 
ATOM      7  C   UNL     1       2.214   3.550  21.328  0.00  0.00    +0.000 C 
ATOM      8  C   UNL     1       2.819   2.524  20.359  0.00  0.00    +0.000 C 
ATOM      9  C   UNL     1       4.092   3.068  19.687  0.00  0.00    +0.000 C 
ENDROOT
BRANCH   1  13
ATOM     10  C   UNL     1       0.660  10.015  19.244  0.00  0.00    +0.000 A 
ATOM     11  C   UNL     1       1.230   9.616  18.021  0.00  0.00    +0.000 A 
ATOM     12  C   UNL     1       2.002   8.457  17.931  0.00  0.00    +0.000 A 
ATOM     13  C   UNL     1       2.206   7.662  19.066  0.00  0.00    +0.000 A 
ATOM     14  C   UNL     1       1.697   8.083  20.296  0.00  0.00    +0.000 A 
ATOM     15  C   UNL     1       0.923   9.246  20.381  0.00  0.00    +0.000 A 
BRANCH  10  17
ATOM     16  O   UNL     1      -1.222  11.286  18.493  0.00  0.00    +0.000 OA
ATOM     17  C   UNL     1      -0.245  11.205  19.300  0.00  0.00    +0.000 C 
ATOM     18  O   UNL     1       0.133  12.191  20.019  0.00  0.00    +0.000 OA
ENDBRANCH  10  17
ENDBRANCH   1  13
BRANCH   3  19
ATOM     19  C   UNL     1       5.760   4.753  17.420  0.00  0.00    +0.000 C 
ATOM     20  F   UNL     1       6.268   5.707  16.591  0.00  0.00    +0.000 F 
ATOM     21  F   UNL     1       6.768   4.388  18.256  0.00  0.00    +0.000 F 
ATOM     22  F   UNL     1       5.499   3.665  16.643  0.00  0.00    +0.000 F 
ENDBRANCH   3  19
TORSDOF 3
ENDMDL
