MODEL 1
REMARK VINA RESULT:      -9.0      0.000      0.000
REMARK  Name = 
REMARK  11 active torsions:
REMARK  status: ('A' for Active; 'I' for Inactive)
REMARK    1  A    between atoms: C_1  and  C_2
REMARK    2  A    between atoms: C_2  and  C_3
REMARK    3  A    between atoms: C_2  and  C_4
REMARK    4  A    between atoms: C_7  and  O_8
REMARK    5  A    between atoms: O_8  and  C_9
REMARK    6  A    between atoms: C_9  and  C_10
REMARK    7  A    between atoms: N_12  and  CA_13
REMARK    8  A    between atoms: CA_13  and  CB_14
REMARK    9  A    between atoms: CA_13  and  C_24
REMARK   10  A    between atoms: CB_14  and  CG_15
REMARK   11  A    between atoms: C_24  and  OXT_26
REMARK                            x       y       z     vdW  Elec       q    Type
REMARK                         _______ _______ _______ _____ _____    ______ ____
ROOT
ATOM      1  CA  TRP A   1       6.157   5.843  17.111  0.00  0.00    +0.000 C 
ENDROOT
BRANCH   1   4
ATOM      2  C   UNK A   0       7.750   7.491  18.100  0.00  0.00    +0.000 C 
ATOM      3  O   UNK A   0       8.226   6.656  18.864  0.00  0.00    +0.000 OA
ATOM      4  N   TRP A   1       6.672   7.200  17.286  0.00  0.00    +0.000 N 
ATOM      5  H   TRP A   1       6.538   7.818  16.468  0.00  0.00    +0.000 HD
BRANCH   2   6
ATOM      6  C   UNK A   0       8.271   8.927  17.981  0.00  0.00    +0.000 C 
BRANCH   6   7
ATOM      7  O   UNK A   0       8.967   9.285  19.165  0.00  0.00    +0.000 OA
BRANCH   7  11
ATOM      8  C   UNK A   0      10.516  13.187  18.975  0.00  0.00    +0.000 A 
ATOM      9  C   UNK A   0      10.250  12.408  17.841  0.00  0.00    +0.000 A 
ATOM     10  C   UNK A   0       9.749  11.115  17.948  0.00  0.00    +0.000 A 
ATOM     11  C   UNK A   0       9.502  10.545  19.201  0.00  0.00    +0.000 A 
ATOM     12  C   UNK A   0       9.764  11.304  20.335  0.00  0.00    +0.000 A 
ATOM     13  C   UNK A   0      10.262  12.619  20.228  0.00  0.00    +0.000 A 
BRANCH   8  15
ATOM     14  C   UNK A   0       9.830  15.480  18.253  0.00  0.00    +0.000 C 
ATOM     15  C   UNK A   0      10.983  14.623  18.787  0.00  0.00    +0.000 C 
ATOM     16  C   UNK A   0      11.593  15.275  20.030  0.00  0.00    +0.000 C 
ENDBRANCH   8  15
ENDBRANCH   7  11
ENDBRANCH   6   7
ENDBRANCH   2   6
ENDBRANCH   1   4
BRANCH   1  17
ATOM     17  C   TRP A   1       7.202   5.116  16.228  0.00  0.00    +0.000 C 
ATOM     18  O   TRP A   1       7.398   5.389  15.042  0.00  0.00    +0.000 OA
BRANCH  17  19
ATOM     19  OXT TRP A   1       7.900   4.144  16.859  0.00  0.00    +0.000 OA
ATOM     20  HXT TRP A   1       7.488   3.256  16.844  0.00  0.00    +0.000 HD
ENDBRANCH  17  19
ENDBRANCH   1  17
BRANCH   1  21
ATOM     21  CB  TRP A   1       4.685   5.796  16.573  0.00  0.00    +0.000 C 
BRANCH  21  22
ATOM     22  CG  TRP A   1       3.801   4.825  17.290  0.00  0.00    +0.000 A 
ATOM     23  CD1 TRP A   1       3.916   3.448  17.203  0.00  0.00    +0.000 A 
ATOM     24  NE1 TRP A   1       2.649   3.000  17.444  0.00  0.00    +0.000 N 
ATOM     25  CE2 TRP A   1       2.226   3.730  18.522  0.00  0.00    +0.000 A 
ATOM     26  CZ2 TRP A   1       1.313   3.396  19.516  0.00  0.00    +0.000 A 
ATOM     27  CH2 TRP A   1       1.155   4.319  20.542  0.00  0.00    +0.000 A 
ATOM     28  CZ3 TRP A   1       1.813   5.550  20.502  0.00  0.00    +0.000 A 
ATOM     29  CE3 TRP A   1       2.663   5.901  19.433  0.00  0.00    +0.000 A 
ATOM     30  CD2 TRP A   1       2.918   4.945  18.428  0.00  0.00    +0.000 A 
ATOM     31  HE1 TRP A   1       2.001   2.711  16.710  0.00  0.00    +0.000 HD
ENDBRANCH  21  22
ENDBRANCH   1  21
TORSDOF 9
ENDMDL
MODEL 2
REMARK VINA RESULT:      -8.9      1.144      1.727
REMARK  Name = 
REMARK  11 active torsions:
REMARK  status: ('A' for Active; 'I' for Inactive)
REMARK    1  A    between atoms: C_1  and  C_2
REMARK    2  A    between atoms: C_2  and  C_3
REMARK    3  A    between atoms: C_2  and  C_4
REMARK    4  A    between atoms: C_7  and  O_8
REMARK    5  A    between atoms: O_8  and  C_9
REMARK    6  A    between atoms: C_9  and  C_10
REMARK    7  A    between atoms: N_12  and  CA_13
REMARK    8  A    between atoms: CA_13  and  CB_14
REMARK    9  A    between atoms: CA_13  and  C_24
REMARK   10  A    between atoms: CB_14  and  CG_15
REMARK   11  A    between atoms: C_24  and  OXT_26
REMARK                            x       y       z     vdW  Elec       q    Type
REMARK                         _______ _______ _______ _____ _____    ______ ____
ROOT
ATOM      1  CA  TRP A   1       6.201   5.830  17.155  0.00  0.00    +0.000 C 
ENDROOT
BRANCH   1   4
ATOM      2  C   UNK A   0       7.713   7.639  17.975  0.00  0.00    +0.000 C 
ATOM      3  O   UNK A   0       8.232   6.902  18.809  0.00  0.00    +0.000 OA
ATOM      4  N   TRP A   1       6.647   7.221  17.200  0.00  0.00    +0.000 N 
ATOM      5  H   TRP A   1       6.480   7.753  16.330  0.00  0.00    +0.000 HD
BRANCH   2   6
ATOM      6  C   UNK A   0       8.161   9.082  17.720  0.00  0.00    +0.000 C 
BRANCH   6   7
ATOM      7  O   UNK A   0       8.919   9.551  18.825  0.00  0.00    +0.000 OA
BRANCH   7  11
ATOM      8  C   UNK A   0      10.481  13.417  18.302  0.00  0.00    +0.000 A 
ATOM      9  C   UNK A   0       9.249  13.007  17.776  0.00  0.00    +0.000 A 
ATOM     10  C   UNK A   0       8.773  11.713  17.962  0.00  0.00    +0.000 A 
ATOM     11  C   UNK A   0       9.521  10.771  18.677  0.00  0.00    +0.000 A 
ATOM     12  C   UNK A   0      10.746  11.163  19.201  0.00  0.00    +0.000 A 
ATOM     13  C   UNK A   0      11.225  12.478  19.023  0.00  0.00    +0.000 A 
BRANCH   8  15
ATOM     14  C   UNK A   0      12.286  14.938  17.478  0.00  0.00    +0.000 C 
ATOM     15  C   UNK A   0      10.904  14.870  18.135  0.00  0.00    +0.000 C 
ATOM     16  C   UNK A   0       9.913  15.750  17.370  0.00  0.00    +0.000 C 
ENDBRANCH   8  15
ENDBRANCH   7  11
ENDBRANCH   6   7
ENDBRANCH   2   6
ENDBRANCH   1   4
BRANCH   1  17
ATOM     17  C   TRP A   1       7.234   5.093  16.267  0.00  0.00    +0.000 C 
ATOM     18  O   TRP A   1       7.446   5.382  15.088  0.00  0.00    +0.000 OA
BRANCH  17  19
ATOM     19  OXT TRP A   1       7.903   4.093  16.886  0.00  0.00    +0.000 OA
ATOM     20  HXT TRP A   1       7.371   3.557  17.509  0.00  0.00    +0.000 HD
ENDBRANCH  17  19
ENDBRANCH   1  17
BRANCH   1  21
ATOM     21  CB  TRP A   1       4.706   5.666  16.710  0.00  0.00    +0.000 C 
BRANCH  21  22
ATOM     22  CG  TRP A   1       3.735   5.574  17.845  0.00  0.00    +0.000 A 
ATOM     23  CD1 TRP A   1       3.243   6.662  18.546  0.00  0.00    +0.000 A 
ATOM     24  NE1 TRP A   1       2.952   6.150  19.778  0.00  0.00    +0.000 N 
ATOM     25  CE2 TRP A   1       2.308   4.971  19.516  0.00  0.00    +0.000 A 
ATOM     26  CZ2 TRP A   1       1.348   4.301  20.266  0.00  0.00    +0.000 A 
ATOM     27  CH2 TRP A   1       0.805   3.158  19.692  0.00  0.00    +0.000 A 
ATOM     28  CZ3 TRP A   1       1.285   2.677  18.472  0.00  0.00    +0.000 A 
ATOM     29  CE3 TRP A   1       2.326   3.327  17.777  0.00  0.00    +0.000 A 
ATOM     30  CD2 TRP A   1       2.827   4.541  18.288  0.00  0.00    +0.000 A 
ATOM     31  HE1 TRP A   1       3.560   6.255  20.592  0.00  0.00    +0.000 HD
ENDBRANCH  21  22
ENDBRANCH   1  21
TORSDOF 9
ENDMDL
MODEL 3
REMARK VINA RESULT:      -8.9      1.013      1.703
REMARK  Name = 
REMARK  11 active torsions:
REMARK  status: ('A' for Active; 'I' for Inactive)
REMARK    1  A    between atoms: C_1  and  C_2
REMARK    2  A    between atoms: C_2  and  C_3
REMARK    3  A    between atoms: C_2  and  C_4
REMARK    4  A    between atoms: C_7  and  O_8
REMARK    5  A    between atoms: O_8  and  C_9
REMARK    6  A    between atoms: C_9  and  C_10
REMARK    7  A    between atoms: N_12  and  CA_13
REMARK    8  A    between atoms: CA_13  and  CB_14
REMARK    9  A    between atoms: CA_13  and  C_24
REMARK   10  A    between atoms: CB_14  and  CG_15
REMARK   11  A    between atoms: C_24  and  OXT_26
REMARK                            x       y       z     vdW  Elec       q    Type
REMARK                         _______ _______ _______ _____ _____    ______ ____
ROOT
ATOM      1  CA  TRP A   1       6.031   5.853  16.992  0.00  0.00    +0.000 C 
ENDROOT
BRANCH   1   4
ATOM      2  C   UNK A   0       7.642   7.465  18.009  0.00  0.00    +0.000 C 
ATOM      3  O   UNK A   0       8.099   6.615  18.768  0.00  0.00    +0.000 OA
ATOM      4  N   TRP A   1       6.565   7.199  17.185  0.00  0.00    +0.000 N 
ATOM      5  H   TRP A   1       6.447   7.828  16.372  0.00  0.00    +0.000 HD
BRANCH   2   6
ATOM      6  C   UNK A   0       8.186   8.894  17.908  0.00  0.00    +0.000 C 
BRANCH   6   7
ATOM      7  O   UNK A   0       8.957   9.196  19.062  0.00  0.00    +0.000 OA
BRANCH   7  11
ATOM      8  C   UNK A   0      10.167  13.220  19.158  0.00  0.00    +0.000 A 
ATOM      9  C   UNK A   0      10.024  12.487  17.973  0.00  0.00    +0.000 A 
ATOM     10  C   UNK A   0       9.632  11.152  17.985  0.00  0.00    +0.000 A 
ATOM     11  C   UNK A   0       9.378  10.492  19.192  0.00  0.00    +0.000 A 
ATOM     12  C   UNK A   0       9.519  11.205  20.376  0.00  0.00    +0.000 A 
ATOM     13  C   UNK A   0       9.905  12.562  20.365  0.00  0.00    +0.000 A 
BRANCH   8  15
ATOM     14  C   UNK A   0      11.184  15.155  20.371  0.00  0.00    +0.000 C 
ATOM     15  C   UNK A   0      10.515  14.698  19.070  0.00  0.00    +0.000 C 
ATOM     16  C   UNK A   0      11.378  15.091  17.868  0.00  0.00    +0.000 C 
ENDBRANCH   8  15
ENDBRANCH   7  11
ENDBRANCH   6   7
ENDBRANCH   2   6
ENDBRANCH   1   4
BRANCH   1  17
ATOM     17  C   TRP A   1       6.932   5.201  15.914  0.00  0.00    +0.000 C 
ATOM     18  O   TRP A   1       7.848   4.419  16.176  0.00  0.00    +0.000 OA
BRANCH  17  19
ATOM     19  OXT TRP A   1       6.638   5.553  14.641  0.00  0.00    +0.000 OA
ATOM     20  HXT TRP A   1       5.720   5.859  14.493  0.00  0.00    +0.000 HD
ENDBRANCH  17  19
ENDBRANCH   1  17
BRANCH   1  21
ATOM     21  CB  TRP A   1       4.494   5.828  16.676  0.00  0.00    +0.000 C 
BRANCH  21  22
ATOM     22  CG  TRP A   1       3.623   5.689  17.884  0.00  0.00    +0.000 A 
ATOM     23  CD1 TRP A   1       3.212   6.745  18.681  0.00  0.00    +0.000 A 
ATOM     24  NE1 TRP A   1       3.019   6.173  19.905  0.00  0.00    +0.000 N 
ATOM     25  CE2 TRP A   1       2.333   5.018  19.640  0.00  0.00    +0.000 A 
ATOM     26  CZ2 TRP A   1       1.429   4.321  20.434  0.00  0.00    +0.000 A 
ATOM     27  CH2 TRP A   1       0.819   3.218  19.851  0.00  0.00    +0.000 A 
ATOM     28  CZ3 TRP A   1       1.185   2.795  18.571  0.00  0.00    +0.000 A 
ATOM     29  CE3 TRP A   1       2.173   3.467  17.823  0.00  0.00    +0.000 A 
ATOM     30  CD2 TRP A   1       2.738   4.646  18.351  0.00  0.00    +0.000 A 
ATOM     31  HE1 TRP A   1       3.695   6.226  20.668  0.00  0.00    +0.000 HD
ENDBRANCH  21  22
ENDBRANCH   1  21
TORSDOF 9
ENDMDL
MODEL 4
REMARK VINA RESULT:      -8.9      1.372      1.785
REMARK  Name = 
REMARK  11 active torsions:
REMARK  status: ('A' for Active; 'I' for Inactive)
REMARK    1  A    between atoms: C_1  and  C_2
REMARK    2  A    between atoms: C_2  and  C_3
REMARK    3  A    between atoms: C_2  and  C_4
REMARK    4  A    between atoms: C_7  and  O_8
REMARK    5  A    between atoms: O_8  and  C_9
REMARK    6  A    between atoms: C_9  and  C_10
REMARK    7  A    between atoms: N_12  and  CA_13
REMARK    8  A    between atoms: CA_13  and  CB_14
REMARK    9  A    between atoms: CA_13  and  C_24
REMARK   10  A    between atoms: CB_14  and  CG_15
REMARK   11  A    between atoms: C_24  and  OXT_26
REMARK                            x       y       z     vdW  Elec       q    Type
REMARK                         _______ _______ _______ _____ _____    ______ ____
ROOT
ATOM      1  CA  TRP A   1       6.317   4.976  16.402  0.00  0.00    +0.000 C 
ENDROOT
BRANCH   1   4
ATOM      2  C   UNK A   0       7.407   6.879  17.593  0.00  0.00    +0.000 C 
ATOM      3  O   UNK A   0       7.889   6.141  18.447  0.00  0.00    +0.000 OA
ATOM      4  N   TRP A   1       6.547   6.402  16.622  0.00  0.00    +0.000 N 
ATOM      5  H   TRP A   1       6.443   6.989  15.777  0.00  0.00    +0.000 HD
BRANCH   2   6
ATOM      6  C   UNK A   0       7.677   8.386  17.523  0.00  0.00    +0.000 C 
BRANCH   6   7
ATOM      7  O   UNK A   0       8.583   8.759  18.550  0.00  0.00    +0.000 OA
BRANCH   7  11
ATOM      8  C   UNK A   0       9.611  12.791  19.147  0.00  0.00    +0.000 A 
ATOM      9  C   UNK A   0       9.805  11.795  20.114  0.00  0.00    +0.000 A 
ATOM     10  C   UNK A   0       9.440  10.473  19.881  0.00  0.00    +0.000 A 
ATOM     11  C   UNK A   0       8.853  10.096  18.668  0.00  0.00    +0.000 A 
ATOM     12  C   UNK A   0       8.651  11.073  17.701  0.00  0.00    +0.000 A 
ATOM     13  C   UNK A   0       9.031  12.412  17.932  0.00  0.00    +0.000 A 
BRANCH   8  15
ATOM     14  C   UNK A   0       8.925  15.165  19.520  0.00  0.00    +0.000 C 
ATOM     15  C   UNK A   0      10.111  14.199  19.433  0.00  0.00    +0.000 C 
ATOM     16  C   UNK A   0      10.994  14.335  20.676  0.00  0.00    +0.000 C 
ENDBRANCH   8  15
ENDBRANCH   7  11
ENDBRANCH   6   7
ENDBRANCH   2   6
ENDBRANCH   1   4
BRANCH   1  17
ATOM     17  C   TRP A   1       6.923   4.670  15.010  0.00  0.00    +0.000 C 
ATOM     18  O   TRP A   1       7.797   5.360  14.482  0.00  0.00    +0.000 OA
BRANCH  17  19
ATOM     19  OXT TRP A   1       6.421   3.571  14.402  0.00  0.00    +0.000 OA
ATOM     20  HXT TRP A   1       5.825   3.747  13.645  0.00  0.00    +0.000 HD
ENDBRANCH  17  19
ENDBRANCH   1  17
BRANCH   1  21
ATOM     21  CB  TRP A   1       4.819   4.548  16.582  0.00  0.00    +0.000 C 
BRANCH  21  22
ATOM     22  CG  TRP A   1       4.497   4.003  17.938  0.00  0.00    +0.000 A 
ATOM     23  CD1 TRP A   1       5.392   3.947  18.993  0.00  0.00    +0.000 A 
ATOM     24  NE1 TRP A   1       4.950   2.892  19.739  0.00  0.00    +0.000 N 
ATOM     25  CE2 TRP A   1       3.594   3.066  19.809  0.00  0.00    +0.000 A 
ATOM     26  CZ2 TRP A   1       2.700   2.675  20.800  0.00  0.00    +0.000 A 
ATOM     27  CH2 TRP A   1       1.381   3.078  20.634  0.00  0.00    +0.000 A 
ATOM     28  CZ3 TRP A   1       0.982   3.751  19.478  0.00  0.00    +0.000 A 
ATOM     29  CE3 TRP A   1       1.893   4.053  18.445  0.00  0.00    +0.000 A 
ATOM     30  CD2 TRP A   1       3.255   3.743  18.630  0.00  0.00    +0.000 A 
ATOM     31  HE1 TRP A   1       5.365   1.959  19.703  0.00  0.00    +0.000 HD
ENDBRANCH  21  22
ENDBRANCH   1  21
TORSDOF 9
ENDMDL
MODEL 5
REMARK VINA RESULT:      -8.9      1.059      1.886
REMARK  Name = 
REMARK  11 active torsions:
REMARK  status: ('A' for Active; 'I' for Inactive)
REMARK    1  A    between atoms: C_1  and  C_2
REMARK    2  A    between atoms: C_2  and  C_3
REMARK    3  A    between atoms: C_2  and  C_4
REMARK    4  A    between atoms: C_7  and  O_8
REMARK    5  A    between atoms: O_8  and  C_9
REMARK    6  A    between atoms: C_9  and  C_10
REMARK    7  A    between atoms: N_12  and  CA_13
REMARK    8  A    between atoms: CA_13  and  CB_14
REMARK    9  A    between atoms: CA_13  and  C_24
REMARK   10  A    between atoms: CB_14  and  CG_15
REMARK   11  A    between atoms: C_24  and  OXT_26
REMARK                            x       y       z     vdW  Elec       q    Type
REMARK                         _______ _______ _______ _____ _____    ______ ____
ROOT
ATOM      1  CA  TRP A   1       6.059   5.853  16.979  0.00  0.00    +0.000 C 
ENDROOT
BRANCH   1   4
ATOM      2  C   UNK A   0       7.638   7.488  18.011  0.00  0.00    +0.000 C 
ATOM      3  O   UNK A   0       8.056   6.660  18.816  0.00  0.00    +0.000 OA
ATOM      4  N   TRP A   1       6.595   7.202  17.151  0.00  0.00    +0.000 N 
ATOM      5  H   TRP A   1       6.516   7.804  16.313  0.00  0.00    +0.000 HD
BRANCH   2   6
ATOM      6  C   UNK A   0       8.197   8.909  17.887  0.00  0.00    +0.000 C 
BRANCH   6   7
ATOM      7  O   UNK A   0       9.054   9.185  18.985  0.00  0.00    +0.000 OA
BRANCH   7  11
ATOM      8  C   UNK A   0      10.334  13.115  19.744  0.00  0.00    +0.000 A 
ATOM      9  C   UNK A   0       9.867  12.251  20.743  0.00  0.00    +0.000 A 
ATOM     10  C   UNK A   0       9.441  10.961  20.448  0.00  0.00    +0.000 A 
ATOM     11  C   UNK A   0       9.456  10.485  19.132  0.00  0.00    +0.000 A 
ATOM     12  C   UNK A   0       9.914  11.332  18.130  0.00  0.00    +0.000 A 
ATOM     13  C   UNK A   0      10.357  12.637  18.430  0.00  0.00    +0.000 A 
BRANCH   8  15
ATOM     14  C   UNK A   0      10.513  15.516  19.070  0.00  0.00    +0.000 C 
ATOM     15  C   UNK A   0      10.866  14.484  20.146  0.00  0.00    +0.000 C 
ATOM     16  C   UNK A   0      10.409  14.979  21.520  0.00  0.00    +0.000 C 
ENDBRANCH   8  15
ENDBRANCH   7  11
ENDBRANCH   6   7
ENDBRANCH   2   6
ENDBRANCH   1   4
BRANCH   1  17
ATOM     17  C   TRP A   1       6.968   5.178  15.922  0.00  0.00    +0.000 C 
ATOM     18  O   TRP A   1       7.795   4.307  16.193  0.00  0.00    +0.000 OA
BRANCH  17  19
ATOM     19  OXT TRP A   1       6.785   5.617  14.655  0.00  0.00    +0.000 OA
ATOM     20  HXT TRP A   1       6.645   4.915  13.986  0.00  0.00    +0.000 HD
ENDBRANCH  17  19
ENDBRANCH   1  17
BRANCH   1  21
ATOM     21  CB  TRP A   1       4.525   5.826  16.651  0.00  0.00    +0.000 C 
BRANCH  21  22
ATOM     22  CG  TRP A   1       3.645   5.679  17.852  0.00  0.00    +0.000 A 
ATOM     23  CD1 TRP A   1       3.208   6.732  18.638  0.00  0.00    +0.000 A 
ATOM     24  NE1 TRP A   1       3.013   6.164  19.864  0.00  0.00    +0.000 N 
ATOM     25  CE2 TRP A   1       2.350   4.996  19.599  0.00  0.00    +0.000 A 
ATOM     26  CZ2 TRP A   1       1.451   4.288  20.389  0.00  0.00    +0.000 A 
ATOM     27  CH2 TRP A   1       0.865   3.171  19.807  0.00  0.00    +0.000 A 
ATOM     28  CZ3 TRP A   1       1.251   2.747  18.533  0.00  0.00    +0.000 A 
ATOM     29  CE3 TRP A   1       2.234   3.432  17.791  0.00  0.00    +0.000 A 
ATOM     30  CD2 TRP A   1       2.773   4.623  18.317  0.00  0.00    +0.000 A 
ATOM     31  HE1 TRP A   1       3.681   6.234  20.633  0.00  0.00    +0.000 HD
ENDBRANCH  21  22
ENDBRANCH   1  21
TORSDOF 9
ENDMDL
MODEL 6
REMARK VINA RESULT:      -8.4      5.441      7.761
REMARK  Name = 
REMARK  11 active torsions:
REMARK  status: ('A' for Active; 'I' for Inactive)
REMARK    1  A    between atoms: C_1  and  C_2
REMARK    2  A    between atoms: C_2  and  C_3
REMARK    3  A    between atoms: C_2  and  C_4
REMARK    4  A    between atoms: C_7  and  O_8
REMARK    5  A    between atoms: O_8  and  C_9
REMARK    6  A    between atoms: C_9  and  C_10
REMARK    7  A    between atoms: N_12  and  CA_13
REMARK    8  A    between atoms: CA_13  and  CB_14
REMARK    9  A    between atoms: CA_13  and  C_24
REMARK   10  A    between atoms: CB_14  and  CG_15
REMARK   11  A    between atoms: C_24  and  OXT_26
REMARK                            x       y       z     vdW  Elec       q    Type
REMARK                         _______ _______ _______ _____ _____    ______ ____
ROOT
ATOM      1  CA  TRP A   1       4.577   3.107  19.670  0.00  0.00    +0.000 C 
ENDROOT
BRANCH   1   4
ATOM      2  C   UNK A   0       6.444   4.491  18.761  0.00  0.00    +0.000 C 
ATOM      3  O   UNK A   0       6.467   5.212  19.755  0.00  0.00    +0.000 OA
ATOM      4  N   TRP A   1       5.486   3.508  18.599  0.00  0.00    +0.000 N 
ATOM      5  H   TRP A   1       5.714   2.757  17.926  0.00  0.00    +0.000 HD
BRANCH   2   6
ATOM      6  C   UNK A   0       7.436   4.614  17.600  0.00  0.00    +0.000 C 
BRANCH   6   7
ATOM      7  O   UNK A   0       6.946   5.543  16.646  0.00  0.00    +0.000 OA
BRANCH   7  11
ATOM      8  C   UNK A   0       5.784   3.876  12.967  0.00  0.00    +0.000 A 
ATOM      9  C   UNK A   0       7.075   4.356  13.221  0.00  0.00    +0.000 A 
ATOM     10  C   UNK A   0       7.416   4.912  14.449  0.00  0.00    +0.000 A 
ATOM     11  C   UNK A   0       6.470   5.019  15.474  0.00  0.00    +0.000 A 
ATOM     12  C   UNK A   0       5.184   4.550  15.236  0.00  0.00    +0.000 A 
ATOM     13  C   UNK A   0       4.839   3.976  13.994  0.00  0.00    +0.000 A 
BRANCH   8  15
ATOM     14  C   UNK A   0       6.110   1.797  11.618  0.00  0.00    +0.000 C 
ATOM     15  C   UNK A   0       5.500   3.202  11.632  0.00  0.00    +0.000 C 
ATOM     16  C   UNK A   0       4.022   3.139  11.238  0.00  0.00    +0.000 C 
ENDBRANCH   8  15
ENDBRANCH   7  11
ENDBRANCH   6   7
ENDBRANCH   2   6
ENDBRANCH   1   4
BRANCH   1  17
ATOM     17  C   TRP A   1       4.902   1.619  19.953  0.00  0.00    +0.000 C 
ATOM     18  O   TRP A   1       5.444   1.225  20.987  0.00  0.00    +0.000 OA
BRANCH  17  19
ATOM     19  OXT TRP A   1       4.541   0.763  18.969  0.00  0.00    +0.000 OA
ATOM     20  HXT TRP A   1       4.029   1.161  18.235  0.00  0.00    +0.000 HD
ENDBRANCH  17  19
ENDBRANCH   1  17
BRANCH   1  21
ATOM     21  CB  TRP A   1       3.070   3.409  19.359  0.00  0.00    +0.000 C 
BRANCH  21  22
ATOM     22  CG  TRP A   1       2.650   4.812  19.666  0.00  0.00    +0.000 A 
ATOM     23  CD1 TRP A   1       2.437   5.306  20.942  0.00  0.00    +0.000 A 
ATOM     24  NE1 TRP A   1       1.526   6.305  20.757  0.00  0.00    +0.000 N 
ATOM     25  CE2 TRP A   1       1.989   6.994  19.668  0.00  0.00    +0.000 A 
ATOM     26  CZ2 TRP A   1       1.831   8.334  19.333  0.00  0.00    +0.000 A 
ATOM     27  CH2 TRP A   1       2.502   8.769  18.197  0.00  0.00    +0.000 A 
ATOM     28  CZ3 TRP A   1       3.207   7.868  17.397  0.00  0.00    +0.000 A 
ATOM     29  CE3 TRP A   1       3.274   6.494  17.710  0.00  0.00    +0.000 A 
ATOM     30  CD2 TRP A   1       2.685   6.043  18.909  0.00  0.00    +0.000 A 
ATOM     31  HE1 TRP A   1       0.526   6.200  20.933  0.00  0.00    +0.000 HD
ENDBRANCH  21  22
ENDBRANCH   1  21
TORSDOF 9
ENDMDL
MODEL 7
REMARK VINA RESULT:      -8.4      1.054      1.496
REMARK  Name = 
REMARK  11 active torsions:
REMARK  status: ('A' for Active; 'I' for Inactive)
REMARK    1  A    between atoms: C_1  and  C_2
REMARK    2  A    between atoms: C_2  and  C_3
REMARK    3  A    between atoms: C_2  and  C_4
REMARK    4  A    between atoms: C_7  and  O_8
REMARK    5  A    between atoms: O_8  and  C_9
REMARK    6  A    between atoms: C_9  and  C_10
REMARK    7  A    between atoms: N_12  and  CA_13
REMARK    8  A    between atoms: CA_13  and  CB_14
REMARK    9  A    between atoms: CA_13  and  C_24
REMARK   10  A    between atoms: CB_14  and  CG_15
REMARK   11  A    between atoms: C_24  and  OXT_26
REMARK                            x       y       z     vdW  Elec       q    Type
REMARK                         _______ _______ _______ _____ _____    ______ ____
ROOT
ATOM      1  CA  TRP A   1       6.116   5.064  16.699  0.00  0.00    +0.000 C 
ENDROOT
BRANCH   1   4
ATOM      2  C   UNK A   0       7.515   6.213  18.417  0.00  0.00    +0.000 C 
ATOM      3  O   UNK A   0       7.413   5.278  19.206  0.00  0.00    +0.000 OA
ATOM      4  N   TRP A   1       6.830   6.229  17.216  0.00  0.00    +0.000 N 
ATOM      5  H   TRP A   1       7.201   6.863  16.488  0.00  0.00    +0.000 HD
BRANCH   2   6
ATOM      6  C   UNK A   0       8.376   7.454  18.678  0.00  0.00    +0.000 C 
BRANCH   6   7
ATOM      7  O   UNK A   0       7.895   8.543  17.904  0.00  0.00    +0.000 OA
BRANCH   7  11
ATOM      8  C   UNK A   0       9.732  12.174  18.952  0.00  0.00    +0.000 A 
ATOM      9  C   UNK A   0       9.941  10.976  19.648  0.00  0.00    +0.000 A 
ATOM     10  C   UNK A   0       9.304   9.798  19.276  0.00  0.00    +0.000 A 
ATOM     11  C   UNK A   0       8.419   9.774  18.192  0.00  0.00    +0.000 A 
ATOM     12  C   UNK A   0       8.199  10.955  17.494  0.00  0.00    +0.000 A 
ATOM     13  C   UNK A   0       8.854  12.149  17.864  0.00  0.00    +0.000 A 
BRANCH   8  15
ATOM     14  C   UNK A   0      10.691  14.341  18.154  0.00  0.00    +0.000 C 
ATOM     15  C   UNK A   0      10.526  13.408  19.358  0.00  0.00    +0.000 C 
ATOM     16  C   UNK A   0       9.957  14.182  20.550  0.00  0.00    +0.000 C 
ENDBRANCH   8  15
ENDBRANCH   7  11
ENDBRANCH   6   7
ENDBRANCH   2   6
ENDBRANCH   1   4
BRANCH   1  17
ATOM     17  C   TRP A   1       6.839   4.688  15.382  0.00  0.00    +0.000 C 
ATOM     18  O   TRP A   1       7.747   5.359  14.888  0.00  0.00    +0.000 OA
BRANCH  17  19
ATOM     19  OXT TRP A   1       6.401   3.547  14.800  0.00  0.00    +0.000 OA
ATOM     20  HXT TRP A   1       6.595   2.725  15.294  0.00  0.00    +0.000 HD
ENDBRANCH  17  19
ENDBRANCH   1  17
BRANCH   1  21
ATOM     21  CB  TRP A   1       4.569   5.286  16.567  0.00  0.00    +0.000 C 
BRANCH  21  22
ATOM     22  CG  TRP A   1       3.743   4.330  17.368  0.00  0.00    +0.000 A 
ATOM     23  CD1 TRP A   1       3.946   2.960  17.407  0.00  0.00    +0.000 A 
ATOM     24  NE1 TRP A   1       2.708   2.456  17.685  0.00  0.00    +0.000 N 
ATOM     25  CE2 TRP A   1       2.230   3.253  18.690  0.00  0.00    +0.000 A 
ATOM     26  CZ2 TRP A   1       1.332   2.954  19.709  0.00  0.00    +0.000 A 
ATOM     27  CH2 TRP A   1       1.107   3.954  20.646  0.00  0.00    +0.000 A 
ATOM     28  CZ3 TRP A   1       1.686   5.216  20.494  0.00  0.00    +0.000 A 
ATOM     29  CE3 TRP A   1       2.521   5.521  19.400  0.00  0.00    +0.000 A 
ATOM     30  CD2 TRP A   1       2.844   4.496  18.488  0.00  0.00    +0.000 A 
ATOM     31  HE1 TRP A   1       2.085   2.061  16.978  0.00  0.00    +0.000 HD
ENDBRANCH  21  22
ENDBRANCH   1  21
TORSDOF 9
ENDMDL
MODEL 8
REMARK VINA RESULT:      -8.3      1.440      2.150
REMARK  Name = 
REMARK  11 active torsions:
REMARK  status: ('A' for Active; 'I' for Inactive)
REMARK    1  A    between atoms: C_1  and  C_2
REMARK    2  A    between atoms: C_2  and  C_3
REMARK    3  A    between atoms: C_2  and  C_4
REMARK    4  A    between atoms: C_7  and  O_8
REMARK    5  A    between atoms: O_8  and  C_9
REMARK    6  A    between atoms: C_9  and  C_10
REMARK    7  A    between atoms: N_12  and  CA_13
REMARK    8  A    between atoms: CA_13  and  CB_14
REMARK    9  A    between atoms: CA_13  and  C_24
REMARK   10  A    between atoms: CB_14  and  CG_15
REMARK   11  A    between atoms: C_24  and  OXT_26
REMARK                            x       y       z     vdW  Elec       q    Type
REMARK                         _______ _______ _______ _____ _____    ______ ____
ROOT
ATOM      1  CA  TRP A   1       5.838   5.278  16.826  0.00  0.00    +0.000 C 
ENDROOT
BRANCH   1   4
ATOM      2  C   UNK A   0       7.431   6.285  18.463  0.00  0.00    +0.000 C 
ATOM      3  O   UNK A   0       7.339   5.327  19.225  0.00  0.00    +0.000 OA
ATOM      4  N   TRP A   1       6.655   6.383  17.323  0.00  0.00    +0.000 N 
ATOM      5  H   TRP A   1       7.002   7.024  16.589  0.00  0.00    +0.000 HD
BRANCH   2   6
ATOM      6  C   UNK A   0       8.377   7.468  18.696  0.00  0.00    +0.000 C 
BRANCH   6   7
ATOM      7  O   UNK A   0       7.985   8.563  17.881  0.00  0.00    +0.000 OA
BRANCH   7  11
ATOM      8  C   UNK A   0       9.697  12.186  19.148  0.00  0.00    +0.000 A 
ATOM      9  C   UNK A   0       9.879  10.971  19.821  0.00  0.00    +0.000 A 
ATOM     10  C   UNK A   0       9.285   9.795  19.376  0.00  0.00    +0.000 A 
ATOM     11  C   UNK A   0       8.472   9.792  18.237  0.00  0.00    +0.000 A 
ATOM     12  C   UNK A   0       8.279  10.990  17.561  0.00  0.00    +0.000 A 
ATOM     13  C   UNK A   0       8.890  12.181  18.006  0.00  0.00    +0.000 A 
BRANCH   8  15
ATOM     14  C   UNK A   0      10.027  13.741  21.077  0.00  0.00    +0.000 C 
ATOM     15  C   UNK A   0      10.444  13.418  19.639  0.00  0.00    +0.000 C 
ATOM     16  C   UNK A   0      11.969  13.334  19.540  0.00  0.00    +0.000 C 
ENDBRANCH   8  15
ENDBRANCH   7  11
ENDBRANCH   6   7
ENDBRANCH   2   6
ENDBRANCH   1   4
BRANCH   1  17
ATOM     17  C   TRP A   1       6.511   4.829  15.505  0.00  0.00    +0.000 C 
ATOM     18  O   TRP A   1       7.729   4.853  15.320  0.00  0.00    +0.000 OA
BRANCH  17  19
ATOM     19  OXT TRP A   1       5.655   4.397  14.551  0.00  0.00    +0.000 OA
ATOM     20  HXT TRP A   1       4.728   4.278  14.843  0.00  0.00    +0.000 HD
ENDBRANCH  17  19
ENDBRANCH   1  17
BRANCH   1  21
ATOM     21  CB  TRP A   1       4.314   5.630  16.708  0.00  0.00    +0.000 C 
BRANCH  21  22
ATOM     22  CG  TRP A   1       3.554   5.495  17.990  0.00  0.00    +0.000 A 
ATOM     23  CD1 TRP A   1       3.297   6.539  18.863  0.00  0.00    +0.000 A 
ATOM     24  NE1 TRP A   1       3.181   5.926  20.077  0.00  0.00    +0.000 N 
ATOM     25  CE2 TRP A   1       2.392   4.834  19.836  0.00  0.00    +0.000 A 
ATOM     26  CZ2 TRP A   1       1.521   4.164  20.688  0.00  0.00    +0.000 A 
ATOM     27  CH2 TRP A   1       0.780   3.132  20.125  0.00  0.00    +0.000 A 
ATOM     28  CZ3 TRP A   1       0.992   2.744  18.800  0.00  0.00    +0.000 A 
ATOM     29  CE3 TRP A   1       1.950   3.381  17.985  0.00  0.00    +0.000 A 
ATOM     30  CD2 TRP A   1       2.645   4.494  18.500  0.00  0.00    +0.000 A 
ATOM     31  HE1 TRP A   1       3.929   5.900  20.772  0.00  0.00    +0.000 HD
ENDBRANCH  21  22
ENDBRANCH   1  21
TORSDOF 9
ENDMDL
MODEL 9
REMARK VINA RESULT:      -8.3      1.394      1.887
REMARK  Name = 
REMARK  11 active torsions:
REMARK  status: ('A' for Active; 'I' for Inactive)
REMARK    1  A    between atoms: C_1  and  C_2
REMARK    2  A    between atoms: C_2  and  C_3
REMARK    3  A    between atoms: C_2  and  C_4
REMARK    4  A    between atoms: C_7  and  O_8
REMARK    5  A    between atoms: O_8  and  C_9
REMARK    6  A    between atoms: C_9  and  C_10
REMARK    7  A    between atoms: N_12  and  CA_13
REMARK    8  A    between atoms: CA_13  and  CB_14
REMARK    9  A    between atoms: CA_13  and  C_24
REMARK   10  A    between atoms: CB_14  and  CG_15
REMARK   11  A    between atoms: C_24  and  OXT_26
REMARK                            x       y       z     vdW  Elec       q    Type
REMARK                         _______ _______ _______ _____ _____    ______ ____
ROOT
ATOM      1  CA  TRP A   1       5.987   5.270  16.614  0.00  0.00    +0.000 C 
ENDROOT
BRANCH   1   4
ATOM      2  C   UNK A   0       7.336   6.512  18.307  0.00  0.00    +0.000 C 
ATOM      3  O   UNK A   0       6.890   5.843  19.235  0.00  0.00    +0.000 OA
ATOM      4  N   TRP A   1       6.871   6.363  17.014  0.00  0.00    +0.000 N 
ATOM      5  H   TRP A   1       7.492   6.709  16.264  0.00  0.00    +0.000 HD
BRANCH   2   6
ATOM      6  C   UNK A   0       8.418   7.584  18.477  0.00  0.00    +0.000 C 
BRANCH   6   7
ATOM      7  O   UNK A   0       7.920   8.841  18.045  0.00  0.00    +0.000 OA
BRANCH   7  11
ATOM      8  C   UNK A   0       9.907  12.403  19.062  0.00  0.00    +0.000 A 
ATOM      9  C   UNK A   0       9.088  12.273  17.932  0.00  0.00    +0.000 A 
ATOM     10  C   UNK A   0       8.457  11.072  17.624  0.00  0.00    +0.000 A 
ATOM     11  C   UNK A   0       8.631   9.945  18.434  0.00  0.00    +0.000 A 
ATOM     12  C   UNK A   0       9.442  10.057  19.557  0.00  0.00    +0.000 A 
ATOM     13  C   UNK A   0      10.074  11.278  19.876  0.00  0.00    +0.000 A 
BRANCH   8  15
ATOM     14  C   UNK A   0      10.096  14.183  20.806  0.00  0.00    +0.000 C 
ATOM     15  C   UNK A   0      10.498  13.767  19.388  0.00  0.00    +0.000 C 
ATOM     16  C   UNK A   0      12.016  13.873  19.218  0.00  0.00    +0.000 C 
ENDBRANCH   8  15
ENDBRANCH   7  11
ENDBRANCH   6   7
ENDBRANCH   2   6
ENDBRANCH   1   4
BRANCH   1  17
ATOM     17  C   TRP A   1       6.613   4.685  15.324  0.00  0.00    +0.000 C 
ATOM     18  O   TRP A   1       6.243   3.629  14.806  0.00  0.00    +0.000 OA
BRANCH  17  19
ATOM     19  OXT TRP A   1       7.610   5.427  14.790  0.00  0.00    +0.000 OA
ATOM     20  HXT TRP A   1       8.340   5.649  15.403  0.00  0.00    +0.000 HD
ENDBRANCH  17  19
ENDBRANCH   1  17
BRANCH   1  21
ATOM     21  CB  TRP A   1       4.483   5.695  16.488  0.00  0.00    +0.000 C 
BRANCH  21  22
ATOM     22  CG  TRP A   1       3.699   5.555  17.755  0.00  0.00    +0.000 A 
ATOM     23  CD1 TRP A   1       3.412   6.599  18.619  0.00  0.00    +0.000 A 
ATOM     24  NE1 TRP A   1       3.279   5.989  19.833  0.00  0.00    +0.000 N 
ATOM     25  CE2 TRP A   1       2.510   4.885  19.581  0.00  0.00    +0.000 A 
ATOM     26  CZ2 TRP A   1       1.630   4.208  20.417  0.00  0.00    +0.000 A 
ATOM     27  CH2 TRP A   1       0.914   3.165  19.843  0.00  0.00    +0.000 A 
ATOM     28  CZ3 TRP A   1       1.156   2.775  18.524  0.00  0.00    +0.000 A 
ATOM     29  CE3 TRP A   1       2.122   3.422  17.726  0.00  0.00    +0.000 A 
ATOM     30  CD2 TRP A   1       2.793   4.545  18.251  0.00  0.00    +0.000 A 
ATOM     31  HE1 TRP A   1       4.014   5.974  20.543  0.00  0.00    +0.000 HD
ENDBRANCH  21  22
ENDBRANCH   1  21
TORSDOF 9
ENDMDL
