MODEL 1
REMARK VINA RESULT:      -6.9      0.000      0.000
REMARK  Name = 
REMARK  6 active torsions:
REMARK  status: ('A' for Active; 'I' for Inactive)
REMARK    1  A    between atoms: C_1  and  C_2
REMARK    2  A    between atoms: C_8  and  C_9
REMARK    3  A    between atoms: C_21  and  O_22
REMARK    4  A    between atoms: C_23  and  C_24
REMARK    5  A    between atoms: C_26  and  C_27
REMARK    6  A    between atoms: C_26  and  C_28
REMARK                            x       y       z     vdW  Elec       q    Type
REMARK                         _______ _______ _______ _____ _____    ______ ____
ROOT
ATOM      1  C   UNL     1      -4.967  16.501  24.634  0.00  0.00    +0.000 C 
ATOM      2  C   UNL     1      -4.166  15.303  24.134  0.00  0.00    +0.000 C 
ATOM      3  O   UNL     1      -4.609  15.080  22.794  0.00  0.00    +0.000 OA
ATOM      4  C   UNL     1      -3.876  14.221  22.030  0.00  0.00    +0.000 A 
ATOM      5  C   UNL     1      -4.509  13.738  20.865  0.00  0.00    +0.000 A 
ATOM      6  C   UNL     1      -3.841  12.821  20.037  0.00  0.00    +0.000 A 
ATOM      7  C   UNL     1      -2.525  12.425  20.333  0.00  0.00    +0.000 A 
ATOM      8  C   UNL     1      -1.825  11.335  19.598  0.00  0.00    +0.000 A 
ATOM      9  C   UNL     1      -0.788  10.754  20.220  0.00  0.00    +0.000 A 
ATOM     10  C   UNL     1       0.037  11.569  21.123  0.00  0.00    +0.000 A 
ATOM     11  O   UNL     1       1.249  11.385  21.200  0.00  0.00    +0.000 OA
ATOM     12  O   UNL     1      -0.599  12.580  21.807  0.00  0.00    +0.000 OA
ATOM     13  C   UNL     1      -1.920  12.943  21.485  0.00  0.00    +0.000 A 
ATOM     14  C   UNL     1      -2.573  13.831  22.357  0.00  0.00    +0.000 A 
ATOM     15  C   UNL     1      -1.969  14.266  23.675  0.00  0.00    +0.000 C 
ATOM     16  C   UNL     1      -2.653  15.527  24.217  0.00  0.00    +0.000 C 
ATOM     17  C   UNL     1      -2.181  16.792  23.481  0.00  0.00    +0.000 C 
ATOM     18  O   UNL     1      -4.472  12.285  18.943  0.00  0.00    +0.000 OA
ATOM     19  C   UNL     1      -5.914  12.217  18.925  0.00  0.00    +0.000 C 
ATOM     20  C   UNL     1      -6.329  12.187  17.461  0.00  0.00    +0.000 C 
ATOM     21  C   UNL     1      -6.372  10.932  19.623  0.00  0.00    +0.000 C 
ATOM     22  C   UNL     1      -6.530  13.421  19.607  0.00  0.00    +0.000 C 
ATOM     23  C   UNL     1      -5.867  14.148  20.508  0.00  0.00    +0.000 C 
ENDROOT
BRANCH   8  24
ATOM     24  C   UNL     1      -2.215  10.823  18.265  0.00  0.00    +0.000 A 
ATOM     25  C   UNL     1      -2.926   9.631  18.112  0.00  0.00    +0.000 A 
ATOM     26  C   UNL     1      -3.541   9.340  16.889  0.00  0.00    +0.000 A 
ATOM     27  C   UNL     1      -3.417  10.216  15.808  0.00  0.00    +0.000 A 
ATOM     28  C   UNL     1      -2.642  11.366  15.929  0.00  0.00    +0.000 A 
ATOM     29  C   UNL     1      -2.038  11.666  17.152  0.00  0.00    +0.000 A 
ENDBRANCH   8  24
BRANCH  15  30
ATOM     30  O   UNL     1      -0.568  14.504  23.640  0.00  0.00    +0.000 OA
ATOM     31  H   UNL     1      -0.264  14.378  22.724  0.00  0.00    +0.000 HD
ENDBRANCH  15  30
TORSDOF 2
ENDMDL
MODEL 2
REMARK VINA RESULT:      -6.7      1.990      7.206
REMARK  Name = 
REMARK  6 active torsions:
REMARK  status: ('A' for Active; 'I' for Inactive)
REMARK    1  A    between atoms: C_1  and  C_2
REMARK    2  A    between atoms: C_8  and  C_9
REMARK    3  A    between atoms: C_21  and  O_22
REMARK    4  A    between atoms: C_23  and  C_24
REMARK    5  A    between atoms: C_26  and  C_27
REMARK    6  A    between atoms: C_26  and  C_28
REMARK                            x       y       z     vdW  Elec       q    Type
REMARK                         _______ _______ _______ _____ _____    ______ ____
ROOT
ATOM      1  C   UNL     1      -4.171  10.849  16.390  0.00  0.00    +0.000 C 
ATOM      2  C   UNL     1      -4.496  10.917  17.879  0.00  0.00    +0.000 C 
ATOM      3  O   UNL     1      -3.742  12.021  18.384  0.00  0.00    +0.000 OA
ATOM      4  C   UNL     1      -4.040  12.455  19.641  0.00  0.00    +0.000 A 
ATOM      5  C   UNL     1      -3.074  13.281  20.254  0.00  0.00    +0.000 A 
ATOM      6  C   UNL     1      -3.281  13.745  21.562  0.00  0.00    +0.000 A 
ATOM      7  C   UNL     1      -4.473  13.439  22.244  0.00  0.00    +0.000 A 
ATOM      8  C   UNL     1      -4.683  13.755  23.684  0.00  0.00    +0.000 A 
ATOM      9  C   UNL     1      -5.629  13.053  24.326  0.00  0.00    +0.000 A 
ATOM     10  C   UNL     1      -6.812  12.614  23.573  0.00  0.00    +0.000 A 
ATOM     11  O   UNL     1      -7.917  12.581  24.108  0.00  0.00    +0.000 OA
ATOM     12  O   UNL     1      -6.629  12.320  22.241  0.00  0.00    +0.000 OA
ATOM     13  C   UNL     1      -5.419  12.638  21.595  0.00  0.00    +0.000 A 
ATOM     14  C   UNL     1      -5.226  12.122  20.303  0.00  0.00    +0.000 A 
ATOM     15  C   UNL     1      -6.184  11.135  19.671  0.00  0.00    +0.000 C 
ATOM     16  C   UNL     1      -5.996  11.064  18.150  0.00  0.00    +0.000 C 
ATOM     17  C   UNL     1      -6.631  12.271  17.440  0.00  0.00    +0.000 C 
ATOM     18  O   UNL     1      -2.317  14.485  22.199  0.00  0.00    +0.000 OA
ATOM     19  C   UNL     1      -0.938  14.345  21.790  0.00  0.00    +0.000 C 
ATOM     20  C   UNL     1      -0.238  15.639  22.177  0.00  0.00    +0.000 C 
ATOM     21  C   UNL     1      -0.304  13.166  22.536  0.00  0.00    +0.000 C 
ATOM     22  C   UNL     1      -0.827  14.130  20.296  0.00  0.00    +0.000 C 
ATOM     23  C   UNL     1      -1.834  13.644  19.567  0.00  0.00    +0.000 C 
ENDROOT
BRANCH   8  24
ATOM     24  C   UNL     1      -3.901  14.745  24.459  0.00  0.00    +0.000 A 
ATOM     25  C   UNL     1      -2.754  14.386  25.170  0.00  0.00    +0.000 A 
ATOM     26  C   UNL     1      -1.879  15.379  25.625  0.00  0.00    +0.000 A 
ATOM     27  C   UNL     1      -2.164  16.728  25.406  0.00  0.00    +0.000 A 
ATOM     28  C   UNL     1      -3.346  17.096  24.771  0.00  0.00    +0.000 A 
ATOM     29  C   UNL     1      -4.215  16.108  24.303  0.00  0.00    +0.000 A 
ENDBRANCH   8  24
BRANCH  15  30
ATOM     30  O   UNL     1      -7.560  11.386  19.934  0.00  0.00    +0.000 OA
ATOM     31  H   UNL     1      -7.762  12.291  19.640  0.00  0.00    +0.000 HD
ENDBRANCH  15  30
TORSDOF 2
ENDMDL
MODEL 3
REMARK VINA RESULT:      -6.5      2.147      5.040
REMARK  Name = 
REMARK  6 active torsions:
REMARK  status: ('A' for Active; 'I' for Inactive)
REMARK    1  A    between atoms: C_1  and  C_2
REMARK    2  A    between atoms: C_8  and  C_9
REMARK    3  A    between atoms: C_21  and  O_22
REMARK    4  A    between atoms: C_23  and  C_24
REMARK    5  A    between atoms: C_26  and  C_27
REMARK    6  A    between atoms: C_26  and  C_28
REMARK                            x       y       z     vdW  Elec       q    Type
REMARK                         _______ _______ _______ _____ _____    ______ ____
ROOT
ATOM      1  C   UNL     1       2.822  13.877  21.290  0.00  0.00    +0.000 C 
ATOM      2  C   UNL     1       1.788  12.894  20.751  0.00  0.00    +0.000 C 
ATOM      3  O   UNL     1       0.545  13.599  20.771  0.00  0.00    +0.000 OA
ATOM      4  C   UNL     1      -0.503  13.031  20.108  0.00  0.00    +0.000 A 
ATOM      5  C   UNL     1      -1.781  13.533  20.431  0.00  0.00    +0.000 A 
ATOM      6  C   UNL     1      -2.921  12.984  19.823  0.00  0.00    +0.000 A 
ATOM      7  C   UNL     1      -2.791  11.974  18.851  0.00  0.00    +0.000 A 
ATOM      8  C   UNL     1      -3.957  11.235  18.295  0.00  0.00    +0.000 A 
ATOM      9  C   UNL     1      -3.706  10.041  17.736  0.00  0.00    +0.000 A 
ATOM     10  C   UNL     1      -2.418   9.838  17.058  0.00  0.00    +0.000 A 
ATOM     11  O   UNL     1      -2.346   9.144  16.048  0.00  0.00    +0.000 OA
ATOM     12  O   UNL     1      -1.333  10.518  17.564  0.00  0.00    +0.000 OA
ATOM     13  C   UNL     1      -1.505  11.518  18.540  0.00  0.00    +0.000 A 
ATOM     14  C   UNL     1      -0.346  12.017  19.158  0.00  0.00    +0.000 A 
ATOM     15  C   UNL     1       1.023  11.413  18.925  0.00  0.00    +0.000 C 
ATOM     16  C   UNL     1       2.140  12.373  19.354  0.00  0.00    +0.000 C 
ATOM     17  C   UNL     1       2.359  13.491  18.322  0.00  0.00    +0.000 C 
ATOM     18  O   UNL     1      -4.175  13.409  20.182  0.00  0.00    +0.000 OA
ATOM     19  C   UNL     1      -4.374  13.984  21.492  0.00  0.00    +0.000 C 
ATOM     20  C   UNL     1      -5.597  14.883  21.390  0.00  0.00    +0.000 C 
ATOM     21  C   UNL     1      -4.634  12.864  22.505  0.00  0.00    +0.000 C 
ATOM     22  C   UNL     1      -3.174  14.800  21.923  0.00  0.00    +0.000 C 
ATOM     23  C   UNL     1      -1.956  14.602  21.415  0.00  0.00    +0.000 C 
ENDROOT
BRANCH   8  24
ATOM     24  C   UNL     1      -5.362  11.697  18.353  0.00  0.00    +0.000 A 
ATOM     25  C   UNL     1      -6.204  11.365  19.417  0.00  0.00    +0.000 A 
ATOM     26  C   UNL     1      -7.405  12.062  19.596  0.00  0.00    +0.000 A 
ATOM     27  C   UNL     1      -7.786  13.060  18.697  0.00  0.00    +0.000 A 
ATOM     28  C   UNL     1      -6.991  13.339  17.589  0.00  0.00    +0.000 A 
ATOM     29  C   UNL     1      -5.785  12.656  17.413  0.00  0.00    +0.000 A 
ENDBRANCH   8  24
BRANCH  15  30
ATOM     30  O   UNL     1       1.278  11.010  17.585  0.00  0.00    +0.000 OA
ATOM     31  H   UNL     1       0.605  11.421  17.015  0.00  0.00    +0.000 HD
ENDBRANCH  15  30
TORSDOF 2
ENDMDL
MODEL 4
REMARK VINA RESULT:      -6.4      9.241     12.695
REMARK  Name = 
REMARK  6 active torsions:
REMARK  status: ('A' for Active; 'I' for Inactive)
REMARK    1  A    between atoms: C_1  and  C_2
REMARK    2  A    between atoms: C_8  and  C_9
REMARK    3  A    between atoms: C_21  and  O_22
REMARK    4  A    between atoms: C_23  and  C_24
REMARK    5  A    between atoms: C_26  and  C_27
REMARK    6  A    between atoms: C_26  and  C_28
REMARK                            x       y       z     vdW  Elec       q    Type
REMARK                         _______ _______ _______ _____ _____    ______ ____
ROOT
ATOM      1  C   UNL     1      11.320  12.718  17.086  0.00  0.00    +0.000 C 
ATOM      2  C   UNL     1      10.866  12.771  18.541  0.00  0.00    +0.000 C 
ATOM      3  O   UNL     1       9.813  13.736  18.578  0.00  0.00    +0.000 OA
ATOM      4  C   UNL     1       9.065  13.798  19.715  0.00  0.00    +0.000 A 
ATOM      5  C   UNL     1       8.288  14.965  19.880  0.00  0.00    +0.000 A 
ATOM      6  C   UNL     1       7.513  15.130  21.039  0.00  0.00    +0.000 A 
ATOM      7  C   UNL     1       7.461  14.113  22.010  0.00  0.00    +0.000 A 
ATOM      8  C   UNL     1       6.799  14.291  23.331  0.00  0.00    +0.000 A 
ATOM      9  C   UNL     1       7.176  13.459  24.314  0.00  0.00    +0.000 A 
ATOM     10  C   UNL     1       7.578  12.090  23.963  0.00  0.00    +0.000 A 
ATOM     11  O   UNL     1       7.310  11.150  24.706  0.00  0.00    +0.000 OA
ATOM     12  O   UNL     1       8.190  11.913  22.742  0.00  0.00    +0.000 OA
ATOM     13  C   UNL     1       8.225  12.959  21.800  0.00  0.00    +0.000 A 
ATOM     14  C   UNL     1       9.044  12.778  20.672  0.00  0.00    +0.000 A 
ATOM     15  C   UNL     1       9.980  11.598  20.529  0.00  0.00    +0.000 C 
ATOM     16  C   UNL     1      10.421  11.405  19.072  0.00  0.00    +0.000 C 
ATOM     17  C   UNL     1       9.320  10.748  18.225  0.00  0.00    +0.000 C 
ATOM     18  O   UNL     1       6.814  16.292  21.249  0.00  0.00    +0.000 OA
ATOM     19  C   UNL     1       7.263  17.508  20.612  0.00  0.00    +0.000 C 
ATOM     20  C   UNL     1       6.045  18.413  20.500  0.00  0.00    +0.000 C 
ATOM     21  C   UNL     1       8.330  18.176  21.487  0.00  0.00    +0.000 C 
ATOM     22  C   UNL     1       7.825  17.232  19.234  0.00  0.00    +0.000 C 
ATOM     23  C   UNL     1       8.294  16.033  18.881  0.00  0.00    +0.000 C 
ENDROOT
BRANCH   8  24
ATOM     24  C   UNL     1       5.799  15.336  23.646  0.00  0.00    +0.000 A 
ATOM     25  C   UNL     1       6.147  16.513  24.313  0.00  0.00    +0.000 A 
ATOM     26  C   UNL     1       5.261  17.597  24.317  0.00  0.00    +0.000 A 
ATOM     27  C   UNL     1       4.017  17.498  23.691  0.00  0.00    +0.000 A 
ATOM     28  C   UNL     1       3.631  16.300  23.095  0.00  0.00    +0.000 A 
ATOM     29  C   UNL     1       4.516  15.220  23.077  0.00  0.00    +0.000 A 
ENDBRANCH   8  24
BRANCH  15  30
ATOM     30  O   UNL     1       9.458  10.361  20.999  0.00  0.00    +0.000 OA
ATOM     31  H   UNL     1       8.495  10.371  20.865  0.00  0.00    +0.000 HD
ENDBRANCH  15  30
TORSDOF 2
ENDMDL
MODEL 5
REMARK VINA RESULT:      -6.4     11.403     14.748
REMARK  Name = 
REMARK  6 active torsions:
REMARK  status: ('A' for Active; 'I' for Inactive)
REMARK    1  A    between atoms: C_1  and  C_2
REMARK    2  A    between atoms: C_8  and  C_9
REMARK    3  A    between atoms: C_21  and  O_22
REMARK    4  A    between atoms: C_23  and  C_24
REMARK    5  A    between atoms: C_26  and  C_27
REMARK    6  A    between atoms: C_26  and  C_28
REMARK                            x       y       z     vdW  Elec       q    Type
REMARK                         _______ _______ _______ _____ _____    ______ ____
ROOT
ATOM      1  C   UNL     1       8.927   9.977  18.212  0.00  0.00    +0.000 C 
ATOM      2  C   UNL     1       9.071  11.471  18.482  0.00  0.00    +0.000 C 
ATOM      3  O   UNL     1       9.134  11.598  19.904  0.00  0.00    +0.000 OA
ATOM      4  C   UNL     1       9.510  12.808  20.405  0.00  0.00    +0.000 A 
ATOM      5  C   UNL     1       9.224  13.027  21.769  0.00  0.00    +0.000 A 
ATOM      6  C   UNL     1       9.545  14.259  22.361  0.00  0.00    +0.000 A 
ATOM      7  C   UNL     1      10.203  15.255  21.617  0.00  0.00    +0.000 A 
ATOM      8  C   UNL     1      10.419  16.636  22.129  0.00  0.00    +0.000 A 
ATOM      9  C   UNL     1      10.642  17.593  21.216  0.00  0.00    +0.000 A 
ATOM     10  C   UNL     1      11.353  17.234  19.981  0.00  0.00    +0.000 A 
ATOM     11  O   UNL     1      12.131  18.026  19.456  0.00  0.00    +0.000 OA
ATOM     12  O   UNL     1      11.161  15.960  19.498  0.00  0.00    +0.000 OA
ATOM     13  C   UNL     1      10.493  14.993  20.273  0.00  0.00    +0.000 A 
ATOM     14  C   UNL     1      10.149  13.787  19.638  0.00  0.00    +0.000 A 
ATOM     15  C   UNL     1      10.330  13.572  18.150  0.00  0.00    +0.000 C 
ATOM     16  C   UNL     1      10.293  12.082  17.789  0.00  0.00    +0.000 C 
ATOM     17  C   UNL     1      11.612  11.377  18.142  0.00  0.00    +0.000 C 
ATOM     18  O   UNL     1       9.203  14.514  23.665  0.00  0.00    +0.000 OA
ATOM     19  C   UNL     1       8.093  13.802  24.254  0.00  0.00    +0.000 C 
ATOM     20  C   UNL     1       8.329  13.799  25.758  0.00  0.00    +0.000 C 
ATOM     21  C   UNL     1       6.788  14.537  23.932  0.00  0.00    +0.000 C 
ATOM     22  C   UNL     1       8.021  12.377  23.745  0.00  0.00    +0.000 C 
ATOM     23  C   UNL     1       8.565  12.006  22.585  0.00  0.00    +0.000 C 
ENDROOT
BRANCH   8  24
ATOM     24  C   UNL     1      10.362  17.031  23.555  0.00  0.00    +0.000 A 
ATOM     25  C   UNL     1       9.199  17.550  24.130  0.00  0.00    +0.000 A 
ATOM     26  C   UNL     1       9.084  17.618  25.524  0.00  0.00    +0.000 A 
ATOM     27  C   UNL     1      10.138  17.206  26.343  0.00  0.00    +0.000 A 
ATOM     28  C   UNL     1      11.330  16.765  25.774  0.00  0.00    +0.000 A 
ATOM     29  C   UNL     1      11.444  16.683  24.385  0.00  0.00    +0.000 A 
ENDBRANCH   8  24
BRANCH  15  30
ATOM     30  O   UNL     1      11.522  14.128  17.607  0.00  0.00    +0.000 OA
ATOM     31  H   UNL     1      11.728  13.653  16.784  0.00  0.00    +0.000 HD
ENDBRANCH  15  30
TORSDOF 2
ENDMDL
MODEL 6
REMARK VINA RESULT:      -6.4      2.193      5.264
REMARK  Name = 
REMARK  6 active torsions:
REMARK  status: ('A' for Active; 'I' for Inactive)
REMARK    1  A    between atoms: C_1  and  C_2
REMARK    2  A    between atoms: C_8  and  C_9
REMARK    3  A    between atoms: C_21  and  O_22
REMARK    4  A    between atoms: C_23  and  C_24
REMARK    5  A    between atoms: C_26  and  C_27
REMARK    6  A    between atoms: C_26  and  C_28
REMARK                            x       y       z     vdW  Elec       q    Type
REMARK                         _______ _______ _______ _____ _____    ______ ____
ROOT
ATOM      1  C   UNL     1       2.959  14.577  21.812  0.00  0.00    +0.000 C 
ATOM      2  C   UNL     1       1.869  13.700  21.205  0.00  0.00    +0.000 C 
ATOM      3  O   UNL     1       0.633  14.269  21.645  0.00  0.00    +0.000 OA
ATOM      4  C   UNL     1      -0.506  13.822  21.044  0.00  0.00    +0.000 A 
ATOM      5  C   UNL     1      -1.712  14.111  21.716  0.00  0.00    +0.000 A 
ATOM      6  C   UNL     1      -2.932  13.660  21.187  0.00  0.00    +0.000 A 
ATOM      7  C   UNL     1      -2.963  12.971  19.961  0.00  0.00    +0.000 A 
ATOM      8  C   UNL     1      -4.193  12.321  19.431  0.00  0.00    +0.000 A 
ATOM      9  C   UNL     1      -4.021  11.352  18.520  0.00  0.00    +0.000 A 
ATOM     10  C   UNL     1      -2.882  11.448  17.596  0.00  0.00    +0.000 A 
ATOM     11  O   UNL     1      -2.987  11.068  16.433  0.00  0.00    +0.000 OA
ATOM     12  O   UNL     1      -1.740  12.048  18.075  0.00  0.00    +0.000 OA
ATOM     13  C   UNL     1      -1.749  12.724  19.310  0.00  0.00    +0.000 A 
ATOM     14  C   UNL     1      -0.507  13.125  19.831  0.00  0.00    +0.000 A 
ATOM     15  C   UNL     1       0.808  12.722  19.198  0.00  0.00    +0.000 C 
ATOM     16  C   UNL     1       1.959  13.614  19.679  0.00  0.00    +0.000 C 
ATOM     17  C   UNL     1       1.945  14.987  18.988  0.00  0.00    +0.000 C 
ATOM     18  O   UNL     1      -4.105  13.866  21.869  0.00  0.00    +0.000 OA
ATOM     19  C   UNL     1      -4.064  14.040  23.302  0.00  0.00    +0.000 C 
ATOM     20  C   UNL     1      -5.309  14.830  23.678  0.00  0.00    +0.000 C 
ATOM     21  C   UNL     1      -4.093  12.667  23.982  0.00  0.00    +0.000 C 
ATOM     22  C   UNL     1      -2.827  14.800  23.730  0.00  0.00    +0.000 C 
ATOM     23  C   UNL     1      -1.724  14.849  22.979  0.00  0.00    +0.000 C 
ENDROOT
BRANCH   8  24
ATOM     24  C   UNL     1      -5.574  12.634  19.866  0.00  0.00    +0.000 A 
ATOM     25  C   UNL     1      -6.251  11.842  20.796  0.00  0.00    +0.000 A 
ATOM     26  C   UNL     1      -7.410  12.330  21.410  0.00  0.00    +0.000 A 
ATOM     27  C   UNL     1      -7.916  13.586  21.072  0.00  0.00    +0.000 A 
ATOM     28  C   UNL     1      -7.292  14.345  20.086  0.00  0.00    +0.000 A 
ATOM     29  C   UNL     1      -6.128  13.869  19.481  0.00  0.00    +0.000 A 
ENDBRANCH   8  24
BRANCH  15  30
ATOM     30  O   UNL     1       0.812  12.726  17.776  0.00  0.00    +0.000 OA
ATOM     31  H   UNL     1      -0.083  12.494  17.472  0.00  0.00    +0.000 HD
ENDBRANCH  15  30
TORSDOF 2
ENDMDL
MODEL 7
REMARK VINA RESULT:      -6.3      1.782      4.330
REMARK  Name = 
REMARK  6 active torsions:
REMARK  status: ('A' for Active; 'I' for Inactive)
REMARK    1  A    between atoms: C_1  and  C_2
REMARK    2  A    between atoms: C_8  and  C_9
REMARK    3  A    between atoms: C_21  and  O_22
REMARK    4  A    between atoms: C_23  and  C_24
REMARK    5  A    between atoms: C_26  and  C_27
REMARK    6  A    between atoms: C_26  and  C_28
REMARK                            x       y       z     vdW  Elec       q    Type
REMARK                         _______ _______ _______ _____ _____    ______ ____
ROOT
ATOM      1  C   UNL     1      -2.760  14.715  25.563  0.00  0.00    +0.000 C 
ATOM      2  C   UNL     1      -3.456  14.547  24.215  0.00  0.00    +0.000 C 
ATOM      3  O   UNL     1      -2.563  13.765  23.420  0.00  0.00    +0.000 OA
ATOM      4  C   UNL     1      -3.050  13.261  22.251  0.00  0.00    +0.000 A 
ATOM      5  C   UNL     1      -2.086  12.812  21.323  0.00  0.00    +0.000 A 
ATOM      6  C   UNL     1      -2.496  12.310  20.079  0.00  0.00    +0.000 A 
ATOM      7  C   UNL     1      -3.864  12.198  19.773  0.00  0.00    +0.000 A 
ATOM      8  C   UNL     1      -4.362  11.835  18.418  0.00  0.00    +0.000 A 
ATOM      9  C   UNL     1      -5.625  12.179  18.124  0.00  0.00    +0.000 A 
ATOM     10  C   UNL     1      -6.621  12.191  19.205  0.00  0.00    +0.000 A 
ATOM     11  O   UNL     1      -7.780  11.850  18.991  0.00  0.00    +0.000 OA
ATOM     12  O   UNL     1      -6.171  12.524  20.463  0.00  0.00    +0.000 OA
ATOM     13  C   UNL     1      -4.792  12.631  20.727  0.00  0.00    +0.000 A 
ATOM     14  C   UNL     1      -4.417  13.176  21.966  0.00  0.00    +0.000 A 
ATOM     15  C   UNL     1      -5.420  13.779  22.926  0.00  0.00    +0.000 C 
ATOM     16  C   UNL     1      -4.840  13.903  24.341  0.00  0.00    +0.000 C 
ATOM     17  C   UNL     1      -4.821  12.551  25.070  0.00  0.00    +0.000 C 
ATOM     18  O   UNL     1      -1.567  11.941  19.137  0.00  0.00    +0.000 OA
ATOM     19  C   UNL     1      -0.252  12.536  19.175  0.00  0.00    +0.000 C 
ATOM     20  C   UNL     1       0.687  11.556  18.489  0.00  0.00    +0.000 C 
ATOM     21  C   UNL     1      -0.272  13.863  18.409  0.00  0.00    +0.000 C 
ATOM     22  C   UNL     1       0.205  12.771  20.600  0.00  0.00    +0.000 C 
ATOM     23  C   UNL     1      -0.654  12.885  21.615  0.00  0.00    +0.000 C 
ENDROOT
BRANCH   8  24
ATOM     24  C   UNL     1      -3.558  11.170  17.367  0.00  0.00    +0.000 A 
ATOM     25  C   UNL     1      -2.765  10.053  17.642  0.00  0.00    +0.000 A 
ATOM     26  C   UNL     1      -2.275   9.273  16.588  0.00  0.00    +0.000 A 
ATOM     27  C   UNL     1      -2.540   9.626  15.263  0.00  0.00    +0.000 A 
ATOM     28  C   UNL     1      -3.260  10.783  14.981  0.00  0.00    +0.000 A 
ATOM     29  C   UNL     1      -3.763  11.557  16.029  0.00  0.00    +0.000 A 
ENDBRANCH   8  24
BRANCH  15  30
ATOM     30  O   UNL     1      -6.655  13.080  23.016  0.00  0.00    +0.000 OA
ATOM     31  H   UNL     1      -6.588  12.280  22.466  0.00  0.00    +0.000 HD
ENDBRANCH  15  30
TORSDOF 2
ENDMDL
MODEL 8
REMARK VINA RESULT:      -6.2      2.085      5.072
REMARK  Name = 
REMARK  6 active torsions:
REMARK  status: ('A' for Active; 'I' for Inactive)
REMARK    1  A    between atoms: C_1  and  C_2
REMARK    2  A    between atoms: C_8  and  C_9
REMARK    3  A    between atoms: C_21  and  O_22
REMARK    4  A    between atoms: C_23  and  C_24
REMARK    5  A    between atoms: C_26  and  C_27
REMARK    6  A    between atoms: C_26  and  C_28
REMARK                            x       y       z     vdW  Elec       q    Type
REMARK                         _______ _______ _______ _____ _____    ______ ____
ROOT
ATOM      1  C   UNL     1      -7.915  14.600  23.624  0.00  0.00    +0.000 C 
ATOM      2  C   UNL     1      -7.249  14.230  22.303  0.00  0.00    +0.000 C 
ATOM      3  O   UNL     1      -5.857  14.101  22.600  0.00  0.00    +0.000 OA
ATOM      4  C   UNL     1      -5.067  13.534  21.644  0.00  0.00    +0.000 A 
ATOM      5  C   UNL     1      -3.679  13.738  21.791  0.00  0.00    +0.000 A 
ATOM      6  C   UNL     1      -2.792  13.220  20.834  0.00  0.00    +0.000 A 
ATOM      7  C   UNL     1      -3.275  12.449  19.762  0.00  0.00    +0.000 A 
ATOM      8  C   UNL     1      -2.414  12.016  18.627  0.00  0.00    +0.000 A 
ATOM      9  C   UNL     1      -3.037  11.686  17.485  0.00  0.00    +0.000 A 
ATOM     10  C   UNL     1      -4.373  11.078  17.563  0.00  0.00    +0.000 A 
ATOM     11  O   UNL     1      -4.712  10.211  16.763  0.00  0.00    +0.000 OA
ATOM     12  O   UNL     1      -5.177  11.471  18.609  0.00  0.00    +0.000 OA
ATOM     13  C   UNL     1      -4.657  12.247  19.662  0.00  0.00    +0.000 A 
ATOM     14  C   UNL     1      -5.576  12.785  20.578  0.00  0.00    +0.000 A 
ATOM     15  C   UNL     1      -7.073  12.688  20.378  0.00  0.00    +0.000 C 
ATOM     16  C   UNL     1      -7.833  12.956  21.684  0.00  0.00    +0.000 C 
ATOM     17  C   UNL     1      -7.791  11.743  22.627  0.00  0.00    +0.000 C 
ATOM     18  O   UNL     1      -1.446  13.476  20.922  0.00  0.00    +0.000 OA
ATOM     19  C   UNL     1      -0.999  14.657  21.623  0.00  0.00    +0.000 C 
ATOM     20  C   UNL     1       0.421  14.373  22.088  0.00  0.00    +0.000 C 
ATOM     21  C   UNL     1      -1.004  15.851  20.662  0.00  0.00    +0.000 C 
ATOM     22  C   UNL     1      -1.879  14.954  22.818  0.00  0.00    +0.000 C 
ATOM     23  C   UNL     1      -3.135  14.511  22.909  0.00  0.00    +0.000 C 
ENDROOT
BRANCH   8  24
ATOM     24  C   UNL     1      -0.935  11.966  18.654  0.00  0.00    +0.000 A 
ATOM     25  C   UNL     1      -0.153  13.050  18.250  0.00  0.00    +0.000 A 
ATOM     26  C   UNL     1       1.208  13.085  18.577  0.00  0.00    +0.000 A 
ATOM     27  C   UNL     1       1.798  12.027  19.271  0.00  0.00    +0.000 A 
ATOM     28  C   UNL     1       1.042  10.907  19.605  0.00  0.00    +0.000 A 
ATOM     29  C   UNL     1      -0.319  10.873  19.293  0.00  0.00    +0.000 A 
ENDBRANCH   8  24
BRANCH  15  30
ATOM     30  O   UNL     1      -7.526  11.448  19.851  0.00  0.00    +0.000 OA
ATOM     31  H   UNL     1      -7.935  11.620  18.985  0.00  0.00    +0.000 HD
ENDBRANCH  15  30
TORSDOF 2
ENDMDL
MODEL 9
REMARK VINA RESULT:      -6.1      3.180      5.307
REMARK  Name = 
REMARK  6 active torsions:
REMARK  status: ('A' for Active; 'I' for Inactive)
REMARK    1  A    between atoms: C_1  and  C_2
REMARK    2  A    between atoms: C_8  and  C_9
REMARK    3  A    between atoms: C_21  and  O_22
REMARK    4  A    between atoms: C_23  and  C_24
REMARK    5  A    between atoms: C_26  and  C_27
REMARK    6  A    between atoms: C_26  and  C_28
REMARK                            x       y       z     vdW  Elec       q    Type
REMARK                         _______ _______ _______ _____ _____    ______ ____
ROOT
ATOM      1  C   UNL     1       2.608  17.246  19.375  0.00  0.00    +0.000 C 
ATOM      2  C   UNL     1       1.880  16.327  20.352  0.00  0.00    +0.000 C 
ATOM      3  O   UNL     1       0.498  16.415  20.000  0.00  0.00    +0.000 OA
ATOM      4  C   UNL     1      -0.346  15.502  20.559  0.00  0.00    +0.000 A 
ATOM      5  C   UNL     1      -1.721  15.813  20.497  0.00  0.00    +0.000 A 
ATOM      6  C   UNL     1      -2.659  14.946  21.079  0.00  0.00    +0.000 A 
ATOM      7  C   UNL     1      -2.242  13.741  21.672  0.00  0.00    +0.000 A 
ATOM      8  C   UNL     1      -3.158  12.864  22.450  0.00  0.00    +0.000 A 
ATOM      9  C   UNL     1      -2.591  12.008  23.314  0.00  0.00    +0.000 A 
ATOM     10  C   UNL     1      -1.271  11.450  22.987  0.00  0.00    +0.000 A 
ATOM     11  O   UNL     1      -0.989  10.294  23.291  0.00  0.00    +0.000 OA
ATOM     12  O   UNL     1      -0.415  12.252  22.266  0.00  0.00    +0.000 OA
ATOM     13  C   UNL     1      -0.871  13.454  21.693  0.00  0.00    +0.000 A 
ATOM     14  C   UNL     1       0.098  14.318  21.157  0.00  0.00    +0.000 A 
ATOM     15  C   UNL     1       1.583  14.072  21.319  0.00  0.00    +0.000 C 
ATOM     16  C   UNL     1       2.401  14.888  20.310  0.00  0.00    +0.000 C 
ATOM     17  C   UNL     1       2.360  14.264  18.906  0.00  0.00    +0.000 C 
ATOM     18  O   UNL     1      -3.992  15.273  21.094  0.00  0.00    +0.000 OA
ATOM     19  C   UNL     1      -4.376  16.663  21.023  0.00  0.00    +0.000 C 
ATOM     20  C   UNL     1      -5.785  16.695  20.450  0.00  0.00    +0.000 C 
ATOM     21  C   UNL     1      -4.374  17.264  22.433  0.00  0.00    +0.000 C 
ATOM     22  C   UNL     1      -3.442  17.448  20.127  0.00  0.00    +0.000 C 
ATOM     23  C   UNL     1      -2.197  17.043  19.865  0.00  0.00    +0.000 C 
ENDROOT
BRANCH   8  24
ATOM     24  C   UNL     1      -4.637  12.898  22.372  0.00  0.00    +0.000 A 
ATOM     25  C   UNL     1      -5.326  12.460  21.239  0.00  0.00    +0.000 A 
ATOM     26  C   UNL     1      -6.702  12.215  21.314  0.00  0.00    +0.000 A 
ATOM     27  C   UNL     1      -7.398  12.443  22.503  0.00  0.00    +0.000 A 
ATOM     28  C   UNL     1      -6.733  12.958  23.611  0.00  0.00    +0.000 A 
ATOM     29  C   UNL     1      -5.357  13.190  23.545  0.00  0.00    +0.000 A 
ENDBRANCH   8  24
BRANCH  15  30
ATOM     30  O   UNL     1       1.979  12.710  21.209  0.00  0.00    +0.000 OA
ATOM     31  H   UNL     1       2.620  12.525  21.916  0.00  0.00    +0.000 HD
ENDBRANCH  15  30
TORSDOF 2
ENDMDL
