MODEL 1
REMARK VINA RESULT:      -8.3      0.000      0.000
REMARK  Name = 
REMARK  6 active torsions:
REMARK  status: ('A' for Active; 'I' for Inactive)
REMARK    1  A    between atoms: C_1  and  O_2
REMARK    2  A    between atoms: O_2  and  C_3
REMARK    3  A    between atoms: C_6  and  C_7
REMARK    4  A    between atoms: C_7  and  N_8
REMARK    5  A    between atoms: N_13  and  C_14
REMARK    6  A    between atoms: C_17  and  C_18
REMARK                            x       y       z     vdW  Elec       q    Type
REMARK                         _______ _______ _______ _____ _____    ______ ____
ROOT
ATOM      1  N   UNL     1       2.350   7.858  18.973  0.00  0.00    +0.000 N 
ATOM      2  C   UNL     1       2.211   8.316  17.688  0.00  0.00    +0.000 A 
ATOM      3  N   UNL     1       1.327   9.291  17.605  0.00  0.00    +0.000 NA
ATOM      4  C   UNL     1       0.856   9.456  18.890  0.00  0.00    +0.000 A 
ATOM      5  C   UNL     1      -0.163  10.257  19.442  0.00  0.00    +0.000 A 
ATOM      6  N   UNL     1      -0.936  11.136  18.668  0.00  0.00    +0.000 N 
ATOM      7  N   UNL     1      -0.400  10.145  20.777  0.00  0.00    +0.000 NA
ATOM      8  C   UNL     1       0.335   9.280  21.497  0.00  0.00    +0.000 A 
ATOM      9 CL   UNL     1      -0.035   9.205  23.163  0.00  0.00    +0.000 Cl
ATOM     10  N   UNL     1       1.293   8.441  21.076  0.00  0.00    +0.000 NA
ATOM     11  C   UNL     1       1.499   8.584  19.758  0.00  0.00    +0.000 A 
ATOM     12  H   UNL     1      -0.560  11.353  17.752  0.00  0.00    +0.000 HD
ENDROOT
BRANCH   6  13
ATOM     13  C   UNL     1      -2.263  11.545  18.909  0.00  0.00    +0.000 A 
ATOM     14  C   UNL     1      -2.556  12.411  19.975  0.00  0.00    +0.000 A 
ATOM     15  C   UNL     1      -3.841  12.914  20.185  0.00  0.00    +0.000 A 
ATOM     16  C   UNL     1      -4.877  12.577  19.313  0.00  0.00    +0.000 A 
ATOM     17  C   UNL     1      -6.243  13.173  19.489  0.00  0.00    +0.000 C 
ATOM     18  C   UNL     1      -4.612  11.701  18.254  0.00  0.00    +0.000 A 
ATOM     19  C   UNL     1      -3.321  11.183  18.062  0.00  0.00    +0.000 A 
ATOM     20 BR   UNL     1      -3.046  10.010  16.591  0.00  0.00    +0.000 Br
ENDBRANCH   6  13
BRANCH   1  21
ATOM     21  C   UNL     1       3.092   6.687  19.393  0.00  0.00    +0.000 C 
BRANCH  21  25
ATOM     22  C   UNL     1       4.964   4.551  16.133  0.00  0.00    +0.000 A 
ATOM     23  C   UNL     1       5.436   5.807  16.517  0.00  0.00    +0.000 A 
ATOM     24  C   UNL     1       4.827   6.506  17.564  0.00  0.00    +0.000 A 
ATOM     25  C   UNL     1       3.726   5.958  18.237  0.00  0.00    +0.000 A 
ATOM     26  C   UNL     1       3.237   4.712  17.825  0.00  0.00    +0.000 A 
ATOM     27  C   UNL     1       3.853   4.013  16.782  0.00  0.00    +0.000 A 
BRANCH  22  29
ATOM     28  C   UNL     1       6.795   4.652  14.638  0.00  0.00    +0.000 C 
ATOM     29  O   UNL     1       5.635   3.965  15.096  0.00  0.00    +0.000 OA
ENDBRANCH  22  29
ENDBRANCH  21  25
ENDBRANCH   1  21
TORSDOF 4
ENDMDL
MODEL 2
REMARK VINA RESULT:      -8.1      1.299      1.820
REMARK  Name = 
REMARK  6 active torsions:
REMARK  status: ('A' for Active; 'I' for Inactive)
REMARK    1  A    between atoms: C_1  and  O_2
REMARK    2  A    between atoms: O_2  and  C_3
REMARK    3  A    between atoms: C_6  and  C_7
REMARK    4  A    between atoms: C_7  and  N_8
REMARK    5  A    between atoms: N_13  and  C_14
REMARK    6  A    between atoms: C_17  and  C_18
REMARK                            x       y       z     vdW  Elec       q    Type
REMARK                         _______ _______ _______ _____ _____    ______ ____
ROOT
ATOM      1  N   UNL     1       2.807   7.447  18.828  0.00  0.00    +0.000 N 
ATOM      2  C   UNL     1       2.829   7.946  17.552  0.00  0.00    +0.000 A 
ATOM      3  N   UNL     1       1.959   8.925  17.389  0.00  0.00    +0.000 NA
ATOM      4  C   UNL     1       1.330   9.049  18.609  0.00  0.00    +0.000 A 
ATOM      5  C   UNL     1       0.247   9.833  19.054  0.00  0.00    +0.000 A 
ATOM      6  N   UNL     1      -0.425  10.737  18.217  0.00  0.00    +0.000 N 
ATOM      7  N   UNL     1      -0.156   9.679  20.345  0.00  0.00    +0.000 NA
ATOM      8  C   UNL     1       0.486   8.791  21.124  0.00  0.00    +0.000 A 
ATOM      9 CL   UNL     1      -0.090   8.663  22.727  0.00  0.00    +0.000 Cl
ATOM     10  N   UNL     1       1.493   7.965  20.800  0.00  0.00    +0.000 NA
ATOM     11  C   UNL     1       1.861   8.149  19.524  0.00  0.00    +0.000 A 
ATOM     12  H   UNL     1       0.063  10.983  17.363  0.00  0.00    +0.000 HD
ENDROOT
BRANCH   6  13
ATOM     13  C   UNL     1      -1.773  11.138  18.303  0.00  0.00    +0.000 A 
ATOM     14  C   UNL     1      -2.772  10.424  17.622  0.00  0.00    +0.000 A 
ATOM     15  C   UNL     1      -4.125  10.733  17.763  0.00  0.00    +0.000 A 
ATOM     16  C   UNL     1      -4.526  11.764  18.614  0.00  0.00    +0.000 A 
ATOM     17  C   UNL     1      -5.982  12.052  18.827  0.00  0.00    +0.000 C 
ATOM     18  C   UNL     1      -3.546  12.501  19.290  0.00  0.00    +0.000 A 
ATOM     19  C   UNL     1      -2.184  12.197  19.127  0.00  0.00    +0.000 A 
ATOM     20 BR   UNL     1      -0.922  13.241  20.092  0.00  0.00    +0.000 Br
ENDBRANCH   6  13
BRANCH   1  21
ATOM     21  C   UNL     1       3.494   6.264  19.301  0.00  0.00    +0.000 C 
BRANCH  21  25
ATOM     22  C   UNL     1       6.045   4.590  16.239  0.00  0.00    +0.000 A 
ATOM     23  C   UNL     1       4.728   4.152  16.375  0.00  0.00    +0.000 A 
ATOM     24  C   UNL     1       3.901   4.683  17.371  0.00  0.00    +0.000 A 
ATOM     25  C   UNL     1       4.390   5.657  18.254  0.00  0.00    +0.000 A 
ATOM     26  C   UNL     1       5.724   6.067  18.131  0.00  0.00    +0.000 A 
ATOM     27  C   UNL     1       6.545   5.539  17.130  0.00  0.00    +0.000 A 
BRANCH  22  29
ATOM     28  C   UNL     1       6.128   3.970  13.956  0.00  0.00    +0.000 C 
ATOM     29  O   UNL     1       6.758   3.997  15.234  0.00  0.00    +0.000 OA
ENDBRANCH  22  29
ENDBRANCH  21  25
ENDBRANCH   1  21
TORSDOF 4
ENDMDL
MODEL 3
REMARK VINA RESULT:      -8.1      1.133      1.450
REMARK  Name = 
REMARK  6 active torsions:
REMARK  status: ('A' for Active; 'I' for Inactive)
REMARK    1  A    between atoms: C_1  and  O_2
REMARK    2  A    between atoms: O_2  and  C_3
REMARK    3  A    between atoms: C_6  and  C_7
REMARK    4  A    between atoms: C_7  and  N_8
REMARK    5  A    between atoms: N_13  and  C_14
REMARK    6  A    between atoms: C_17  and  C_18
REMARK                            x       y       z     vdW  Elec       q    Type
REMARK                         _______ _______ _______ _____ _____    ______ ____
ROOT
ATOM      1  N   UNL     1       2.584   7.645  18.891  0.00  0.00    +0.000 N 
ATOM      2  C   UNL     1       2.582   8.131  17.610  0.00  0.00    +0.000 A 
ATOM      3  N   UNL     1       1.701   9.100  17.450  0.00  0.00    +0.000 NA
ATOM      4  C   UNL     1       1.088   9.230  18.678  0.00  0.00    +0.000 A 
ATOM      5  C   UNL     1       0.005  10.009  19.130  0.00  0.00    +0.000 A 
ATOM      6  N   UNL     1      -0.689  10.897  18.295  0.00  0.00    +0.000 N 
ATOM      7  N   UNL     1      -0.378   9.864  20.429  0.00  0.00    +0.000 NA
ATOM      8  C   UNL     1       0.284   8.990  21.207  0.00  0.00    +0.000 A 
ATOM      9 CL   UNL     1      -0.268   8.873  22.820  0.00  0.00    +0.000 Cl
ATOM     10  N   UNL     1       1.294   8.170  20.877  0.00  0.00    +0.000 NA
ATOM     11  C   UNL     1       1.642   8.345  19.593  0.00  0.00    +0.000 A 
ATOM     12  H   UNL     1      -0.216  11.139  17.431  0.00  0.00    +0.000 HD
ENDROOT
BRANCH   6  13
ATOM     13  C   UNL     1      -2.039  11.287  18.396  0.00  0.00    +0.000 A 
ATOM     14  C   UNL     1      -3.031  10.604  17.675  0.00  0.00    +0.000 A 
ATOM     15  C   UNL     1      -4.387  10.898  17.827  0.00  0.00    +0.000 A 
ATOM     16  C   UNL     1      -4.796  11.881  18.729  0.00  0.00    +0.000 A 
ATOM     17  C   UNL     1      -6.255  12.150  18.952  0.00  0.00    +0.000 C 
ATOM     18  C   UNL     1      -3.822  12.586  19.447  0.00  0.00    +0.000 A 
ATOM     19  C   UNL     1      -2.459  12.299  19.273  0.00  0.00    +0.000 A 
ATOM     20 BR   UNL     1      -1.206  13.297  20.297  0.00  0.00    +0.000 Br
ENDBRANCH   6  13
BRANCH   1  21
ATOM     21  C   UNL     1       3.289   6.473  19.366  0.00  0.00    +0.000 C 
BRANCH  21  25
ATOM     22  C   UNL     1       5.272   4.248  16.235  0.00  0.00    +0.000 A 
ATOM     23  C   UNL     1       5.793   5.466  16.672  0.00  0.00    +0.000 A 
ATOM     24  C   UNL     1       5.149   6.195  17.677  0.00  0.00    +0.000 A 
ATOM     25  C   UNL     1       3.965   5.715  18.254  0.00  0.00    +0.000 A 
ATOM     26  C   UNL     1       3.430   4.507  17.786  0.00  0.00    +0.000 A 
ATOM     27  C   UNL     1       4.081   3.778  16.785  0.00  0.00    +0.000 A 
BRANCH  22  29
ATOM     28  C   UNL     1       6.708   4.487  14.369  0.00  0.00    +0.000 C 
ATOM     29  O   UNL     1       5.984   3.629  15.245  0.00  0.00    +0.000 OA
ENDBRANCH  22  29
ENDBRANCH  21  25
ENDBRANCH   1  21
TORSDOF 4
ENDMDL
MODEL 4
REMARK VINA RESULT:      -7.9      1.256      1.791
REMARK  Name = 
REMARK  6 active torsions:
REMARK  status: ('A' for Active; 'I' for Inactive)
REMARK    1  A    between atoms: C_1  and  O_2
REMARK    2  A    between atoms: O_2  and  C_3
REMARK    3  A    between atoms: C_6  and  C_7
REMARK    4  A    between atoms: C_7  and  N_8
REMARK    5  A    between atoms: N_13  and  C_14
REMARK    6  A    between atoms: C_17  and  C_18
REMARK                            x       y       z     vdW  Elec       q    Type
REMARK                         _______ _______ _______ _____ _____    ______ ____
ROOT
ATOM      1  N   UNL     1       2.210   7.754  19.123  0.00  0.00    +0.000 N 
ATOM      2  C   UNL     1       2.122   8.260  17.852  0.00  0.00    +0.000 A 
ATOM      3  N   UNL     1       1.358   9.335  17.801  0.00  0.00    +0.000 NA
ATOM      4  C   UNL     1       0.914   9.518  19.093  0.00  0.00    +0.000 A 
ATOM      5  C   UNL     1      -0.002  10.418  19.672  0.00  0.00    +0.000 A 
ATOM      6  N   UNL     1      -0.670  11.402  18.927  0.00  0.00    +0.000 N 
ATOM      7  N   UNL     1      -0.248  10.297  21.006  0.00  0.00    +0.000 NA
ATOM      8  C   UNL     1       0.383   9.333  21.698  0.00  0.00    +0.000 A 
ATOM      9 CL   UNL     1       0.012   9.256  23.364  0.00  0.00    +0.000 Cl
ATOM     10  N   UNL     1       1.235   8.399  21.248  0.00  0.00    +0.000 NA
ATOM     11  C   UNL     1       1.452   8.553  19.934  0.00  0.00    +0.000 A 
ATOM     12  H   UNL     1      -0.273  11.599  18.015  0.00  0.00    +0.000 HD
ENDROOT
BRANCH   6  13
ATOM     13  C   UNL     1      -1.938  11.957  19.188  0.00  0.00    +0.000 A 
ATOM     14  C   UNL     1      -3.085  11.422  18.580  0.00  0.00    +0.000 A 
ATOM     15  C   UNL     1      -4.366  11.881  18.890  0.00  0.00    +0.000 A 
ATOM     16  C   UNL     1      -4.541  12.885  19.843  0.00  0.00    +0.000 A 
ATOM     17  C   UNL     1      -5.919  13.331  20.236  0.00  0.00    +0.000 C 
ATOM     18  C   UNL     1      -3.410  13.445  20.450  0.00  0.00    +0.000 A 
ATOM     19  C   UNL     1      -2.123  12.992  20.117  0.00  0.00    +0.000 A 
ATOM     20 BR   UNL     1      -0.644  13.800  20.998  0.00  0.00    +0.000 Br
ENDBRANCH   6  13
BRANCH   1  21
ATOM     21  C   UNL     1       2.811   6.494  19.507  0.00  0.00    +0.000 C 
BRANCH  21  25
ATOM     22  C   UNL     1       4.973   4.700  16.221  0.00  0.00    +0.000 A 
ATOM     23  C   UNL     1       3.916   4.018  16.825  0.00  0.00    +0.000 A 
ATOM     24  C   UNL     1       3.220   4.590  17.896  0.00  0.00    +0.000 A 
ATOM     25  C   UNL     1       3.582   5.854  18.382  0.00  0.00    +0.000 A 
ATOM     26  C   UNL     1       4.665   6.518  17.792  0.00  0.00    +0.000 A 
ATOM     27  C   UNL     1       5.354   5.945  16.717  0.00  0.00    +0.000 A 
BRANCH  22  29
ATOM     28  C   UNL     1       6.757   4.649  14.667  0.00  0.00    +0.000 C 
ATOM     29  O   UNL     1       5.579   4.041  15.188  0.00  0.00    +0.000 OA
ENDBRANCH  22  29
ENDBRANCH  21  25
ENDBRANCH   1  21
TORSDOF 4
ENDMDL
MODEL 5
REMARK VINA RESULT:      -7.8      4.576     10.344
REMARK  Name = 
REMARK  6 active torsions:
REMARK  status: ('A' for Active; 'I' for Inactive)
REMARK    1  A    between atoms: C_1  and  O_2
REMARK    2  A    between atoms: O_2  and  C_3
REMARK    3  A    between atoms: C_6  and  C_7
REMARK    4  A    between atoms: C_7  and  N_8
REMARK    5  A    between atoms: N_13  and  C_14
REMARK    6  A    between atoms: C_17  and  C_18
REMARK                            x       y       z     vdW  Elec       q    Type
REMARK                         _______ _______ _______ _____ _____    ______ ____
ROOT
ATOM      1  N   UNL     1      -4.559  12.445  19.395  0.00  0.00    +0.000 N 
ATOM      2  C   UNL     1      -3.819  12.834  20.481  0.00  0.00    +0.000 A 
ATOM      3  N   UNL     1      -2.568  12.420  20.399  0.00  0.00    +0.000 NA
ATOM      4  C   UNL     1      -2.504  11.712  19.219  0.00  0.00    +0.000 A 
ATOM      5  C   UNL     1      -1.489  10.942  18.617  0.00  0.00    +0.000 A 
ATOM      6  N   UNL     1      -0.221  10.779  19.196  0.00  0.00    +0.000 N 
ATOM      7  N   UNL     1      -1.778  10.329  17.437  0.00  0.00    +0.000 NA
ATOM      8  C   UNL     1      -3.005  10.478  16.910  0.00  0.00    +0.000 A 
ATOM      9 CL   UNL     1      -3.277   9.670  15.430  0.00  0.00    +0.000 Cl
ATOM     10  N   UNL     1      -4.057  11.144  17.411  0.00  0.00    +0.000 NA
ATOM     11  C   UNL     1      -3.731  11.735  18.570  0.00  0.00    +0.000 A 
ATOM     12  H   UNL     1       0.011  11.441  19.927  0.00  0.00    +0.000 HD
ENDROOT
BRANCH   6  13
ATOM     13  C   UNL     1       0.646   9.677  19.055  0.00  0.00    +0.000 A 
ATOM     14  C   UNL     1       1.335   9.465  17.849  0.00  0.00    +0.000 A 
ATOM     15  C   UNL     1       2.274   8.443  17.707  0.00  0.00    +0.000 A 
ATOM     16  C   UNL     1       2.571   7.607  18.784  0.00  0.00    +0.000 A 
ATOM     17  C   UNL     1       3.633   6.554  18.660  0.00  0.00    +0.000 C 
ATOM     18  C   UNL     1       1.884   7.789  19.990  0.00  0.00    +0.000 A 
ATOM     19  C   UNL     1       0.925   8.807  20.119  0.00  0.00    +0.000 A 
ATOM     20 BR   UNL     1       0.048   8.991  21.796  0.00  0.00    +0.000 Br
ENDBRANCH   6  13
BRANCH   1  21
ATOM     21  C   UNL     1      -5.994  12.571  19.243  0.00  0.00    +0.000 C 
BRANCH  21  25
ATOM     22  C   UNL     1      -7.034  16.035  16.873  0.00  0.00    +0.000 A 
ATOM     23  C   UNL     1      -6.701  16.177  18.221  0.00  0.00    +0.000 A 
ATOM     24  C   UNL     1      -6.374  15.058  18.994  0.00  0.00    +0.000 A 
ATOM     25  C   UNL     1      -6.386  13.776  18.427  0.00  0.00    +0.000 A 
ATOM     26  C   UNL     1      -6.753  13.638  17.082  0.00  0.00    +0.000 A 
ATOM     27  C   UNL     1      -7.073  14.760  16.311  0.00  0.00    +0.000 A 
BRANCH  22  29
ATOM     28  C   UNL     1      -6.746  18.381  16.746  0.00  0.00    +0.000 C 
ATOM     29  O   UNL     1      -7.339  17.197  16.221  0.00  0.00    +0.000 OA
ENDBRANCH  22  29
ENDBRANCH  21  25
ENDBRANCH   1  21
TORSDOF 4
ENDMDL
MODEL 6
REMARK VINA RESULT:      -7.7      1.449      1.728
REMARK  Name = 
REMARK  6 active torsions:
REMARK  status: ('A' for Active; 'I' for Inactive)
REMARK    1  A    between atoms: C_1  and  O_2
REMARK    2  A    between atoms: O_2  and  C_3
REMARK    3  A    between atoms: C_6  and  C_7
REMARK    4  A    between atoms: C_7  and  N_8
REMARK    5  A    between atoms: N_13  and  C_14
REMARK    6  A    between atoms: C_17  and  C_18
REMARK                            x       y       z     vdW  Elec       q    Type
REMARK                         _______ _______ _______ _____ _____    ______ ____
ROOT
ATOM      1  N   UNL     1       2.231   7.553  19.229  0.00  0.00    +0.000 N 
ATOM      2  C   UNL     1       2.146   8.053  17.955  0.00  0.00    +0.000 A 
ATOM      3  N   UNL     1       1.476   9.189  17.915  0.00  0.00    +0.000 NA
ATOM      4  C   UNL     1       1.090   9.421  19.217  0.00  0.00    +0.000 A 
ATOM      5  C   UNL     1       0.273  10.402  19.814  0.00  0.00    +0.000 A 
ATOM      6  N   UNL     1      -0.331  11.433  19.079  0.00  0.00    +0.000 N 
ATOM      7  N   UNL     1       0.061  10.315  21.156  0.00  0.00    +0.000 NA
ATOM      8  C   UNL     1       0.629   9.306  21.840  0.00  0.00    +0.000 A 
ATOM      9 CL   UNL     1       0.305   9.276  23.517  0.00  0.00    +0.000 Cl
ATOM     10  N   UNL     1       1.383   8.298  21.375  0.00  0.00    +0.000 NA
ATOM     11  C   UNL     1       1.570   8.421  20.053  0.00  0.00    +0.000 A 
ATOM     12  H   UNL     1       0.052  11.587  18.153  0.00  0.00    +0.000 HD
ENDROOT
BRANCH   6  13
ATOM     13  C   UNL     1      -1.539  12.096  19.372  0.00  0.00    +0.000 A 
ATOM     14  C   UNL     1      -2.761  11.582  18.910  0.00  0.00    +0.000 A 
ATOM     15  C   UNL     1      -3.983  12.157  19.263  0.00  0.00    +0.000 A 
ATOM     16  C   UNL     1      -4.020  13.262  20.115  0.00  0.00    +0.000 A 
ATOM     17  C   UNL     1      -5.332  13.838  20.558  0.00  0.00    +0.000 C 
ATOM     18  C   UNL     1      -2.812  13.801  20.574  0.00  0.00    +0.000 A 
ATOM     19  C   UNL     1      -1.585  13.230  20.197  0.00  0.00    +0.000 A 
ATOM     20 BR   UNL     1       0.005  14.019  20.877  0.00  0.00    +0.000 Br
ENDBRANCH   6  13
BRANCH   1  21
ATOM     21  C   UNL     1       2.734   6.249  19.609  0.00  0.00    +0.000 C 
BRANCH  21  25
ATOM     22  C   UNL     1       5.170   4.373  16.569  0.00  0.00    +0.000 A 
ATOM     23  C   UNL     1       5.607   5.535  17.205  0.00  0.00    +0.000 A 
ATOM     24  C   UNL     1       4.818   6.152  18.182  0.00  0.00    +0.000 A 
ATOM     25  C   UNL     1       3.570   5.614  18.528  0.00  0.00    +0.000 A 
ATOM     26  C   UNL     1       3.123   4.466  17.862  0.00  0.00    +0.000 A 
ATOM     27  C   UNL     1       3.919   3.849  16.891  0.00  0.00    +0.000 A 
BRANCH  22  29
ATOM     28  C   UNL     1       5.773   4.254  14.284  0.00  0.00    +0.000 C 
ATOM     29  O   UNL     1       6.023   3.863  15.630  0.00  0.00    +0.000 OA
ENDBRANCH  22  29
ENDBRANCH  21  25
ENDBRANCH   1  21
TORSDOF 4
ENDMDL
MODEL 7
REMARK VINA RESULT:      -7.7      2.077      2.699
REMARK  Name = 
REMARK  6 active torsions:
REMARK  status: ('A' for Active; 'I' for Inactive)
REMARK    1  A    between atoms: C_1  and  O_2
REMARK    2  A    between atoms: O_2  and  C_3
REMARK    3  A    between atoms: C_6  and  C_7
REMARK    4  A    between atoms: C_7  and  N_8
REMARK    5  A    between atoms: N_13  and  C_14
REMARK    6  A    between atoms: C_17  and  C_18
REMARK                            x       y       z     vdW  Elec       q    Type
REMARK                         _______ _______ _______ _____ _____    ______ ____
ROOT
ATOM      1  N   UNL     1       2.328   8.274  18.967  0.00  0.00    +0.000 N 
ATOM      2  C   UNL     1       2.188   8.761  17.693  0.00  0.00    +0.000 A 
ATOM      3  N   UNL     1       1.249   9.685  17.619  0.00  0.00    +0.000 NA
ATOM      4  C   UNL     1       0.744   9.783  18.897  0.00  0.00    +0.000 A 
ATOM      5  C   UNL     1      -0.331  10.506  19.450  0.00  0.00    +0.000 A 
ATOM      6  N   UNL     1      -1.140  11.361  18.685  0.00  0.00    +0.000 N 
ATOM      7  N   UNL     1      -0.588  10.341  20.776  0.00  0.00    +0.000 NA
ATOM      8  C   UNL     1       0.183   9.500  21.487  0.00  0.00    +0.000 A 
ATOM      9 CL   UNL     1      -0.215   9.353  23.142  0.00  0.00    +0.000 Cl
ATOM     10  N   UNL     1       1.198   8.731  21.063  0.00  0.00    +0.000 NA
ATOM     11  C   UNL     1       1.420   8.925  19.755  0.00  0.00    +0.000 A 
ATOM     12  H   UNL     1      -0.759  11.627  17.784  0.00  0.00    +0.000 HD
ENDROOT
BRANCH   6  13
ATOM     13  C   UNL     1      -2.493  11.683  18.909  0.00  0.00    +0.000 A 
ATOM     14  C   UNL     1      -2.863  12.462  20.018  0.00  0.00    +0.000 A 
ATOM     15  C   UNL     1      -4.179  12.882  20.218  0.00  0.00    +0.000 A 
ATOM     16  C   UNL     1      -5.170  12.549  19.294  0.00  0.00    +0.000 A 
ATOM     17  C   UNL     1      -6.571  13.060  19.464  0.00  0.00    +0.000 C 
ATOM     18  C   UNL     1      -4.828  11.759  18.190  0.00  0.00    +0.000 A 
ATOM     19  C   UNL     1      -3.505  11.322  18.007  0.00  0.00    +0.000 A 
ATOM     20 BR   UNL     1      -3.127  10.263  16.475  0.00  0.00    +0.000 Br
ENDBRANCH   6  13
BRANCH   1  21
ATOM     21  C   UNL     1       3.131   7.137  19.370  0.00  0.00    +0.000 C 
BRANCH  21  25
ATOM     22  C   UNL     1       0.942   3.433  18.949  0.00  0.00    +0.000 A 
ATOM     23  C   UNL     1       1.104   4.017  20.206  0.00  0.00    +0.000 A 
ATOM     24  C   UNL     1       1.820   5.210  20.349  0.00  0.00    +0.000 A 
ATOM     25  C   UNL     1       2.394   5.831  19.230  0.00  0.00    +0.000 A 
ATOM     26  C   UNL     1       2.255   5.220  17.976  0.00  0.00    +0.000 A 
ATOM     27  C   UNL     1       1.533   4.031  17.838  0.00  0.00    +0.000 A 
BRANCH  22  29
ATOM     28  C   UNL     1       0.994   1.066  18.936  0.00  0.00    +0.000 C 
ATOM     29  O   UNL     1       0.228   2.267  18.934  0.00  0.00    +0.000 OA
ENDBRANCH  22  29
ENDBRANCH  21  25
ENDBRANCH   1  21
TORSDOF 4
ENDMDL
MODEL 8
REMARK VINA RESULT:      -7.6      1.866      2.275
REMARK  Name = 
REMARK  6 active torsions:
REMARK  status: ('A' for Active; 'I' for Inactive)
REMARK    1  A    between atoms: C_1  and  O_2
REMARK    2  A    between atoms: O_2  and  C_3
REMARK    3  A    between atoms: C_6  and  C_7
REMARK    4  A    between atoms: C_7  and  N_8
REMARK    5  A    between atoms: N_13  and  C_14
REMARK    6  A    between atoms: C_17  and  C_18
REMARK                            x       y       z     vdW  Elec       q    Type
REMARK                         _______ _______ _______ _____ _____    ______ ____
ROOT
ATOM      1  N   UNL     1       1.829   8.478  19.407  0.00  0.00    +0.000 N 
ATOM      2  C   UNL     1       1.752   8.590  18.043  0.00  0.00    +0.000 A 
ATOM      3  N   UNL     1       0.802   9.424  17.668  0.00  0.00    +0.000 NA
ATOM      4  C   UNL     1       0.222   9.854  18.842  0.00  0.00    +0.000 A 
ATOM      5  C   UNL     1      -0.898  10.663  19.118  0.00  0.00    +0.000 A 
ATOM      6  N   UNL     1      -1.678  11.245  18.107  0.00  0.00    +0.000 N 
ATOM      7  N   UNL     1      -1.227  10.861  20.424  0.00  0.00    +0.000 NA
ATOM      8  C   UNL     1      -0.482  10.276  21.378  0.00  0.00    +0.000 A 
ATOM      9 CL   UNL     1      -0.972  10.579  22.986  0.00  0.00    +0.000 Cl
ATOM     10  N   UNL     1       0.570   9.456  21.235  0.00  0.00    +0.000 NA
ATOM     11  C   UNL     1       0.864   9.289  19.937  0.00  0.00    +0.000 A 
ATOM     12  H   UNL     1      -1.251  11.266  17.188  0.00  0.00    +0.000 HD
ENDROOT
BRANCH   6  13
ATOM     13  C   UNL     1      -3.047  11.570  18.166  0.00  0.00    +0.000 A 
ATOM     14  C   UNL     1      -3.590  12.151  19.323  0.00  0.00    +0.000 A 
ATOM     15  C   UNL     1      -4.919  12.575  19.382  0.00  0.00    +0.000 A 
ATOM     16  C   UNL     1      -5.746  12.448  18.265  0.00  0.00    +0.000 A 
ATOM     17  C   UNL     1      -7.152  12.970  18.297  0.00  0.00    +0.000 C 
ATOM     18  C   UNL     1      -5.231  11.856  17.106  0.00  0.00    +0.000 A 
ATOM     19  C   UNL     1      -3.899  11.412  17.062  0.00  0.00    +0.000 A 
ATOM     20 BR   UNL     1      -3.279  10.631  15.443  0.00  0.00    +0.000 Br
ENDBRANCH   6  13
BRANCH   1  21
ATOM     21  C   UNL     1       2.628   7.525  20.149  0.00  0.00    +0.000 C 
BRANCH  21  25
ATOM     22  C   UNL     1       2.222   3.453  18.756  0.00  0.00    +0.000 A 
ATOM     23  C   UNL     1       3.119   4.324  18.136  0.00  0.00    +0.000 A 
ATOM     24  C   UNL     1       3.246   5.645  18.576  0.00  0.00    +0.000 A 
ATOM     25  C   UNL     1       2.466   6.116  19.642  0.00  0.00    +0.000 A 
ATOM     26  C   UNL     1       1.545   5.245  20.237  0.00  0.00    +0.000 A 
ATOM     27  C   UNL     1       1.425   3.922  19.798  0.00  0.00    +0.000 A 
BRANCH  22  29
ATOM     28  C   UNL     1       3.401   1.455  18.287  0.00  0.00    +0.000 C 
ATOM     29  O   UNL     1       2.182   2.188  18.237  0.00  0.00    +0.000 OA
ENDBRANCH  22  29
ENDBRANCH  21  25
ENDBRANCH   1  21
TORSDOF 4
ENDMDL
MODEL 9
REMARK VINA RESULT:      -7.4      1.826      2.258
REMARK  Name = 
REMARK  6 active torsions:
REMARK  status: ('A' for Active; 'I' for Inactive)
REMARK    1  A    between atoms: C_1  and  O_2
REMARK    2  A    between atoms: O_2  and  C_3
REMARK    3  A    between atoms: C_6  and  C_7
REMARK    4  A    between atoms: C_7  and  N_8
REMARK    5  A    between atoms: N_13  and  C_14
REMARK    6  A    between atoms: C_17  and  C_18
REMARK                            x       y       z     vdW  Elec       q    Type
REMARK                         _______ _______ _______ _____ _____    ______ ____
ROOT
ATOM      1  N   UNL     1       2.171   7.611  19.089  0.00  0.00    +0.000 N 
ATOM      2  C   UNL     1       2.144   8.221  17.862  0.00  0.00    +0.000 A 
ATOM      3  N   UNL     1       1.619   9.430  17.924  0.00  0.00    +0.000 NA
ATOM      4  C   UNL     1       1.270   9.599  19.247  0.00  0.00    +0.000 A 
ATOM      5  C   UNL     1       0.583  10.620  19.934  0.00  0.00    +0.000 A 
ATOM      6  N   UNL     1       0.108  11.775  19.294  0.00  0.00    +0.000 N 
ATOM      7  N   UNL     1       0.368  10.449  21.267  0.00  0.00    +0.000 NA
ATOM      8  C   UNL     1       0.810   9.325  21.857  0.00  0.00    +0.000 A 
ATOM      9 CL   UNL     1       0.492   9.196  23.531  0.00  0.00    +0.000 Cl
ATOM     10  N   UNL     1       1.432   8.274  21.301  0.00  0.00    +0.000 NA
ATOM     11  C   UNL     1       1.627   8.482  19.990  0.00  0.00    +0.000 A 
ATOM     12  H   UNL     1       0.503  11.957  18.378  0.00  0.00    +0.000 HD
ENDROOT
BRANCH   6  13
ATOM     13  C   UNL     1      -1.007  12.555  19.658  0.00  0.00    +0.000 A 
ATOM     14  C   UNL     1      -2.301  12.014  19.599  0.00  0.00    +0.000 A 
ATOM     15  C   UNL     1      -3.418  12.724  20.045  0.00  0.00    +0.000 A 
ATOM     16  C   UNL     1      -3.268  14.001  20.587  0.00  0.00    +0.000 A 
ATOM     17  C   UNL     1      -4.453  14.738  21.136  0.00  0.00    +0.000 C 
ATOM     18  C   UNL     1      -1.988  14.566  20.640  0.00  0.00    +0.000 A 
ATOM     19  C   UNL     1      -0.872  13.855  20.170  0.00  0.00    +0.000 A 
ATOM     20 BR   UNL     1       0.829  14.694  20.291  0.00  0.00    +0.000 Br
ENDBRANCH   6  13
BRANCH   1  21
ATOM     21  C   UNL     1       2.511   6.228  19.354  0.00  0.00    +0.000 C 
BRANCH  21  25
ATOM     22  C   UNL     1       6.168   5.086  17.350  0.00  0.00    +0.000 A 
ATOM     23  C   UNL     1       4.966   5.147  16.643  0.00  0.00    +0.000 A 
ATOM     24  C   UNL     1       3.778   5.506  17.289  0.00  0.00    +0.000 A 
ATOM     25  C   UNL     1       3.778   5.800  18.660  0.00  0.00    +0.000 A 
ATOM     26  C   UNL     1       4.982   5.704  19.370  0.00  0.00    +0.000 A 
ATOM     27  C   UNL     1       6.168   5.351  18.718  0.00  0.00    +0.000 A 
BRANCH  22  29
ATOM     28  C   UNL     1       7.078   4.687  15.202  0.00  0.00    +0.000 C 
ATOM     29  O   UNL     1       7.261   4.720  16.614  0.00  0.00    +0.000 OA
ENDBRANCH  22  29
ENDBRANCH  21  25
ENDBRANCH   1  21
TORSDOF 4
ENDMDL
