MODEL 1
REMARK VINA RESULT:      -9.5      0.000      0.000
REMARK  Name = 
REMARK  6 active torsions:
REMARK  status: ('A' for Active; 'I' for Inactive)
REMARK    1  A    between atoms: C_1  and  C_2
REMARK    2  A    between atoms: C_5  and  N_6
REMARK    3  A    between atoms: C_8  and  C_9
REMARK    4  A    between atoms: C_9  and  O_10
REMARK    5  A    between atoms: O_10  and  C_11
REMARK    6  A    between atoms: C_14  and  C_15
REMARK                            x       y       z     vdW  Elec       q    Type
REMARK                         _______ _______ _______ _____ _____    ______ ____
ROOT
ATOM      1  C   UNL     1       7.054   5.440  17.644  0.00  0.00    +0.000 A 
ATOM      2  C   UNL     1       6.896   6.466  16.723  0.00  0.00    +0.000 A 
ATOM      3  C   UNL     1       7.438   7.735  16.973  0.00  0.00    +0.000 A 
ATOM      4  C   UNL     1       8.140   8.031  18.166  0.00  0.00    +0.000 A 
ATOM      5  C   UNL     1       8.262   7.001  19.102  0.00  0.00    +0.000 A 
ATOM      6  C   UNL     1       7.730   5.713  18.837  0.00  0.00    +0.000 A 
ENDROOT
BRANCH   4   7
ATOM      7  C   UNL     1       8.714   9.381  18.351  0.00  0.00    +0.000 A 
ATOM      8  N   UNL     1       9.169  10.337  17.541  0.00  0.00    +0.000 NA
ATOM      9  C   UNL     1       9.720  11.300  18.415  0.00  0.00    +0.000 A 
ATOM     10  C   UNL     1       9.503  10.855  19.696  0.00  0.00    +0.000 A 
ATOM     11  C   UNL     1       9.978  11.391  20.892  0.00  0.00    +0.000 A 
ATOM     12  C   UNL     1      10.937  12.353  20.633  0.00  0.00    +0.000 A 
ATOM     13  C   UNL     1      10.898  13.111  19.482  0.00  0.00    +0.000 A 
ATOM     14  C   UNL     1      11.370  14.420  19.599  0.00  0.00    +0.000 A 
ATOM     15  C   UNL     1      11.467  15.214  18.464  0.00  0.00    +0.000 A 
ATOM     16  C   UNL     1      11.165  14.666  17.228  0.00  0.00    +0.000 A 
ATOM     17  C   UNL     1      10.628  13.356  17.125  0.00  0.00    +0.000 A 
ATOM     18  C   UNL     1      10.387  12.573  18.267  0.00  0.00    +0.000 A 
ATOM     19  O   UNL     1       8.818   9.687  19.675  0.00  0.00    +0.000 OA
ENDBRANCH   4   7
BRANCH   1  20
ATOM     20  O   UNL     1       6.466   4.256  17.292  0.00  0.00    +0.000 OA
BRANCH  20  21
ATOM     21  C   UNL     1       5.087   4.299  16.893  0.00  0.00    +0.000 C 
BRANCH  21  24
ATOM     22  N   UNL     1       2.979   6.506  18.948  0.00  0.00    +0.000 N 
ATOM     23  C   UNL     1       3.497   6.216  17.694  0.00  0.00    +0.000 A 
ATOM     24  C   UNL     1       4.248   5.076  17.864  0.00  0.00    +0.000 A 
ATOM     25  N   UNL     1       4.160   4.688  19.169  0.00  0.00    +0.000 NA
ATOM     26  N   UNL     1       3.384   5.557  19.819  0.00  0.00    +0.000 NA
BRANCH  22  31
ATOM     27  C   UNL     1      -0.348  10.936  20.478  0.00  0.00    +0.000 C 
ATOM     28  C   UNL     1       0.523   9.779  20.084  0.00  0.00    +0.000 A 
ATOM     29  C   UNL     1       0.816   8.762  20.999  0.00  0.00    +0.000 A 
ATOM     30  C   UNL     1       1.625   7.682  20.628  0.00  0.00    +0.000 A 
ATOM     31  C   UNL     1       2.156   7.602  19.341  0.00  0.00    +0.000 A 
ATOM     32  C   UNL     1       1.862   8.624  18.415  0.00  0.00    +0.000 A 
ATOM     33  C   UNL     1       1.048   9.702  18.789  0.00  0.00    +0.000 A 
ENDBRANCH  22  31
ENDBRANCH  21  24
ENDBRANCH  20  21
ENDBRANCH   1  20
TORSDOF 5
ENDMDL
MODEL 2
REMARK VINA RESULT:      -9.3      0.797      1.432
REMARK  Name = 
REMARK  6 active torsions:
REMARK  status: ('A' for Active; 'I' for Inactive)
REMARK    1  A    between atoms: C_1  and  C_2
REMARK    2  A    between atoms: C_5  and  N_6
REMARK    3  A    between atoms: C_8  and  C_9
REMARK    4  A    between atoms: C_9  and  O_10
REMARK    5  A    between atoms: O_10  and  C_11
REMARK    6  A    between atoms: C_14  and  C_15
REMARK                            x       y       z     vdW  Elec       q    Type
REMARK                         _______ _______ _______ _____ _____    ______ ____
ROOT
ATOM      1  C   UNL     1       7.365   5.747  17.915  0.00  0.00    +0.000 A 
ATOM      2  C   UNL     1       8.019   6.145  19.072  0.00  0.00    +0.000 A 
ATOM      3  C   UNL     1       8.451   7.471  19.224  0.00  0.00    +0.000 A 
ATOM      4  C   UNL     1       8.264   8.443  18.213  0.00  0.00    +0.000 A 
ATOM      5  C   UNL     1       7.637   8.022  17.037  0.00  0.00    +0.000 A 
ATOM      6  C   UNL     1       7.183   6.686  16.895  0.00  0.00    +0.000 A 
ENDROOT
BRANCH   4   7
ATOM      7  C   UNL     1       8.714   9.831  18.452  0.00  0.00    +0.000 A 
ATOM      8  N   UNL     1       8.532  11.005  17.848  0.00  0.00    +0.000 NA
ATOM      9  C   UNL     1       9.395  11.887  18.533  0.00  0.00    +0.000 A 
ATOM     10  C   UNL     1       9.997  11.168  19.536  0.00  0.00    +0.000 A 
ATOM     11  C   UNL     1      11.023  11.564  20.393  0.00  0.00    +0.000 A 
ATOM     12  C   UNL     1      11.566  12.760  19.960  0.00  0.00    +0.000 A 
ATOM     13  C   UNL     1      10.802  13.691  19.288  0.00  0.00    +0.000 A 
ATOM     14  C   UNL     1      11.134  15.029  19.516  0.00  0.00    +0.000 A 
ATOM     15  C   UNL     1      10.487  16.024  18.795  0.00  0.00    +0.000 A 
ATOM     16  C   UNL     1       9.580  15.665  17.811  0.00  0.00    +0.000 A 
ATOM     17  C   UNL     1       9.203  14.308  17.630  0.00  0.00    +0.000 A 
ATOM     18  C   UNL     1       9.735  13.288  18.435  0.00  0.00    +0.000 A 
ATOM     19  O   UNL     1       9.534   9.895  19.539  0.00  0.00    +0.000 OA
ENDBRANCH   4   7
BRANCH   1  20
ATOM     20  O   UNL     1       7.010   4.427  17.881  0.00  0.00    +0.000 OA
BRANCH  20  21
ATOM     21  C   UNL     1       5.676   4.115  17.452  0.00  0.00    +0.000 C 
BRANCH  21  24
ATOM     22  N   UNL     1       3.195   6.432  18.869  0.00  0.00    +0.000 N 
ATOM     23  C   UNL     1       3.985   6.082  17.783  0.00  0.00    +0.000 A 
ATOM     24  C   UNL     1       4.650   4.943  18.169  0.00  0.00    +0.000 A 
ATOM     25  N   UNL     1       4.253   4.613  19.431  0.00  0.00    +0.000 NA
ATOM     26  N   UNL     1       3.366   5.518  19.847  0.00  0.00    +0.000 NA
BRANCH  22  31
ATOM     27  C   UNL     1      -0.299  10.950  19.514  0.00  0.00    +0.000 C 
ATOM     28  C   UNL     1       0.611   9.770  19.341  0.00  0.00    +0.000 A 
ATOM     29  C   UNL     1       1.155   9.467  18.088  0.00  0.00    +0.000 A 
ATOM     30  C   UNL     1       2.007   8.368  17.929  0.00  0.00    +0.000 A 
ATOM     31  C   UNL     1       2.326   7.554  19.016  0.00  0.00    +0.000 A 
ATOM     32  C   UNL     1       1.781   7.856  20.280  0.00  0.00    +0.000 A 
ATOM     33  C   UNL     1       0.931   8.961  20.436  0.00  0.00    +0.000 A 
ENDBRANCH  22  31
ENDBRANCH  21  24
ENDBRANCH  20  21
ENDBRANCH   1  20
TORSDOF 5
ENDMDL
MODEL 3
REMARK VINA RESULT:      -9.0      2.376      8.756
REMARK  Name = 
REMARK  6 active torsions:
REMARK  status: ('A' for Active; 'I' for Inactive)
REMARK    1  A    between atoms: C_1  and  C_2
REMARK    2  A    between atoms: C_5  and  N_6
REMARK    3  A    between atoms: C_8  and  C_9
REMARK    4  A    between atoms: C_9  and  O_10
REMARK    5  A    between atoms: O_10  and  C_11
REMARK    6  A    between atoms: C_14  and  C_15
REMARK                            x       y       z     vdW  Elec       q    Type
REMARK                         _______ _______ _______ _____ _____    ______ ____
ROOT
ATOM      1  C   UNL     1       4.258   6.003  17.986  0.00  0.00    +0.000 A 
ATOM      2  C   UNL     1       3.798   5.799  19.279  0.00  0.00    +0.000 A 
ATOM      3  C   UNL     1       2.848   6.666  19.841  0.00  0.00    +0.000 A 
ATOM      4  C   UNL     1       2.340   7.783  19.136  0.00  0.00    +0.000 A 
ATOM      5  C   UNL     1       2.838   7.999  17.848  0.00  0.00    +0.000 A 
ATOM      6  C   UNL     1       3.782   7.109  17.276  0.00  0.00    +0.000 A 
ENDROOT
BRANCH   4   7
ATOM      7  C   UNL     1       1.317   8.637  19.775  0.00  0.00    +0.000 A 
ATOM      8  N   UNL     1       0.659   9.745  19.435  0.00  0.00    +0.000 NA
ATOM      9  C   UNL     1      -0.053  10.099  20.602  0.00  0.00    +0.000 A 
ATOM     10  C   UNL     1       0.206   9.134  21.543  0.00  0.00    +0.000 A 
ATOM     11  C   UNL     1      -0.160   9.114  22.888  0.00  0.00    +0.000 A 
ATOM     12  C   UNL     1      -0.653  10.350  23.264  0.00  0.00    +0.000 A 
ATOM     13  C   UNL     1      -1.307  11.163  22.363  0.00  0.00    +0.000 A 
ATOM     14  C   UNL     1      -2.330  11.955  22.890  0.00  0.00    +0.000 A 
ATOM     15  C   UNL     1      -2.964  12.882  22.072  0.00  0.00    +0.000 A 
ATOM     16  C   UNL     1      -2.517  13.054  20.772  0.00  0.00    +0.000 A 
ATOM     17  C   UNL     1      -1.520  12.202  20.227  0.00  0.00    +0.000 A 
ATOM     18  C   UNL     1      -0.953  11.163  20.984  0.00  0.00    +0.000 A 
ATOM     19  O   UNL     1       1.011   8.177  21.022  0.00  0.00    +0.000 OA
ENDBRANCH   4   7
BRANCH   1  20
ATOM     20  O   UNL     1       5.193   5.101  17.560  0.00  0.00    +0.000 OA
BRANCH  20  21
ATOM     21  C   UNL     1       6.273   5.601  16.758  0.00  0.00    +0.000 C 
BRANCH  21  24
ATOM     22  N   UNL     1       8.127   8.421  18.223  0.00  0.00    +0.000 N 
ATOM     23  C   UNL     1       7.219   7.986  17.268  0.00  0.00    +0.000 A 
ATOM     24  C   UNL     1       7.078   6.636  17.488  0.00  0.00    +0.000 A 
ATOM     25  N   UNL     1       7.857   6.285  18.550  0.00  0.00    +0.000 NA
ATOM     26  N   UNL     1       8.486   7.374  18.995  0.00  0.00    +0.000 NA
BRANCH  22  31
ATOM     27  C   UNL     1      10.199  13.727  18.995  0.00  0.00    +0.000 C 
ATOM     28  C   UNL     1       9.663  12.340  18.795  0.00  0.00    +0.000 A 
ATOM     29  C   UNL     1      10.050  11.296  19.643  0.00  0.00    +0.000 A 
ATOM     30  C   UNL     1       9.546  10.003  19.457  0.00  0.00    +0.000 A 
ATOM     31  C   UNL     1       8.651   9.733  18.423  0.00  0.00    +0.000 A 
ATOM     32  C   UNL     1       8.257  10.782  17.566  0.00  0.00    +0.000 A 
ATOM     33  C   UNL     1       8.761  12.075  17.758  0.00  0.00    +0.000 A 
ENDBRANCH  22  31
ENDBRANCH  21  24
ENDBRANCH  20  21
ENDBRANCH   1  20
TORSDOF 5
ENDMDL
MODEL 4
REMARK VINA RESULT:      -8.9      1.167      2.045
REMARK  Name = 
REMARK  6 active torsions:
REMARK  status: ('A' for Active; 'I' for Inactive)
REMARK    1  A    between atoms: C_1  and  C_2
REMARK    2  A    between atoms: C_5  and  N_6
REMARK    3  A    between atoms: C_8  and  C_9
REMARK    4  A    between atoms: C_9  and  O_10
REMARK    5  A    between atoms: O_10  and  C_11
REMARK    6  A    between atoms: C_14  and  C_15
REMARK                            x       y       z     vdW  Elec       q    Type
REMARK                         _______ _______ _______ _____ _____    ______ ____
ROOT
ATOM      1  C   UNL     1       7.027   5.465  18.074  0.00  0.00    +0.000 A 
ATOM      2  C   UNL     1       7.853   5.863  19.115  0.00  0.00    +0.000 A 
ATOM      3  C   UNL     1       8.368   7.167  19.155  0.00  0.00    +0.000 A 
ATOM      4  C   UNL     1       8.095   8.115  18.140  0.00  0.00    +0.000 A 
ATOM      5  C   UNL     1       7.291   7.692  17.079  0.00  0.00    +0.000 A 
ATOM      6  C   UNL     1       6.755   6.379  17.052  0.00  0.00    +0.000 A 
ENDROOT
BRANCH   4   7
ATOM      7  C   UNL     1       8.644   9.482  18.261  0.00  0.00    +0.000 A 
ATOM      8  N   UNL     1       9.597  10.060  18.992  0.00  0.00    +0.000 NA
ATOM      9  C   UNL     1       9.470  11.437  18.704  0.00  0.00    +0.000 A 
ATOM     10  C   UNL     1       8.467  11.565  17.775  0.00  0.00    +0.000 A 
ATOM     11  C   UNL     1       7.886  12.733  17.281  0.00  0.00    +0.000 A 
ATOM     12  C   UNL     1       8.294  13.819  18.033  0.00  0.00    +0.000 A 
ATOM     13  C   UNL     1       9.530  13.845  18.642  0.00  0.00    +0.000 A 
ATOM     14  C   UNL     1      10.137  15.100  18.735  0.00  0.00    +0.000 A 
ATOM     15  C   UNL     1      11.332  15.229  19.431  0.00  0.00    +0.000 A 
ATOM     16  C   UNL     1      11.859  14.125  20.082  0.00  0.00    +0.000 A 
ATOM     17  C   UNL     1      11.269  12.842  19.930  0.00  0.00    +0.000 A 
ATOM     18  C   UNL     1      10.137  12.649  19.121  0.00  0.00    +0.000 A 
ATOM     19  O   UNL     1       7.982  10.346  17.439  0.00  0.00    +0.000 OA
ENDBRANCH   4   7
BRANCH   1  20
ATOM     20  O   UNL     1       6.603   4.167  18.141  0.00  0.00    +0.000 OA
BRANCH  20  21
ATOM     21  C   UNL     1       5.462   3.888  18.966  0.00  0.00    +0.000 C 
BRANCH  21  24
ATOM     22  N   UNL     1       2.877   6.502  18.826  0.00  0.00    +0.000 N 
ATOM     23  C   UNL     1       4.005   6.003  19.461  0.00  0.00    +0.000 A 
ATOM     24  C   UNL     1       4.359   4.882  18.748  0.00  0.00    +0.000 A 
ATOM     25  N   UNL     1       3.487   4.732  17.711  0.00  0.00    +0.000 NA
ATOM     26  N   UNL     1       2.594   5.722  17.761  0.00  0.00    +0.000 NA
BRANCH  22  31
ATOM     27  C   UNL     1      -0.301  11.065  20.282  0.00  0.00    +0.000 C 
ATOM     28  C   UNL     1       0.526   9.874  19.897  0.00  0.00    +0.000 A 
ATOM     29  C   UNL     1       0.967   9.706  18.580  0.00  0.00    +0.000 A 
ATOM     30  C   UNL     1       1.741   8.596  18.223  0.00  0.00    +0.000 A 
ATOM     31  C   UNL     1       2.086   7.637  19.174  0.00  0.00    +0.000 A 
ATOM     32  C   UNL     1       1.645   7.801  20.503  0.00  0.00    +0.000 A 
ATOM     33  C   UNL     1       0.873   8.916  20.857  0.00  0.00    +0.000 A 
ENDBRANCH  22  31
ENDBRANCH  21  24
ENDBRANCH  20  21
ENDBRANCH   1  20
TORSDOF 5
ENDMDL
MODEL 5
REMARK VINA RESULT:      -8.9      1.012      1.750
REMARK  Name = 
REMARK  6 active torsions:
REMARK  status: ('A' for Active; 'I' for Inactive)
REMARK    1  A    between atoms: C_1  and  C_2
REMARK    2  A    between atoms: C_5  and  N_6
REMARK    3  A    between atoms: C_8  and  C_9
REMARK    4  A    between atoms: C_9  and  O_10
REMARK    5  A    between atoms: O_10  and  C_11
REMARK    6  A    between atoms: C_14  and  C_15
REMARK                            x       y       z     vdW  Elec       q    Type
REMARK                         _______ _______ _______ _____ _____    ______ ____
ROOT
ATOM      1  C   UNL     1       6.637   5.338  17.639  0.00  0.00    +0.000 A 
ATOM      2  C   UNL     1       6.352   6.400  16.793  0.00  0.00    +0.000 A 
ATOM      3  C   UNL     1       6.958   7.649  16.990  0.00  0.00    +0.000 A 
ATOM      4  C   UNL     1       7.858   7.889  18.056  0.00  0.00    +0.000 A 
ATOM      5  C   UNL     1       8.110   6.822  18.923  0.00  0.00    +0.000 A 
ATOM      6  C   UNL     1       7.510   5.555  18.709  0.00  0.00    +0.000 A 
ENDROOT
BRANCH   4   7
ATOM      7  C   UNL     1       8.487   9.220  18.186  0.00  0.00    +0.000 A 
ATOM      8  N   UNL     1       9.483   9.731  18.909  0.00  0.00    +0.000 NA
ATOM      9  C   UNL     1       9.432  11.117  18.641  0.00  0.00    +0.000 A 
ATOM     10  C   UNL     1       8.424  11.316  17.731  0.00  0.00    +0.000 A 
ATOM     11  C   UNL     1       7.904  12.522  17.262  0.00  0.00    +0.000 A 
ATOM     12  C   UNL     1       8.385  13.572  18.021  0.00  0.00    +0.000 A 
ATOM     13  C   UNL     1       9.631  13.518  18.611  0.00  0.00    +0.000 A 
ATOM     14  C   UNL     1      10.311  14.734  18.711  0.00  0.00    +0.000 A 
ATOM     15  C   UNL     1      11.522  14.784  19.389  0.00  0.00    +0.000 A 
ATOM     16  C   UNL     1      11.993  13.642  20.016  0.00  0.00    +0.000 A 
ATOM     17  C   UNL     1      11.328  12.398  19.856  0.00  0.00    +0.000 A 
ATOM     18  C   UNL     1      10.175  12.282  19.063  0.00  0.00    +0.000 A 
ATOM     19  O   UNL     1       7.864  10.132  17.387  0.00  0.00    +0.000 OA
ENDBRANCH   4   7
BRANCH   1  20
ATOM     20  O   UNL     1       5.969   4.180  17.353  0.00  0.00    +0.000 OA
BRANCH  20  21
ATOM     21  C   UNL     1       4.581   4.288  17.006  0.00  0.00    +0.000 C 
BRANCH  21  24
ATOM     22  N   UNL     1       2.647   6.465  19.255  0.00  0.00    +0.000 N 
ATOM     23  C   UNL     1       3.145   6.247  17.979  0.00  0.00    +0.000 A 
ATOM     24  C   UNL     1       3.802   5.040  18.045  0.00  0.00    +0.000 A 
ATOM     25  N   UNL     1       3.678   4.547  19.310  0.00  0.00    +0.000 NA
ATOM     26  N   UNL     1       2.972   5.413  20.037  0.00  0.00    +0.000 NA
BRANCH  22  31
ATOM     27  C   UNL     1      -0.309  10.956  21.287  0.00  0.00    +0.000 C 
ATOM     28  C   UNL     1       0.460   9.785  20.751  0.00  0.00    +0.000 A 
ATOM     29  C   UNL     1       0.969   9.800  19.448  0.00  0.00    +0.000 A 
ATOM     30  C   UNL     1       1.690   8.708  18.951  0.00  0.00    +0.000 A 
ATOM     31  C   UNL     1       1.912   7.584  19.746  0.00  0.00    +0.000 A 
ATOM     32  C   UNL     1       1.402   7.564  21.061  0.00  0.00    +0.000 A 
ATOM     33  C   UNL     1       0.684   8.662  21.555  0.00  0.00    +0.000 A 
ENDBRANCH  22  31
ENDBRANCH  21  24
ENDBRANCH  20  21
ENDBRANCH   1  20
TORSDOF 5
ENDMDL
MODEL 6
REMARK VINA RESULT:      -8.9      2.253      8.480
REMARK  Name = 
REMARK  6 active torsions:
REMARK  status: ('A' for Active; 'I' for Inactive)
REMARK    1  A    between atoms: C_1  and  C_2
REMARK    2  A    between atoms: C_5  and  N_6
REMARK    3  A    between atoms: C_8  and  C_9
REMARK    4  A    between atoms: C_9  and  O_10
REMARK    5  A    between atoms: O_10  and  C_11
REMARK    6  A    between atoms: C_14  and  C_15
REMARK                            x       y       z     vdW  Elec       q    Type
REMARK                         _______ _______ _______ _____ _____    ______ ____
ROOT
ATOM      1  C   UNL     1       4.360   5.478  18.181  0.00  0.00    +0.000 A 
ATOM      2  C   UNL     1       3.922   6.574  17.452  0.00  0.00    +0.000 A 
ATOM      3  C   UNL     1       2.986   7.463  17.999  0.00  0.00    +0.000 A 
ATOM      4  C   UNL     1       2.435   7.276  19.290  0.00  0.00    +0.000 A 
ATOM      5  C   UNL     1       2.857   6.149  20.001  0.00  0.00    +0.000 A 
ATOM      6  C   UNL     1       3.819   5.263  19.452  0.00  0.00    +0.000 A 
ENDROOT
BRANCH   4   7
ATOM      7  C   UNL     1       1.477   8.270  19.819  0.00  0.00    +0.000 A 
ATOM      8  N   UNL     1       0.999   9.441  19.401  0.00  0.00    +0.000 NA
ATOM      9  C   UNL     1       0.238   9.916  20.492  0.00  0.00    +0.000 A 
ATOM     10  C   UNL     1       0.288   8.953  21.470  0.00  0.00    +0.000 A 
ATOM     11  C   UNL     1      -0.195   9.018  22.776  0.00  0.00    +0.000 A 
ATOM     12  C   UNL     1      -0.557  10.316  23.084  0.00  0.00    +0.000 A 
ATOM     13  C   UNL     1      -1.019  11.180  22.113  0.00  0.00    +0.000 A 
ATOM     14  C   UNL     1      -1.975  12.109  22.531  0.00  0.00    +0.000 A 
ATOM     15  C   UNL     1      -2.411  13.084  21.643  0.00  0.00    +0.000 A 
ATOM     16  C   UNL     1      -1.833  13.161  20.386  0.00  0.00    +0.000 A 
ATOM     17  C   UNL     1      -0.909  12.175  19.949  0.00  0.00    +0.000 A 
ATOM     18  C   UNL     1      -0.549  11.095  20.772  0.00  0.00    +0.000 A 
ATOM     19  O   UNL     1       1.006   7.888  21.040  0.00  0.00    +0.000 OA
ENDBRANCH   4   7
BRANCH   1  20
ATOM     20  O   UNL     1       5.259   4.678  17.532  0.00  0.00    +0.000 OA
BRANCH  20  21
ATOM     21  C   UNL     1       6.623   4.725  17.977  0.00  0.00    +0.000 C 
BRANCH  21  24
ATOM     22  N   UNL     1       8.050   8.115  17.901  0.00  0.00    +0.000 N 
ATOM     23  C   UNL     1       7.572   7.062  18.668  0.00  0.00    +0.000 A 
ATOM     24  C   UNL     1       7.234   6.080  17.768  0.00  0.00    +0.000 A 
ATOM     25  N   UNL     1       7.523   6.523  16.511  0.00  0.00    +0.000 NA
ATOM     26  N   UNL     1       8.023   7.756  16.600  0.00  0.00    +0.000 NA
BRANCH  22  31
ATOM     27  C   UNL     1       9.861  13.301  19.594  0.00  0.00    +0.000 C 
ATOM     28  C   UNL     1       9.393  11.945  19.155  0.00  0.00    +0.000 A 
ATOM     29  C   UNL     1       9.618  10.819  19.953  0.00  0.00    +0.000 A 
ATOM     30  C   UNL     1       9.177   9.555  19.543  0.00  0.00    +0.000 A 
ATOM     31  C   UNL     1       8.508   9.396  18.330  0.00  0.00    +0.000 A 
ATOM     32  C   UNL     1       8.278  10.528  17.522  0.00  0.00    +0.000 A 
ATOM     33  C   UNL     1       8.717  11.793  17.938  0.00  0.00    +0.000 A 
ENDBRANCH  22  31
ENDBRANCH  21  24
ENDBRANCH  20  21
ENDBRANCH   1  20
TORSDOF 5
ENDMDL
MODEL 7
REMARK VINA RESULT:      -8.8      6.321      9.721
REMARK  Name = 
REMARK  6 active torsions:
REMARK  status: ('A' for Active; 'I' for Inactive)
REMARK    1  A    between atoms: C_1  and  C_2
REMARK    2  A    between atoms: C_5  and  N_6
REMARK    3  A    between atoms: C_8  and  C_9
REMARK    4  A    between atoms: C_9  and  O_10
REMARK    5  A    between atoms: O_10  and  C_11
REMARK    6  A    between atoms: C_14  and  C_15
REMARK                            x       y       z     vdW  Elec       q    Type
REMARK                         _______ _______ _______ _____ _____    ______ ____
ROOT
ATOM      1  C   UNL     1      -0.557  11.455  22.525  0.00  0.00    +0.000 A 
ATOM      2  C   UNL     1       0.403  11.642  21.541  0.00  0.00    +0.000 A 
ATOM      3  C   UNL     1       1.042  10.541  20.952  0.00  0.00    +0.000 A 
ATOM      4  C   UNL     1       0.759   9.210  21.343  0.00  0.00    +0.000 A 
ATOM      5  C   UNL     1      -0.183   9.036  22.360  0.00  0.00    +0.000 A 
ATOM      6  C   UNL     1      -0.842  10.150  22.939  0.00  0.00    +0.000 A 
ENDROOT
BRANCH   4   7
ATOM      7  C   UNL     1       1.445   8.094  20.659  0.00  0.00    +0.000 A 
ATOM      8  N   UNL     1       2.216   7.974  19.578  0.00  0.00    +0.000 NA
ATOM      9  C   UNL     1       2.385   6.581  19.423  0.00  0.00    +0.000 A 
ATOM     10  C   UNL     1       1.730   5.975  20.467  0.00  0.00    +0.000 A 
ATOM     11  C   UNL     1       1.500   4.615  20.675  0.00  0.00    +0.000 A 
ATOM     12  C   UNL     1       1.825   3.901  19.536  0.00  0.00    +0.000 A 
ATOM     13  C   UNL     1       2.817   4.330  18.680  0.00  0.00    +0.000 A 
ATOM     14  C   UNL     1       3.549   3.324  18.044  0.00  0.00    +0.000 A 
ATOM     15  C   UNL     1       4.492   3.671  17.084  0.00  0.00    +0.000 A 
ATOM     16  C   UNL     1       4.633   5.001  16.725  0.00  0.00    +0.000 A 
ATOM     17  C   UNL     1       3.931   6.021  17.421  0.00  0.00    +0.000 A 
ATOM     18  C   UNL     1       3.072   5.718  18.490  0.00  0.00    +0.000 A 
ATOM     19  O   UNL     1       1.190   6.910  21.285  0.00  0.00    +0.000 OA
ENDBRANCH   4   7
BRANCH   1  20
ATOM     20  O   UNL     1      -1.093  12.607  23.031  0.00  0.00    +0.000 OA
BRANCH  20  21
ATOM     21  C   UNL     1      -1.597  13.567  22.090  0.00  0.00    +0.000 C 
BRANCH  21  24
ATOM     22  N   UNL     1      -3.086  11.998  19.115  0.00  0.00    +0.000 N 
ATOM     23  C   UNL     1      -1.942  12.471  19.741  0.00  0.00    +0.000 A 
ATOM     24  C   UNL     1      -2.357  12.911  20.975  0.00  0.00    +0.000 A 
ATOM     25  N   UNL     1      -3.697  12.686  21.089  0.00  0.00    +0.000 NA
ATOM     26  N   UNL     1      -4.132  12.126  19.960  0.00  0.00    +0.000 NA
BRANCH  22  31
ATOM     27  C   UNL     1      -3.691   9.852  13.817  0.00  0.00    +0.000 C 
ATOM     28  C   UNL     1      -3.530  10.407  15.201  0.00  0.00    +0.000 A 
ATOM     29  C   UNL     1      -2.390  10.119  15.959  0.00  0.00    +0.000 A 
ATOM     30  C   UNL     1      -2.240  10.641  17.249  0.00  0.00    +0.000 A 
ATOM     31  C   UNL     1      -3.226  11.456  17.803  0.00  0.00    +0.000 A 
ATOM     32  C   UNL     1      -4.377  11.750  17.044  0.00  0.00    +0.000 A 
ATOM     33  C   UNL     1      -4.521  11.229  15.750  0.00  0.00    +0.000 A 
ENDBRANCH  22  31
ENDBRANCH  21  24
ENDBRANCH  20  21
ENDBRANCH   1  20
TORSDOF 5
ENDMDL
MODEL 8
REMARK VINA RESULT:      -8.6      5.991     11.305
REMARK  Name = 
REMARK  6 active torsions:
REMARK  status: ('A' for Active; 'I' for Inactive)
REMARK    1  A    between atoms: C_1  and  C_2
REMARK    2  A    between atoms: C_5  and  N_6
REMARK    3  A    between atoms: C_8  and  C_9
REMARK    4  A    between atoms: C_9  and  O_10
REMARK    5  A    between atoms: O_10  and  C_11
REMARK    6  A    between atoms: C_14  and  C_15
REMARK                            x       y       z     vdW  Elec       q    Type
REMARK                         _______ _______ _______ _____ _____    ______ ____
ROOT
ATOM      1  C   UNL     1       0.908   9.283  21.578  0.00  0.00    +0.000 A 
ATOM      2  C   UNL     1       0.456  10.186  20.627  0.00  0.00    +0.000 A 
ATOM      3  C   UNL     1      -0.469  11.181  20.975  0.00  0.00    +0.000 A 
ATOM      4  C   UNL     1      -0.994  11.296  22.285  0.00  0.00    +0.000 A 
ATOM      5  C   UNL     1      -0.558  10.359  23.225  0.00  0.00    +0.000 A 
ATOM      6  C   UNL     1       0.392   9.366  22.875  0.00  0.00    +0.000 A 
ENDROOT
BRANCH   4   7
ATOM      7  C   UNL     1      -1.941  12.389  22.592  0.00  0.00    +0.000 A 
ATOM      8  N   UNL     1      -1.969  13.405  23.454  0.00  0.00    +0.000 NA
ATOM      9  C   UNL     1      -3.261  13.955  23.301  0.00  0.00    +0.000 A 
ATOM     10  C   UNL     1      -3.891  13.241  22.311  0.00  0.00    +0.000 A 
ATOM     11  C   UNL     1      -5.219  13.321  21.896  0.00  0.00    +0.000 A 
ATOM     12  C   UNL     1      -5.949  14.085  22.787  0.00  0.00    +0.000 A 
ATOM     13  C   UNL     1      -5.365  15.114  23.495  0.00  0.00    +0.000 A 
ATOM     14  C   UNL     1      -6.187  16.209  23.767  0.00  0.00    +0.000 A 
ATOM     15  C   UNL     1      -5.708  17.238  24.568  0.00  0.00    +0.000 A 
ATOM     16  C   UNL     1      -4.453  17.120  25.142  0.00  0.00    +0.000 A 
ATOM     17  C   UNL     1      -3.601  16.034  24.809  0.00  0.00    +0.000 A 
ATOM     18  C   UNL     1      -3.999  15.046  23.895  0.00  0.00    +0.000 A 
ATOM     19  O   UNL     1      -3.056  12.298  21.813  0.00  0.00    +0.000 OA
ENDBRANCH   4   7
BRANCH   1  20
ATOM     20  O   UNL     1       1.794   8.352  21.111  0.00  0.00    +0.000 OA
BRANCH  20  21
ATOM     21  C   UNL     1       1.309   7.012  20.937  0.00  0.00    +0.000 C 
BRANCH  21  24
ATOM     22  N   UNL     1       3.511   5.371  18.489  0.00  0.00    +0.000 N 
ATOM     23  C   UNL     1       2.861   6.530  18.887  0.00  0.00    +0.000 A 
ATOM     24  C   UNL     1       2.212   6.201  20.054  0.00  0.00    +0.000 A 
ATOM     25  N   UNL     1       2.486   4.899  20.352  0.00  0.00    +0.000 NA
ATOM     26  N   UNL     1       3.280   4.403  19.401  0.00  0.00    +0.000 NA
BRANCH  22  31
ATOM     27  C   UNL     1       6.701   4.422  13.801  0.00  0.00    +0.000 C 
ATOM     28  C   UNL     1       5.871   4.675  15.026  0.00  0.00    +0.000 A 
ATOM     29  C   UNL     1       5.471   5.973  15.362  0.00  0.00    +0.000 A 
ATOM     30  C   UNL     1       4.694   6.206  16.503  0.00  0.00    +0.000 A 
ATOM     31  C   UNL     1       4.306   5.149  17.325  0.00  0.00    +0.000 A 
ATOM     32  C   UNL     1       4.705   3.839  16.990  0.00  0.00    +0.000 A 
ATOM     33  C   UNL     1       5.480   3.609  15.844  0.00  0.00    +0.000 A 
ENDBRANCH  22  31
ENDBRANCH  21  24
ENDBRANCH  20  21
ENDBRANCH   1  20
TORSDOF 5
ENDMDL
MODEL 9
REMARK VINA RESULT:      -8.6      2.318      8.612
REMARK  Name = 
REMARK  6 active torsions:
REMARK  status: ('A' for Active; 'I' for Inactive)
REMARK    1  A    between atoms: C_1  and  C_2
REMARK    2  A    between atoms: C_5  and  N_6
REMARK    3  A    between atoms: C_8  and  C_9
REMARK    4  A    between atoms: C_9  and  O_10
REMARK    5  A    between atoms: O_10  and  C_11
REMARK    6  A    between atoms: C_14  and  C_15
REMARK                            x       y       z     vdW  Elec       q    Type
REMARK                         _______ _______ _______ _____ _____    ______ ____
ROOT
ATOM      1  C   UNL     1       4.095   5.344  18.194  0.00  0.00    +0.000 A 
ATOM      2  C   UNL     1       3.815   6.480  17.448  0.00  0.00    +0.000 A 
ATOM      3  C   UNL     1       2.981   7.483  17.965  0.00  0.00    +0.000 A 
ATOM      4  C   UNL     1       2.378   7.376  19.241  0.00  0.00    +0.000 A 
ATOM      5  C   UNL     1       2.638   6.212  19.968  0.00  0.00    +0.000 A 
ATOM      6  C   UNL     1       3.498   5.209  19.451  0.00  0.00    +0.000 A 
ENDROOT
BRANCH   4   7
ATOM      7  C   UNL     1       1.536   8.485  19.738  0.00  0.00    +0.000 A 
ATOM      8  N   UNL     1       1.007   8.819  20.914  0.00  0.00    +0.000 NA
ATOM      9  C   UNL     1       0.179   9.925  20.621  0.00  0.00    +0.000 A 
ATOM     10  C   UNL     1       0.320  10.194  19.282  0.00  0.00    +0.000 A 
ATOM     11  C   UNL     1      -0.390  11.103  18.499  0.00  0.00    +0.000 A 
ATOM     12  C   UNL     1      -1.478  11.585  19.203  0.00  0.00    +0.000 A 
ATOM     13  C   UNL     1      -1.447  11.703  20.577  0.00  0.00    +0.000 A 
ATOM     14  C   UNL     1      -2.173  12.770  21.112  0.00  0.00    +0.000 A 
ATOM     15  C   UNL     1      -2.283  12.895  22.491  0.00  0.00    +0.000 A 
ATOM     16  C   UNL     1      -1.734  11.917  23.305  0.00  0.00    +0.000 A 
ATOM     17  C   UNL     1      -0.945  10.872  22.755  0.00  0.00    +0.000 A 
ATOM     18  C   UNL     1      -0.698  10.792  21.375  0.00  0.00    +0.000 A 
ATOM     19  O   UNL     1       1.215   9.342  18.727  0.00  0.00    +0.000 OA
ENDBRANCH   4   7
BRANCH   1  20
ATOM     20  O   UNL     1       4.905   4.434  17.574  0.00  0.00    +0.000 OA
BRANCH  20  21
ATOM     21  C   UNL     1       6.289   4.417  17.957  0.00  0.00    +0.000 C 
BRANCH  21  24
ATOM     22  N   UNL     1       7.836   7.750  17.773  0.00  0.00    +0.000 N 
ATOM     23  C   UNL     1       7.288   6.755  18.570  0.00  0.00    +0.000 A 
ATOM     24  C   UNL     1       6.955   5.738  17.707  0.00  0.00    +0.000 A 
ATOM     25  N   UNL     1       7.313   6.105  16.443  0.00  0.00    +0.000 NA
ATOM     26  N   UNL     1       7.852   7.324  16.491  0.00  0.00    +0.000 NA
BRANCH  22  31
ATOM     27  C   UNL     1       9.819  12.908  19.354  0.00  0.00    +0.000 C 
ATOM     28  C   UNL     1       9.296  11.564  18.939  0.00  0.00    +0.000 A 
ATOM     29  C   UNL     1       8.521  11.425  17.783  0.00  0.00    +0.000 A 
ATOM     30  C   UNL     1       8.038  10.170  17.396  0.00  0.00    +0.000 A 
ATOM     31  C   UNL     1       8.319   9.036  18.157  0.00  0.00    +0.000 A 
ATOM     32  C   UNL     1       9.100   9.170  19.322  0.00  0.00    +0.000 A 
ATOM     33  C   UNL     1       9.586  10.429  19.704  0.00  0.00    +0.000 A 
ENDBRANCH  22  31
ENDBRANCH  21  24
ENDBRANCH  20  21
ENDBRANCH   1  20
TORSDOF 5
ENDMDL
