MODEL 1
REMARK VINA RESULT:      -8.2      0.000      0.000
REMARK  Name = 
REMARK  5 active torsions:
REMARK  status: ('A' for Active; 'I' for Inactive)
REMARK    1  A    between atoms: C_1  and  S_2
REMARK    2  A    between atoms: S_2  and  N_5
REMARK    3  A    between atoms: C_8  and  N_9
REMARK    4  A    between atoms: C_11  and  C_12
REMARK    5  A    between atoms: C_15  and  C_16
REMARK                            x       y       z     vdW  Elec       q    Type
REMARK                         _______ _______ _______ _____ _____    ______ ____
ROOT
ATOM      1  N   UNL     1       2.540   5.777  18.944  0.00  0.00    +0.000 N 
ATOM      2  C   UNL     1       2.053   6.257  20.125  0.00  0.00    +0.000 A 
ATOM      3  C   UNL     1       1.936   7.610  19.914  0.00  0.00    +0.000 A 
ATOM      4  N   UNL     1       2.368   7.913  18.652  0.00  0.00    +0.000 NA
ATOM      5  N   UNL     1       2.761   6.785  18.075  0.00  0.00    +0.000 NA
ENDROOT
BRANCH   1   9
ATOM      6  N   UNL     1       5.721   4.454  18.047  0.00  0.00    +0.000 NA
ATOM      7  C   UNL     1       5.220   4.371  19.443  0.00  0.00    +0.000 C 
ATOM      8  C   UNL     1       3.848   3.716  19.517  0.00  0.00    +0.000 C 
ATOM      9  C   UNL     1       2.850   4.400  18.574  0.00  0.00    +0.000 C 
ATOM     10  C   UNL     1       3.399   4.250  17.151  0.00  0.00    +0.000 C 
ATOM     11  C   UNL     1       4.769   4.900  17.003  0.00  0.00    +0.000 C 
BRANCH   6  13
ATOM     12  C   UNL     1       6.969   6.786  17.345  0.00  0.00    +0.000 C 
ATOM     13  S   UNL     1       7.298   5.114  17.900  0.00  0.00    +0.000 S 
ATOM     14  O   UNL     1       7.969   4.415  16.824  0.00  0.00    +0.000 OA
ATOM     15  O   UNL     1       7.876   5.192  19.223  0.00  0.00    +0.000 OA
ENDBRANCH   6  13
ENDBRANCH   1   9
BRANCH   3  16
ATOM     16  C   UNL     1       1.391   8.596  20.876  0.00  0.00    +0.000 A 
ATOM     17  N   UNL     1       1.710   8.642  22.157  0.00  0.00    +0.000 NA
ATOM     18  N   UNL     1       0.937   9.635  22.725  0.00  0.00    +0.000 NA
ATOM     19  C   UNL     1       0.199  10.131  21.753  0.00  0.00    +0.000 A 
ATOM     20  O   UNL     1       0.451   9.537  20.547  0.00  0.00    +0.000 OA
BRANCH  19  21
ATOM     21  C   UNL     1      -0.869  11.121  21.785  0.00  0.00    +0.000 A 
ATOM     22  C   UNL     1      -1.519  11.415  22.993  0.00  0.00    +0.000 A 
ATOM     23  C   UNL     1      -2.590  12.312  23.025  0.00  0.00    +0.000 A 
ATOM     24  C   UNL     1      -3.018  12.930  21.853  0.00  0.00    +0.000 A 
ATOM     25  C   UNL     1      -2.371  12.662  20.648  0.00  0.00    +0.000 A 
ATOM     26  C   UNL     1      -1.303  11.765  20.615  0.00  0.00    +0.000 A 
ENDBRANCH  19  21
ENDBRANCH   3  16
TORSDOF 4
ENDMDL
MODEL 2
REMARK VINA RESULT:      -8.1      0.695      1.273
REMARK  Name = 
REMARK  5 active torsions:
REMARK  status: ('A' for Active; 'I' for Inactive)
REMARK    1  A    between atoms: C_1  and  S_2
REMARK    2  A    between atoms: S_2  and  N_5
REMARK    3  A    between atoms: C_8  and  N_9
REMARK    4  A    between atoms: C_11  and  C_12
REMARK    5  A    between atoms: C_15  and  C_16
REMARK                            x       y       z     vdW  Elec       q    Type
REMARK                         _______ _______ _______ _____ _____    ______ ____
ROOT
ATOM      1  N   UNL     1       2.493   5.876  19.126  0.00  0.00    +0.000 N 
ATOM      2  C   UNL     1       2.055   6.383  20.315  0.00  0.00    +0.000 A 
ATOM      3  C   UNL     1       1.850   7.717  20.055  0.00  0.00    +0.000 A 
ATOM      4  N   UNL     1       2.183   7.984  18.757  0.00  0.00    +0.000 NA
ATOM      5  N   UNL     1       2.602   6.854  18.203  0.00  0.00    +0.000 NA
ENDROOT
BRANCH   1   9
ATOM      6  N   UNL     1       5.596   4.729  17.810  0.00  0.00    +0.000 NA
ATOM      7  C   UNL     1       5.327   4.712  19.270  0.00  0.00    +0.000 C 
ATOM      8  C   UNL     1       4.045   3.965  19.604  0.00  0.00    +0.000 C 
ATOM      9  C   UNL     1       2.857   4.503  18.795  0.00  0.00    +0.000 C 
ATOM     10  C   UNL     1       3.188   4.289  17.314  0.00  0.00    +0.000 C 
ATOM     11  C   UNL     1       4.458   5.026  16.907  0.00  0.00    +0.000 C 
BRANCH   6  13
ATOM     12  C   UNL     1       7.746   5.975  18.957  0.00  0.00    +0.000 C 
ATOM     13  S   UNL     1       7.068   5.491  17.370  0.00  0.00    +0.000 S 
ATOM     14  O   UNL     1       6.738   6.699  16.643  0.00  0.00    +0.000 OA
ATOM     15  O   UNL     1       7.941   4.486  16.802  0.00  0.00    +0.000 OA
ENDBRANCH   6  13
ENDBRANCH   1   9
BRANCH   3  16
ATOM     16  C   UNL     1       1.311   8.715  21.009  0.00  0.00    +0.000 A 
ATOM     17  N   UNL     1       1.689   8.820  22.270  0.00  0.00    +0.000 NA
ATOM     18  N   UNL     1       0.905   9.802  22.841  0.00  0.00    +0.000 NA
ATOM     19  C   UNL     1       0.101  10.233  21.891  0.00  0.00    +0.000 A 
ATOM     20  O   UNL     1       0.319   9.607  20.695  0.00  0.00    +0.000 OA
BRANCH  19  21
ATOM     21  C   UNL     1      -1.004  11.181  21.941  0.00  0.00    +0.000 A 
ATOM     22  C   UNL     1      -1.373  11.892  20.789  0.00  0.00    +0.000 A 
ATOM     23  C   UNL     1      -2.386  12.853  20.840  0.00  0.00    +0.000 A 
ATOM     24  C   UNL     1      -3.046  13.109  22.040  0.00  0.00    +0.000 A 
ATOM     25  C   UNL     1      -2.703  12.398  23.188  0.00  0.00    +0.000 A 
ATOM     26  C   UNL     1      -1.690  11.439  23.138  0.00  0.00    +0.000 A 
ENDBRANCH  19  21
ENDBRANCH   3  16
TORSDOF 4
ENDMDL
MODEL 3
REMARK VINA RESULT:      -7.9      0.909      1.009
REMARK  Name = 
REMARK  5 active torsions:
REMARK  status: ('A' for Active; 'I' for Inactive)
REMARK    1  A    between atoms: C_1  and  S_2
REMARK    2  A    between atoms: S_2  and  N_5
REMARK    3  A    between atoms: C_8  and  N_9
REMARK    4  A    between atoms: C_11  and  C_12
REMARK    5  A    between atoms: C_15  and  C_16
REMARK                            x       y       z     vdW  Elec       q    Type
REMARK                         _______ _______ _______ _____ _____    ______ ____
ROOT
ATOM      1  N   UNL     1       2.626   5.490  19.010  0.00  0.00    +0.000 N 
ATOM      2  C   UNL     1       2.194   6.072  20.166  0.00  0.00    +0.000 A 
ATOM      3  C   UNL     1       1.986   7.386  19.822  0.00  0.00    +0.000 A 
ATOM      4  N   UNL     1       2.312   7.570  18.508  0.00  0.00    +0.000 NA
ATOM      5  N   UNL     1       2.728   6.407  18.025  0.00  0.00    +0.000 NA
ENDROOT
BRANCH   1   9
ATOM      6  N   UNL     1       5.551   4.283  17.378  0.00  0.00    +0.000 NA
ATOM      7  C   UNL     1       5.492   4.409  18.856  0.00  0.00    +0.000 C 
ATOM      8  C   UNL     1       4.297   3.672  19.443  0.00  0.00    +0.000 C 
ATOM      9  C   UNL     1       2.989   4.099  18.765  0.00  0.00    +0.000 C 
ATOM     10  C   UNL     1       3.115   3.743  17.279  0.00  0.00    +0.000 C 
ATOM     11  C   UNL     1       4.287   4.462  16.624  0.00  0.00    +0.000 C 
BRANCH   6  13
ATOM     12  C   UNL     1       6.763   4.549  14.938  0.00  0.00    +0.000 C 
ATOM     13  S   UNL     1       6.918   5.029  16.658  0.00  0.00    +0.000 S 
ATOM     14  O   UNL     1       8.101   4.388  17.191  0.00  0.00    +0.000 OA
ATOM     15  O   UNL     1       6.739   6.462  16.735  0.00  0.00    +0.000 OA
ENDBRANCH   6  13
ENDBRANCH   1   9
BRANCH   3  16
ATOM     16  C   UNL     1       1.452   8.443  20.713  0.00  0.00    +0.000 A 
ATOM     17  N   UNL     1       1.730   8.543  22.000  0.00  0.00    +0.000 NA
ATOM     18  N   UNL     1       0.983   9.596  22.489  0.00  0.00    +0.000 NA
ATOM     19  C   UNL     1       0.299  10.070  21.468  0.00  0.00    +0.000 A 
ATOM     20  O   UNL     1       0.565   9.404  20.304  0.00  0.00    +0.000 OA
BRANCH  19  21
ATOM     21  C   UNL     1      -0.725  11.104  21.412  0.00  0.00    +0.000 A 
ATOM     22  C   UNL     1      -1.266  11.623  22.597  0.00  0.00    +0.000 A 
ATOM     23  C   UNL     1      -2.297  12.566  22.557  0.00  0.00    +0.000 A 
ATOM     24  C   UNL     1      -2.793  13.005  21.332  0.00  0.00    +0.000 A 
ATOM     25  C   UNL     1      -2.254  12.512  20.145  0.00  0.00    +0.000 A 
ATOM     26  C   UNL     1      -1.226  11.569  20.185  0.00  0.00    +0.000 A 
ENDBRANCH  19  21
ENDBRANCH   3  16
TORSDOF 4
ENDMDL
MODEL 4
REMARK VINA RESULT:      -7.9      3.058      3.888
REMARK  Name = 
REMARK  5 active torsions:
REMARK  status: ('A' for Active; 'I' for Inactive)
REMARK    1  A    between atoms: C_1  and  S_2
REMARK    2  A    between atoms: S_2  and  N_5
REMARK    3  A    between atoms: C_8  and  N_9
REMARK    4  A    between atoms: C_11  and  C_12
REMARK    5  A    between atoms: C_15  and  C_16
REMARK                            x       y       z     vdW  Elec       q    Type
REMARK                         _______ _______ _______ _____ _____    ______ ____
ROOT
ATOM      1  N   UNL     1       3.706   6.909  18.102  0.00  0.00    +0.000 N 
ATOM      2  C   UNL     1       2.984   7.968  17.635  0.00  0.00    +0.000 A 
ATOM      3  C   UNL     1       2.078   8.223  18.636  0.00  0.00    +0.000 A 
ATOM      4  N   UNL     1       2.252   7.321  19.648  0.00  0.00    +0.000 NA
ATOM      5  N   UNL     1       3.236   6.503  19.299  0.00  0.00    +0.000 NA
ENDROOT
BRANCH   1   9
ATOM      6  N   UNL     1       4.671   3.515  18.581  0.00  0.00    +0.000 NA
ATOM      7  C   UNL     1       3.783   3.911  17.459  0.00  0.00    +0.000 C 
ATOM      8  C   UNL     1       4.395   5.015  16.610  0.00  0.00    +0.000 C 
ATOM      9  C   UNL     1       4.821   6.211  17.471  0.00  0.00    +0.000 C 
ATOM     10  C   UNL     1       5.874   5.701  18.461  0.00  0.00    +0.000 C 
ATOM     11  C   UNL     1       5.319   4.600  19.356  0.00  0.00    +0.000 C 
BRANCH   6  13
ATOM     12  C   UNL     1       2.759   3.001  20.470  0.00  0.00    +0.000 C 
ATOM     13  S   UNL     1       4.073   2.221  19.534  0.00  0.00    +0.000 S 
ATOM     14  O   UNL     1       5.115   1.842  20.466  0.00  0.00    +0.000 OA
ATOM     15  O   UNL     1       3.470   1.251  18.646  0.00  0.00    +0.000 OA
ENDBRANCH   6  13
ENDBRANCH   1   9
BRANCH   3  16
ATOM     16  C   UNL     1       1.088   9.326  18.652  0.00  0.00    +0.000 A 
ATOM     17  N   UNL     1       1.126  10.348  19.487  0.00  0.00    +0.000 NA
ATOM     18  N   UNL     1      -0.002  11.106  19.240  0.00  0.00    +0.000 NA
ATOM     19  C   UNL     1      -0.653  10.497  18.270  0.00  0.00    +0.000 A 
ATOM     20  O   UNL     1      -0.007   9.375  17.829  0.00  0.00    +0.000 OA
BRANCH  19  21
ATOM     21  C   UNL     1      -1.952  10.781  17.676  0.00  0.00    +0.000 A 
ATOM     22  C   UNL     1      -2.920  11.485  18.407  0.00  0.00    +0.000 A 
ATOM     23  C   UNL     1      -4.193  11.705  17.875  0.00  0.00    +0.000 A 
ATOM     24  C   UNL     1      -4.510  11.231  16.604  0.00  0.00    +0.000 A 
ATOM     25  C   UNL     1      -3.554  10.545  15.859  0.00  0.00    +0.000 A 
ATOM     26  C   UNL     1      -2.282  10.323  16.391  0.00  0.00    +0.000 A 
ENDBRANCH  19  21
ENDBRANCH   3  16
TORSDOF 4
ENDMDL
MODEL 5
REMARK VINA RESULT:      -7.8      1.923      2.698
REMARK  Name = 
REMARK  5 active torsions:
REMARK  status: ('A' for Active; 'I' for Inactive)
REMARK    1  A    between atoms: C_1  and  S_2
REMARK    2  A    between atoms: S_2  and  N_5
REMARK    3  A    between atoms: C_8  and  N_9
REMARK    4  A    between atoms: C_11  and  C_12
REMARK    5  A    between atoms: C_15  and  C_16
REMARK                            x       y       z     vdW  Elec       q    Type
REMARK                         _______ _______ _______ _____ _____    ______ ____
ROOT
ATOM      1  N   UNL     1       2.699   5.091  19.101  0.00  0.00    +0.000 N 
ATOM      2  C   UNL     1       2.532   6.140  18.244  0.00  0.00    +0.000 A 
ATOM      3  C   UNL     1       2.126   7.173  19.054  0.00  0.00    +0.000 A 
ATOM      4  N   UNL     1       2.034   6.731  20.344  0.00  0.00    +0.000 NA
ATOM      5  N   UNL     1       2.362   5.445  20.358  0.00  0.00    +0.000 NA
ENDROOT
BRANCH   1   9
ATOM      6  N   UNL     1       5.550   4.104  17.210  0.00  0.00    +0.000 NA
ATOM      7  C   UNL     1       5.610   4.216  18.690  0.00  0.00    +0.000 C 
ATOM      8  C   UNL     1       4.524   3.392  19.367  0.00  0.00    +0.000 C 
ATOM      9  C   UNL     1       3.135   3.730  18.809  0.00  0.00    +0.000 C 
ATOM     10  C   UNL     1       3.158   3.393  17.314  0.00  0.00    +0.000 C 
ATOM     11  C   UNL     1       4.216   4.198  16.570  0.00  0.00    +0.000 C 
BRANCH   6  13
ATOM     12  C   UNL     1       6.606   4.371  14.700  0.00  0.00    +0.000 C 
ATOM     13  S   UNL     1       6.794   4.949  16.386  0.00  0.00    +0.000 S 
ATOM     14  O   UNL     1       8.063   4.458  16.882  0.00  0.00    +0.000 OA
ATOM     15  O   UNL     1       6.471   6.359  16.410  0.00  0.00    +0.000 OA
ENDBRANCH   6  13
ENDBRANCH   1   9
BRANCH   3  16
ATOM     16  C   UNL     1       1.866   8.566  18.621  0.00  0.00    +0.000 A 
ATOM     17  N   UNL     1       2.489   9.164  17.622  0.00  0.00    +0.000 NA
ATOM     18  N   UNL     1       2.029  10.465  17.587  0.00  0.00    +0.000 NA
ATOM     19  C   UNL     1       1.155  10.576  18.566  0.00  0.00    +0.000 A 
ATOM     20  O   UNL     1       0.981   9.403  19.249  0.00  0.00    +0.000 OA
BRANCH  19  21
ATOM     21  C   UNL     1       0.435  11.738  19.068  0.00  0.00    +0.000 A 
ATOM     22  C   UNL     1       0.827  13.028  18.681  0.00  0.00    +0.000 A 
ATOM     23  C   UNL     1       0.189  14.154  19.207  0.00  0.00    +0.000 A 
ATOM     24  C   UNL     1      -0.852  14.004  20.121  0.00  0.00    +0.000 A 
ATOM     25  C   UNL     1      -1.264  12.728  20.502  0.00  0.00    +0.000 A 
ATOM     26  C   UNL     1      -0.626  11.603  19.977  0.00  0.00    +0.000 A 
ENDBRANCH  19  21
ENDBRANCH   3  16
TORSDOF 4
ENDMDL
MODEL 6
REMARK VINA RESULT:      -7.8      3.169      3.964
REMARK  Name = 
REMARK  5 active torsions:
REMARK  status: ('A' for Active; 'I' for Inactive)
REMARK    1  A    between atoms: C_1  and  S_2
REMARK    2  A    between atoms: S_2  and  N_5
REMARK    3  A    between atoms: C_8  and  N_9
REMARK    4  A    between atoms: C_11  and  C_12
REMARK    5  A    between atoms: C_15  and  C_16
REMARK                            x       y       z     vdW  Elec       q    Type
REMARK                         _______ _______ _______ _____ _____    ______ ____
ROOT
ATOM      1  N   UNL     1       4.235   5.740  17.488  0.00  0.00    +0.000 N 
ATOM      2  C   UNL     1       3.253   6.298  18.253  0.00  0.00    +0.000 A 
ATOM      3  C   UNL     1       3.178   7.596  17.808  0.00  0.00    +0.000 A 
ATOM      4  N   UNL     1       4.109   7.795  16.826  0.00  0.00    +0.000 NA
ATOM      5  N   UNL     1       4.770   6.658  16.656  0.00  0.00    +0.000 NA
ENDROOT
BRANCH   1   9
ATOM      6  N   UNL     1       2.760   2.914  19.073  0.00  0.00    +0.000 NA
ATOM      7  C   UNL     1       2.506   3.211  17.641  0.00  0.00    +0.000 C 
ATOM      8  C   UNL     1       3.799   3.354  16.851  0.00  0.00    +0.000 C 
ATOM      9  C   UNL     1       4.743   4.373  17.504  0.00  0.00    +0.000 C 
ATOM     10  C   UNL     1       5.069   3.849  18.906  0.00  0.00    +0.000 C 
ATOM     11  C   UNL     1       3.816   3.697  19.758  0.00  0.00    +0.000 C 
BRANCH   6  13
ATOM     12  C   UNL     1       0.831   4.340  20.391  0.00  0.00    +0.000 C 
ATOM     13  S   UNL     1       1.342   2.666  20.007  0.00  0.00    +0.000 S 
ATOM     14  O   UNL     1       1.736   2.028  21.245  0.00  0.00    +0.000 OA
ATOM     15  O   UNL     1       0.336   2.082  19.147  0.00  0.00    +0.000 OA
ENDBRANCH   6  13
ENDBRANCH   1   9
BRANCH   3  16
ATOM     16  C   UNL     1       2.216   8.621  18.276  0.00  0.00    +0.000 A 
ATOM     17  N   UNL     1       1.858   9.682  17.576  0.00  0.00    +0.000 NA
ATOM     18  N   UNL     1       1.020  10.427  18.381  0.00  0.00    +0.000 NA
ATOM     19  C   UNL     1       0.920   9.771  19.519  0.00  0.00    +0.000 A 
ATOM     20  O   UNL     1       1.632   8.603  19.516  0.00  0.00    +0.000 OA
BRANCH  19  21
ATOM     21  C   UNL     1       0.260  10.131  20.766  0.00  0.00    +0.000 A 
ATOM     22  C   UNL     1       0.374   9.297  21.889  0.00  0.00    +0.000 A 
ATOM     23  C   UNL     1      -0.310   9.596  23.070  0.00  0.00    +0.000 A 
ATOM     24  C   UNL     1      -1.108  10.735  23.146  0.00  0.00    +0.000 A 
ATOM     25  C   UNL     1      -1.218  11.582  22.046  0.00  0.00    +0.000 A 
ATOM     26  C   UNL     1      -0.536  11.283  20.864  0.00  0.00    +0.000 A 
ENDBRANCH  19  21
ENDBRANCH   3  16
TORSDOF 4
ENDMDL
MODEL 7
REMARK VINA RESULT:      -7.8      1.972      2.479
REMARK  Name = 
REMARK  5 active torsions:
REMARK  status: ('A' for Active; 'I' for Inactive)
REMARK    1  A    between atoms: C_1  and  S_2
REMARK    2  A    between atoms: S_2  and  N_5
REMARK    3  A    between atoms: C_8  and  N_9
REMARK    4  A    between atoms: C_11  and  C_12
REMARK    5  A    between atoms: C_15  and  C_16
REMARK                            x       y       z     vdW  Elec       q    Type
REMARK                         _______ _______ _______ _____ _____    ______ ____
ROOT
ATOM      1  N   UNL     1       2.637   5.193  19.037  0.00  0.00    +0.000 N 
ATOM      2  C   UNL     1       2.489   6.271  18.213  0.00  0.00    +0.000 A 
ATOM      3  C   UNL     1       2.099   7.285  19.055  0.00  0.00    +0.000 A 
ATOM      4  N   UNL     1       2.000   6.805  20.331  0.00  0.00    +0.000 NA
ATOM      5  N   UNL     1       2.306   5.515  20.305  0.00  0.00    +0.000 NA
ENDROOT
BRANCH   1   9
ATOM      6  N   UNL     1       5.673   4.192  17.470  0.00  0.00    +0.000 NA
ATOM      7  C   UNL     1       5.538   4.199  18.949  0.00  0.00    +0.000 C 
ATOM      8  C   UNL     1       4.337   3.388  19.413  0.00  0.00    +0.000 C 
ATOM      9  C   UNL     1       3.052   3.835  18.704  0.00  0.00    +0.000 C 
ATOM     10  C   UNL     1       3.262   3.602  17.204  0.00  0.00    +0.000 C 
ATOM     11  C   UNL     1       4.444   4.399  16.668  0.00  0.00    +0.000 C 
BRANCH   6  13
ATOM     12  C   UNL     1       7.157   6.433  17.988  0.00  0.00    +0.000 C 
ATOM     13  S   UNL     1       7.053   5.026  16.883  0.00  0.00    +0.000 S 
ATOM     14  O   UNL     1       6.736   5.525  15.561  0.00  0.00    +0.000 OA
ATOM     15  O   UNL     1       8.213   4.193  17.115  0.00  0.00    +0.000 OA
ENDBRANCH   6  13
ENDBRANCH   1   9
BRANCH   3  16
ATOM     16  C   UNL     1       1.862   8.695  18.664  0.00  0.00    +0.000 A 
ATOM     17  N   UNL     1       2.278   9.234  17.533  0.00  0.00    +0.000 NA
ATOM     18  N   UNL     1       1.936  10.571  17.579  0.00  0.00    +0.000 NA
ATOM     19  C   UNL     1       1.332  10.759  18.735  0.00  0.00    +0.000 A 
ATOM     20  O   UNL     1       1.227   9.607  19.465  0.00  0.00    +0.000 OA
BRANCH  19  21
ATOM     21  C   UNL     1       0.854  11.981  19.367  0.00  0.00    +0.000 A 
ATOM     22  C   UNL     1       0.764  12.061  20.764  0.00  0.00    +0.000 A 
ATOM     23  C   UNL     1       0.244  13.201  21.380  0.00  0.00    +0.000 A 
ATOM     24  C   UNL     1      -0.185  14.278  20.608  0.00  0.00    +0.000 A 
ATOM     25  C   UNL     1      -0.085  14.221  19.219  0.00  0.00    +0.000 A 
ATOM     26  C   UNL     1       0.433  13.081  18.603  0.00  0.00    +0.000 A 
ENDBRANCH  19  21
ENDBRANCH   3  16
TORSDOF 4
ENDMDL
MODEL 8
REMARK VINA RESULT:      -7.8      3.032      3.845
REMARK  Name = 
REMARK  5 active torsions:
REMARK  status: ('A' for Active; 'I' for Inactive)
REMARK    1  A    between atoms: C_1  and  S_2
REMARK    2  A    between atoms: S_2  and  N_5
REMARK    3  A    between atoms: C_8  and  N_9
REMARK    4  A    between atoms: C_11  and  C_12
REMARK    5  A    between atoms: C_15  and  C_16
REMARK                            x       y       z     vdW  Elec       q    Type
REMARK                         _______ _______ _______ _____ _____    ______ ____
ROOT
ATOM      1  N   UNL     1       4.116   5.641  17.256  0.00  0.00    +0.000 N 
ATOM      2  C   UNL     1       3.087   6.191  17.963  0.00  0.00    +0.000 A 
ATOM      3  C   UNL     1       3.196   7.539  17.719  0.00  0.00    +0.000 A 
ATOM      4  N   UNL     1       4.275   7.770  16.912  0.00  0.00    +0.000 NA
ATOM      5  N   UNL     1       4.848   6.602  16.655  0.00  0.00    +0.000 NA
ENDROOT
BRANCH   1   9
ATOM      6  N   UNL     1       3.237   2.968  19.437  0.00  0.00    +0.000 NA
ATOM      7  C   UNL     1       2.435   3.265  18.223  0.00  0.00    +0.000 C 
ATOM      8  C   UNL     1       3.293   3.290  16.966  0.00  0.00    +0.000 C 
ATOM      9  C   UNL     1       4.490   4.237  17.126  0.00  0.00    +0.000 C 
ATOM     10  C   UNL     1       5.330   3.708  18.293  0.00  0.00    +0.000 C 
ATOM     11  C   UNL     1       4.533   3.671  19.591  0.00  0.00    +0.000 C 
BRANCH   6  13
ATOM     12  C   UNL     1       2.107   4.566  21.350  0.00  0.00    +0.000 C 
ATOM     13  S   UNL     1       2.318   2.849  20.881  0.00  0.00    +0.000 S 
ATOM     14  O   UNL     1       3.150   2.216  21.882  0.00  0.00    +0.000 OA
ATOM     15  O   UNL     1       1.015   2.320  20.541  0.00  0.00    +0.000 OA
ENDBRANCH   6  13
ENDBRANCH   1   9
BRANCH   3  16
ATOM     16  C   UNL     1       2.272   8.589  18.210  0.00  0.00    +0.000 A 
ATOM     17  N   UNL     1       2.017   9.716  17.571  0.00  0.00    +0.000 NA
ATOM     18  N   UNL     1       1.182  10.455  18.383  0.00  0.00    +0.000 NA
ATOM     19  C   UNL     1       0.980   9.730  19.465  0.00  0.00    +0.000 A 
ATOM     20  O   UNL     1       1.620   8.523  19.413  0.00  0.00    +0.000 OA
BRANCH  19  21
ATOM     21  C   UNL     1       0.274  10.045  20.699  0.00  0.00    +0.000 A 
ATOM     22  C   UNL     1      -0.173  11.353  20.939  0.00  0.00    +0.000 A 
ATOM     23  C   UNL     1      -0.791  11.684  22.148  0.00  0.00    +0.000 A 
ATOM     24  C   UNL     1      -0.976  10.710  23.127  0.00  0.00    +0.000 A 
ATOM     25  C   UNL     1      -0.554   9.403  22.896  0.00  0.00    +0.000 A 
ATOM     26  C   UNL     1       0.066   9.072  21.689  0.00  0.00    +0.000 A 
ENDBRANCH  19  21
ENDBRANCH   3  16
TORSDOF 4
ENDMDL
MODEL 9
REMARK VINA RESULT:      -7.8      5.285      8.499
REMARK  Name = 
REMARK  5 active torsions:
REMARK  status: ('A' for Active; 'I' for Inactive)
REMARK    1  A    between atoms: C_1  and  S_2
REMARK    2  A    between atoms: S_2  and  N_5
REMARK    3  A    between atoms: C_8  and  N_9
REMARK    4  A    between atoms: C_11  and  C_12
REMARK    5  A    between atoms: C_15  and  C_16
REMARK                            x       y       z     vdW  Elec       q    Type
REMARK                         _______ _______ _______ _____ _____    ______ ____
ROOT
ATOM      1  N   UNL     1       7.316   6.462  17.776  0.00  0.00    +0.000 N 
ATOM      2  C   UNL     1       8.205   7.172  18.528  0.00  0.00    +0.000 A 
ATOM      3  C   UNL     1       8.109   8.453  18.041  0.00  0.00    +0.000 A 
ATOM      4  N   UNL     1       7.206   8.483  17.015  0.00  0.00    +0.000 NA
ATOM      5  N   UNL     1       6.745   7.252  16.842  0.00  0.00    +0.000 NA
ENDROOT
BRANCH   1   9
ATOM      6  N   UNL     1       4.075   5.042  18.171  0.00  0.00    +0.000 NA
ATOM      7  C   UNL     1       4.678   5.219  16.825  0.00  0.00    +0.000 C 
ATOM      8  C   UNL     1       6.050   4.568  16.727  0.00  0.00    +0.000 C 
ATOM      9  C   UNL     1       6.977   5.045  17.853  0.00  0.00    +0.000 C 
ATOM     10  C   UNL     1       6.323   4.635  19.177  0.00  0.00    +0.000 C 
ATOM     11  C   UNL     1       4.948   5.267  19.347  0.00  0.00    +0.000 C 
BRANCH   6  13
ATOM     12  C   UNL     1       2.195   5.565  20.090  0.00  0.00    +0.000 C 
ATOM     13  S   UNL     1       2.493   5.688  18.327  0.00  0.00    +0.000 S 
ATOM     14  O   UNL     1       1.580   4.783  17.660  0.00  0.00    +0.000 OA
ATOM     15  O   UNL     1       2.545   7.092  17.983  0.00  0.00    +0.000 OA
ENDBRANCH   6  13
ENDBRANCH   1   9
BRANCH   3  16
ATOM     16  C   UNL     1       8.831   9.637  18.562  0.00  0.00    +0.000 A 
ATOM     17  N   UNL     1       8.973   9.918  19.845  0.00  0.00    +0.000 NA
ATOM     18  N   UNL     1       9.627  11.132  19.917  0.00  0.00    +0.000 NA
ATOM     19  C   UNL     1       9.843  11.511  18.674  0.00  0.00    +0.000 A 
ATOM     20  O   UNL     1       9.387  10.600  17.761  0.00  0.00    +0.000 OA
BRANCH  19  21
ATOM     21  C   UNL     1      10.395  12.750  18.143  0.00  0.00    +0.000 A 
ATOM     22  C   UNL     1       9.706  13.959  18.318  0.00  0.00    +0.000 A 
ATOM     23  C   UNL     1      10.190  15.143  17.755  0.00  0.00    +0.000 A 
ATOM     24  C   UNL     1      11.372  15.133  17.019  0.00  0.00    +0.000 A 
ATOM     25  C   UNL     1      12.078  13.943  16.852  0.00  0.00    +0.000 A 
ATOM     26  C   UNL     1      11.594  12.760  17.412  0.00  0.00    +0.000 A 
ENDBRANCH  19  21
ENDBRANCH   3  16
TORSDOF 4
ENDMDL
