MODEL 1
REMARK VINA RESULT:      -7.5      0.000      0.000
REMARK  Name = 
REMARK  6 active torsions:
REMARK  status: ('A' for Active; 'I' for Inactive)
REMARK    1  A    between atoms: N_1  and  C_2
REMARK    2  A    between atoms: C_6  and  C_7
REMARK    3  A    between atoms: C_7  and  O_9
REMARK    4  A    between atoms: N_11  and  C_12
REMARK    5  A    between atoms: C_15  and  O_16
REMARK    6  A    between atoms: O_16  and  C_17
REMARK                            x       y       z     vdW  Elec       q    Type
REMARK                         _______ _______ _______ _____ _____    ______ ____
ROOT
ATOM      1  C   UNL     1       4.129   5.301  17.268  0.00  0.00    +0.000 A 
ATOM      2  S   UNL     1       4.377   3.612  17.184  0.00  0.00    +0.000 S 
ATOM      3  C   UNL     1       3.419   3.333  18.574  0.00  0.00    +0.000 A 
ATOM      4  C   UNL     1       2.927   4.506  19.104  0.00  0.00    +0.000 A 
ATOM      5  C   UNL     1       2.101   4.692  20.276  0.00  0.00    +0.000 A 
ATOM      6  N   UNL     1       1.738   5.895  20.645  0.00  0.00    +0.000 NA
ATOM      7  N   UNL     1       2.113   7.025  19.888  0.00  0.00    +0.000 N 
ATOM      8  C   UNL     1       2.945   6.979  18.736  0.00  0.00    +0.000 A 
ATOM      9  O   UNL     1       3.361   7.956  18.112  0.00  0.00    +0.000 OA
ATOM     10  C   UNL     1       3.338   5.637  18.348  0.00  0.00    +0.000 A 
ENDROOT
BRANCH   7  11
ATOM     11  C   UNL     1       1.604   8.270  20.395  0.00  0.00    +0.000 A 
ATOM     12  C   UNL     1       1.552   8.534  21.770  0.00  0.00    +0.000 A 
ATOM     13  C   UNL     1       1.000   9.722  22.262  0.00  0.00    +0.000 A 
ATOM     14  C   UNL     1       0.499  10.687  21.395  0.00  0.00    +0.000 A 
ATOM     15  C   UNL     1       0.538  10.443  20.024  0.00  0.00    +0.000 A 
ATOM     16  C   UNL     1       1.113   9.259  19.529  0.00  0.00    +0.000 A 
BRANCH  14  17
ATOM     17  O   UNL     1      -0.069  11.758  22.010  0.00  0.00    +0.000 OA
BRANCH  17  18
ATOM     18  C   UNL     1      -1.321  11.622  22.662  0.00  0.00    +0.000 C 
ATOM     19  F   UNL     1      -1.522  10.422  23.243  0.00  0.00    +0.000 F 
ATOM     20  F   UNL     1      -1.434  12.583  23.604  0.00  0.00    +0.000 F 
ATOM     21  F   UNL     1      -2.302  11.811  21.750  0.00  0.00    +0.000 F 
ENDBRANCH  17  18
ENDBRANCH  14  17
ENDBRANCH   7  11
BRANCH   1  22
ATOM     22  N   UNL     1       4.671   6.131  16.357  0.00  0.00    +0.000 N 
ATOM     23  H   UNL     1       5.343   6.841  16.625  0.00  0.00    +0.000 HD
ATOM     24  H   UNL     1       4.187   6.302  15.472  0.00  0.00    +0.000 HD
ENDBRANCH   1  22
BRANCH   5  25
ATOM     25  C   UNL     1       1.592   3.531  21.152  0.00  0.00    +0.000 C 
ATOM     26  O   UNL     1       2.143   3.159  22.168  0.00  0.00    +0.000 OA
BRANCH  25  27
ATOM     27  O   UNL     1       0.471   2.987  20.645  0.00  0.00    +0.000 OA
ATOM     28  H   UNL     1       0.354   3.269  19.709  0.00  0.00    +0.000 HD
ENDBRANCH  25  27
ENDBRANCH   5  25
TORSDOF 6
ENDMDL
MODEL 2
REMARK VINA RESULT:      -7.5      0.227      1.241
REMARK  Name = 
REMARK  6 active torsions:
REMARK  status: ('A' for Active; 'I' for Inactive)
REMARK    1  A    between atoms: N_1  and  C_2
REMARK    2  A    between atoms: C_6  and  C_7
REMARK    3  A    between atoms: C_7  and  O_9
REMARK    4  A    between atoms: N_11  and  C_12
REMARK    5  A    between atoms: C_15  and  O_16
REMARK    6  A    between atoms: O_16  and  C_17
REMARK                            x       y       z     vdW  Elec       q    Type
REMARK                         _______ _______ _______ _____ _____    ______ ____
ROOT
ATOM      1  C   UNL     1       4.116   5.453  17.279  0.00  0.00    +0.000 A 
ATOM      2  S   UNL     1       4.443   3.782  17.140  0.00  0.00    +0.000 S 
ATOM      3  C   UNL     1       3.502   3.413  18.520  0.00  0.00    +0.000 A 
ATOM      4  C   UNL     1       2.956   4.543  19.088  0.00  0.00    +0.000 A 
ATOM      5  C   UNL     1       2.124   4.652  20.265  0.00  0.00    +0.000 A 
ATOM      6  N   UNL     1       1.705   5.824  20.673  0.00  0.00    +0.000 NA
ATOM      7  N   UNL     1       2.026   6.994  19.954  0.00  0.00    +0.000 N 
ATOM      8  C   UNL     1       2.857   7.025  18.801  0.00  0.00    +0.000 A 
ATOM      9  O   UNL     1       3.226   8.041  18.210  0.00  0.00    +0.000 OA
ATOM     10  C   UNL     1       3.312   5.717  18.370  0.00  0.00    +0.000 A 
ENDROOT
BRANCH   7  11
ATOM     11  C   UNL     1       1.460   8.197  20.501  0.00  0.00    +0.000 A 
ATOM     12  C   UNL     1       0.931   9.199  19.677  0.00  0.00    +0.000 A 
ATOM     13  C   UNL     1       0.435  10.393  20.211  0.00  0.00    +0.000 A 
ATOM     14  C   UNL     1       0.439  10.616  21.585  0.00  0.00    +0.000 A 
ATOM     15  C   UNL     1       0.963   9.634  22.421  0.00  0.00    +0.000 A 
ATOM     16  C   UNL     1       1.441   8.424  21.886  0.00  0.00    +0.000 A 
BRANCH  14  17
ATOM     17  O   UNL     1      -0.007  11.844  21.958  0.00  0.00    +0.000 OA
BRANCH  17  18
ATOM     18  C   UNL     1      -1.264  11.979  22.600  0.00  0.00    +0.000 C 
ATOM     19  F   UNL     1      -2.293  12.237  21.767  0.00  0.00    +0.000 F 
ATOM     20  F   UNL     1      -1.534  10.845  23.283  0.00  0.00    +0.000 F 
ATOM     21  F   UNL     1      -1.185  12.995  23.489  0.00  0.00    +0.000 F 
ENDBRANCH  17  18
ENDBRANCH  14  17
ENDBRANCH   7  11
BRANCH   1  22
ATOM     22  N   UNL     1       4.618   6.338  16.395  0.00  0.00    +0.000 N 
ATOM     23  H   UNL     1       5.594   6.610  16.419  0.00  0.00    +0.000 HD
ATOM     24  H   UNL     1       3.993   6.996  15.925  0.00  0.00    +0.000 HD
ENDBRANCH   1  22
BRANCH   5  25
ATOM     25  C   UNL     1       1.672   3.441  21.103  0.00  0.00    +0.000 C 
ATOM     26  O   UNL     1       2.276   3.024  22.070  0.00  0.00    +0.000 OA
BRANCH  25  27
ATOM     27  O   UNL     1       0.533   2.909  20.624  0.00  0.00    +0.000 OA
ATOM     28  H   UNL     1       0.523   1.937  20.779  0.00  0.00    +0.000 HD
ENDBRANCH  25  27
ENDBRANCH   5  25
TORSDOF 6
ENDMDL
MODEL 3
REMARK VINA RESULT:      -7.4      5.836      8.178
REMARK  Name = 
REMARK  6 active torsions:
REMARK  status: ('A' for Active; 'I' for Inactive)
REMARK    1  A    between atoms: N_1  and  C_2
REMARK    2  A    between atoms: C_6  and  C_7
REMARK    3  A    between atoms: C_7  and  O_9
REMARK    4  A    between atoms: N_11  and  C_12
REMARK    5  A    between atoms: C_15  and  O_16
REMARK    6  A    between atoms: O_16  and  C_17
REMARK                            x       y       z     vdW  Elec       q    Type
REMARK                         _______ _______ _______ _____ _____    ______ ____
ROOT
ATOM      1  C   UNL     1       1.657   8.705  19.600  0.00  0.00    +0.000 A 
ATOM      2  S   UNL     1       0.678   8.685  21.000  0.00  0.00    +0.000 S 
ATOM      3  C   UNL     1       0.939   7.011  21.243  0.00  0.00    +0.000 A 
ATOM      4  C   UNL     1       1.748   6.470  20.268  0.00  0.00    +0.000 A 
ATOM      5  C   UNL     1       2.182   5.100  20.112  0.00  0.00    +0.000 A 
ATOM      6  N   UNL     1       2.945   4.759  19.104  0.00  0.00    +0.000 NA
ATOM      7  N   UNL     1       3.386   5.725  18.175  0.00  0.00    +0.000 N 
ATOM      8  C   UNL     1       3.007   7.095  18.201  0.00  0.00    +0.000 A 
ATOM      9  O   UNL     1       3.304   7.937  17.352  0.00  0.00    +0.000 OA
ATOM     10  C   UNL     1       2.160   7.449  19.324  0.00  0.00    +0.000 A 
ENDROOT
BRANCH   7  11
ATOM     11  C   UNL     1       4.250   5.206  17.150  0.00  0.00    +0.000 A 
ATOM     12  C   UNL     1       4.989   6.055  16.314  0.00  0.00    +0.000 A 
ATOM     13  C   UNL     1       5.782   5.548  15.280  0.00  0.00    +0.000 A 
ATOM     14  C   UNL     1       5.873   4.177  15.058  0.00  0.00    +0.000 A 
ATOM     15  C   UNL     1       5.144   3.316  15.875  0.00  0.00    +0.000 A 
ATOM     16  C   UNL     1       4.365   3.825  16.929  0.00  0.00    +0.000 A 
BRANCH  14  17
ATOM     17  O   UNL     1       6.622   3.829  13.979  0.00  0.00    +0.000 OA
BRANCH  17  18
ATOM     18  C   UNL     1       6.000   3.604  12.724  0.00  0.00    +0.000 C 
ATOM     19  F   UNL     1       4.697   3.950  12.676  0.00  0.00    +0.000 F 
ATOM     20  F   UNL     1       6.665   4.292  11.772  0.00  0.00    +0.000 F 
ATOM     21  F   UNL     1       6.091   2.287  12.431  0.00  0.00    +0.000 F 
ENDBRANCH  17  18
ENDBRANCH  14  17
ENDBRANCH   7  11
BRANCH   1  22
ATOM     22  N   UNL     1       1.863   9.842  18.909  0.00  0.00    +0.000 N 
ATOM     23  H   UNL     1       2.799  10.172  18.703  0.00  0.00    +0.000 HD
ATOM     24  H   UNL     1       1.133  10.557  18.878  0.00  0.00    +0.000 HD
ENDBRANCH   1  22
BRANCH   5  25
ATOM     25  C   UNL     1       1.803   3.970  21.088  0.00  0.00    +0.000 C 
ATOM     26  O   UNL     1       2.459   3.671  22.064  0.00  0.00    +0.000 OA
BRANCH  25  27
ATOM     27  O   UNL     1       0.662   3.361  20.716  0.00  0.00    +0.000 OA
ATOM     28  H   UNL     1       0.723   2.395  20.892  0.00  0.00    +0.000 HD
ENDBRANCH  25  27
ENDBRANCH   5  25
TORSDOF 6
ENDMDL
MODEL 4
REMARK VINA RESULT:      -7.3      4.893      7.384
REMARK  Name = 
REMARK  6 active torsions:
REMARK  status: ('A' for Active; 'I' for Inactive)
REMARK    1  A    between atoms: N_1  and  C_2
REMARK    2  A    between atoms: C_6  and  C_7
REMARK    3  A    between atoms: C_7  and  O_9
REMARK    4  A    between atoms: N_11  and  C_12
REMARK    5  A    between atoms: C_15  and  O_16
REMARK    6  A    between atoms: O_16  and  C_17
REMARK                            x       y       z     vdW  Elec       q    Type
REMARK                         _______ _______ _______ _____ _____    ______ ____
ROOT
ATOM      1  C   UNL     1       1.682  11.659  18.644  0.00  0.00    +0.000 A 
ATOM      2  S   UNL     1       0.962  12.871  19.610  0.00  0.00    +0.000 S 
ATOM      3  C   UNL     1       0.574  11.753  20.846  0.00  0.00    +0.000 A 
ATOM      4  C   UNL     1       0.974  10.474  20.526  0.00  0.00    +0.000 A 
ATOM      5  C   UNL     1       0.812   9.258  21.292  0.00  0.00    +0.000 A 
ATOM      6  N   UNL     1       1.243   8.116  20.818  0.00  0.00    +0.000 NA
ATOM      7  N   UNL     1       1.905   8.056  19.573  0.00  0.00    +0.000 N 
ATOM      8  C   UNL     1       2.101   9.171  18.714  0.00  0.00    +0.000 A 
ATOM      9  O   UNL     1       2.592   9.129  17.585  0.00  0.00    +0.000 OA
ATOM     10  C   UNL     1       1.612  10.424  19.257  0.00  0.00    +0.000 A 
ENDROOT
BRANCH   7  11
ATOM     11  C   UNL     1       2.356   6.740  19.209  0.00  0.00    +0.000 A 
ATOM     12  C   UNL     1       3.495   6.169  19.792  0.00  0.00    +0.000 A 
ATOM     13  C   UNL     1       3.965   4.914  19.391  0.00  0.00    +0.000 A 
ATOM     14  C   UNL     1       3.304   4.186  18.407  0.00  0.00    +0.000 A 
ATOM     15  C   UNL     1       2.172   4.737  17.812  0.00  0.00    +0.000 A 
ATOM     16  C   UNL     1       1.686   5.989  18.231  0.00  0.00    +0.000 A 
BRANCH  14  17
ATOM     17  O   UNL     1       3.909   3.017  18.068  0.00  0.00    +0.000 OA
BRANCH  17  18
ATOM     18  C   UNL     1       3.228   1.786  18.246  0.00  0.00    +0.000 C 
ATOM     19  F   UNL     1       4.030   0.702  18.278  0.00  0.00    +0.000 F 
ATOM     20  F   UNL     1       2.522   1.835  19.396  0.00  0.00    +0.000 F 
ATOM     21  F   UNL     1       2.355   1.627  17.225  0.00  0.00    +0.000 F 
ENDBRANCH  17  18
ENDBRANCH  14  17
ENDBRANCH   7  11
BRANCH   1  22
ATOM     22  N   UNL     1       2.227  11.953  17.448  0.00  0.00    +0.000 N 
ATOM     23  H   UNL     1       2.562  11.224  16.829  0.00  0.00    +0.000 HD
ATOM     24  H   UNL     1       2.625  12.880  17.284  0.00  0.00    +0.000 HD
ENDBRANCH   1  22
BRANCH   5  25
ATOM     25  C   UNL     1       0.148   9.209  22.681  0.00  0.00    +0.000 C 
ATOM     26  O   UNL     1       0.593   9.767  23.663  0.00  0.00    +0.000 OA
BRANCH  25  27
ATOM     27  O   UNL     1      -0.976   8.469  22.663  0.00  0.00    +0.000 OA
ATOM     28  H   UNL     1      -1.013   7.933  21.838  0.00  0.00    +0.000 HD
ENDBRANCH  25  27
ENDBRANCH   5  25
TORSDOF 6
ENDMDL
MODEL 5
REMARK VINA RESULT:      -7.3      4.596      7.420
REMARK  Name = 
REMARK  6 active torsions:
REMARK  status: ('A' for Active; 'I' for Inactive)
REMARK    1  A    between atoms: N_1  and  C_2
REMARK    2  A    between atoms: C_6  and  C_7
REMARK    3  A    between atoms: C_7  and  O_9
REMARK    4  A    between atoms: N_11  and  C_12
REMARK    5  A    between atoms: C_15  and  O_16
REMARK    6  A    between atoms: O_16  and  C_17
REMARK                            x       y       z     vdW  Elec       q    Type
REMARK                         _______ _______ _______ _____ _____    ______ ____
ROOT
ATOM      1  C   UNL     1       1.355  12.438  18.782  0.00  0.00    +0.000 A 
ATOM      2  S   UNL     1       0.629  13.716  19.654  0.00  0.00    +0.000 S 
ATOM      3  C   UNL     1       0.174  12.675  20.934  0.00  0.00    +0.000 A 
ATOM      4  C   UNL     1       0.557  11.373  20.699  0.00  0.00    +0.000 A 
ATOM      5  C   UNL     1       0.341  10.205  21.523  0.00  0.00    +0.000 A 
ATOM      6  N   UNL     1       0.764   9.030  21.128  0.00  0.00    +0.000 NA
ATOM      7  N   UNL     1       1.466   8.887  19.913  0.00  0.00    +0.000 N 
ATOM      8  C   UNL     1       1.716   9.950  19.002  0.00  0.00    +0.000 A 
ATOM      9  O   UNL     1       2.245   9.835  17.895  0.00  0.00    +0.000 OA
ATOM     10  C   UNL     1       1.236  11.240  19.458  0.00  0.00    +0.000 A 
ENDROOT
BRANCH   7  11
ATOM     11  C   UNL     1       1.901   7.545  19.637  0.00  0.00    +0.000 A 
ATOM     12  C   UNL     1       2.442   7.191  18.393  0.00  0.00    +0.000 A 
ATOM     13  C   UNL     1       2.808   5.872  18.109  0.00  0.00    +0.000 A 
ATOM     14  C   UNL     1       2.660   4.869  19.063  0.00  0.00    +0.000 A 
ATOM     15  C   UNL     1       2.122   5.199  20.304  0.00  0.00    +0.000 A 
ATOM     16  C   UNL     1       1.774   6.530  20.598  0.00  0.00    +0.000 A 
BRANCH  14  17
ATOM     17  O   UNL     1       2.990   3.624  18.628  0.00  0.00    +0.000 OA
BRANCH  17  18
ATOM     18  C   UNL     1       1.976   2.662  18.391  0.00  0.00    +0.000 C 
ATOM     19  F   UNL     1       0.767   3.184  18.099  0.00  0.00    +0.000 F 
ATOM     20  F   UNL     1       2.358   1.861  17.373  0.00  0.00    +0.000 F 
ATOM     21  F   UNL     1       1.843   1.897  19.498  0.00  0.00    +0.000 F 
ENDBRANCH  17  18
ENDBRANCH  14  17
ENDBRANCH   7  11
BRANCH   1  22
ATOM     22  N   UNL     1       1.947  12.654  17.591  0.00  0.00    +0.000 N 
ATOM     23  H   UNL     1       1.413  12.654  16.730  0.00  0.00    +0.000 HD
ATOM     24  H   UNL     1       2.949  12.482  17.483  0.00  0.00    +0.000 HD
ENDBRANCH   1  22
BRANCH   5  25
ATOM     25  C   UNL     1      -0.371  10.246  22.889  0.00  0.00    +0.000 C 
ATOM     26  O   UNL     1      -1.461  10.749  23.068  0.00  0.00    +0.000 OA
BRANCH  25  27
ATOM     27  O   UNL     1       0.370   9.659  23.847  0.00  0.00    +0.000 OA
ATOM     28  H   UNL     1       0.581   8.733  23.590  0.00  0.00    +0.000 HD
ENDBRANCH  25  27
ENDBRANCH   5  25
TORSDOF 6
ENDMDL
MODEL 6
REMARK VINA RESULT:      -7.3      1.147      1.351
REMARK  Name = 
REMARK  6 active torsions:
REMARK  status: ('A' for Active; 'I' for Inactive)
REMARK    1  A    between atoms: N_1  and  C_2
REMARK    2  A    between atoms: C_6  and  C_7
REMARK    3  A    between atoms: C_7  and  O_9
REMARK    4  A    between atoms: N_11  and  C_12
REMARK    5  A    between atoms: C_15  and  O_16
REMARK    6  A    between atoms: O_16  and  C_17
REMARK                            x       y       z     vdW  Elec       q    Type
REMARK                         _______ _______ _______ _____ _____    ______ ____
ROOT
ATOM      1  C   UNL     1       4.184   5.360  17.261  0.00  0.00    +0.000 A 
ATOM      2  S   UNL     1       4.512   3.684  17.234  0.00  0.00    +0.000 S 
ATOM      3  C   UNL     1       3.549   3.403  18.620  0.00  0.00    +0.000 A 
ATOM      4  C   UNL     1       2.995   4.566  19.106  0.00  0.00    +0.000 A 
ATOM      5  C   UNL     1       2.145   4.749  20.261  0.00  0.00    +0.000 A 
ATOM      6  N   UNL     1       1.721   5.945  20.587  0.00  0.00    +0.000 NA
ATOM      7  N   UNL     1       2.054   7.067  19.800  0.00  0.00    +0.000 N 
ATOM      8  C   UNL     1       2.903   7.025  18.661  0.00  0.00    +0.000 A 
ATOM      9  O   UNL     1       3.282   8.001  18.012  0.00  0.00    +0.000 OA
ATOM     10  C   UNL     1       3.363   5.692  18.321  0.00  0.00    +0.000 A 
ENDROOT
BRANCH   7  11
ATOM     11  C   UNL     1       1.480   8.302  20.262  0.00  0.00    +0.000 A 
ATOM     12  C   UNL     1       1.318   8.570  21.628  0.00  0.00    +0.000 A 
ATOM     13  C   UNL     1       0.705   9.746  22.070  0.00  0.00    +0.000 A 
ATOM     14  C   UNL     1       0.248  10.697  21.163  0.00  0.00    +0.000 A 
ATOM     15  C   UNL     1       0.397  10.449  19.801  0.00  0.00    +0.000 A 
ATOM     16  C   UNL     1       1.033   9.277  19.356  0.00  0.00    +0.000 A 
BRANCH  14  17
ATOM     17  O   UNL     1      -0.388  11.757  21.729  0.00  0.00    +0.000 OA
BRANCH  17  18
ATOM     18  C   UNL     1       0.081  13.074  21.497  0.00  0.00    +0.000 C 
ATOM     19  F   UNL     1      -0.475  13.687  20.432  0.00  0.00    +0.000 F 
ATOM     20  F   UNL     1      -0.150  13.825  22.596  0.00  0.00    +0.000 F 
ATOM     21  F   UNL     1       1.418  13.025  21.297  0.00  0.00    +0.000 F 
ENDBRANCH  17  18
ENDBRANCH  14  17
ENDBRANCH   7  11
BRANCH   1  22
ATOM     22  N   UNL     1       4.700   6.187  16.331  0.00  0.00    +0.000 N 
ATOM     23  H   UNL     1       5.646   6.543  16.409  0.00  0.00    +0.000 HD
ATOM     24  H   UNL     1       4.076   6.737  15.738  0.00  0.00    +0.000 HD
ENDBRANCH   1  22
BRANCH   5  25
ATOM     25  C   UNL     1       1.679   3.594  21.167  0.00  0.00    +0.000 C 
ATOM     26  O   UNL     1       2.246   3.265  22.189  0.00  0.00    +0.000 OA
BRANCH  25  27
ATOM     27  O   UNL     1       0.575   3.000  20.678  0.00  0.00    +0.000 OA
ATOM     28  H   UNL     1       0.702   2.024  20.650  0.00  0.00    +0.000 HD
ENDBRANCH  25  27
ENDBRANCH   5  25
TORSDOF 6
ENDMDL
MODEL 7
REMARK VINA RESULT:      -7.3      4.612      7.362
REMARK  Name = 
REMARK  6 active torsions:
REMARK  status: ('A' for Active; 'I' for Inactive)
REMARK    1  A    between atoms: N_1  and  C_2
REMARK    2  A    between atoms: C_6  and  C_7
REMARK    3  A    between atoms: C_7  and  O_9
REMARK    4  A    between atoms: N_11  and  C_12
REMARK    5  A    between atoms: C_15  and  O_16
REMARK    6  A    between atoms: O_16  and  C_17
REMARK                            x       y       z     vdW  Elec       q    Type
REMARK                         _______ _______ _______ _____ _____    ______ ____
ROOT
ATOM      1  C   UNL     1       1.438  12.460  18.737  0.00  0.00    +0.000 A 
ATOM      2  S   UNL     1       0.781  13.770  19.615  0.00  0.00    +0.000 S 
ATOM      3  C   UNL     1       0.278  12.750  20.894  0.00  0.00    +0.000 A 
ATOM      4  C   UNL     1       0.593  11.431  20.654  0.00  0.00    +0.000 A 
ATOM      5  C   UNL     1       0.322  10.273  21.476  0.00  0.00    +0.000 A 
ATOM      6  N   UNL     1       0.683   9.079  21.077  0.00  0.00    +0.000 NA
ATOM      7  N   UNL     1       1.373   8.905  19.859  0.00  0.00    +0.000 N 
ATOM      8  C   UNL     1       1.674   9.955  18.949  0.00  0.00    +0.000 A 
ATOM      9  O   UNL     1       2.193   9.817  17.841  0.00  0.00    +0.000 OA
ATOM     10  C   UNL     1       1.262  11.267  19.411  0.00  0.00    +0.000 A 
ENDROOT
BRANCH   7  11
ATOM     11  C   UNL     1       1.739   7.543  19.578  0.00  0.00    +0.000 A 
ATOM     12  C   UNL     1       1.625   6.539  20.548  0.00  0.00    +0.000 A 
ATOM     13  C   UNL     1       2.037   5.228  20.290  0.00  0.00    +0.000 A 
ATOM     14  C   UNL     1       2.562   4.877  19.050  0.00  0.00    +0.000 A 
ATOM     15  C   UNL     1       2.687   5.860  18.073  0.00  0.00    +0.000 A 
ATOM     16  C   UNL     1       2.251   7.174  18.325  0.00  0.00    +0.000 A 
BRANCH  14  17
ATOM     17  O   UNL     1       2.986   3.588  18.961  0.00  0.00    +0.000 OA
BRANCH  17  18
ATOM     18  C   UNL     1       2.103   2.580  18.496  0.00  0.00    +0.000 C 
ATOM     19  F   UNL     1       2.532   1.924  17.399  0.00  0.00    +0.000 F 
ATOM     20  F   UNL     1       1.900   1.682  19.485  0.00  0.00    +0.000 F 
ATOM     21  F   UNL     1       0.915   3.153  18.200  0.00  0.00    +0.000 F 
ENDBRANCH  17  18
ENDBRANCH  14  17
ENDBRANCH   7  11
BRANCH   1  22
ATOM     22  N   UNL     1       2.037  12.649  17.545  0.00  0.00    +0.000 N 
ATOM     23  H   UNL     1       2.622  11.933  17.130  0.00  0.00    +0.000 HD
ATOM     24  H   UNL     1       2.203  13.598  17.205  0.00  0.00    +0.000 HD
ENDBRANCH   1  22
BRANCH   5  25
ATOM     25  C   UNL     1      -0.383  10.346  22.844  0.00  0.00    +0.000 C 
ATOM     26  O   UNL     1      -1.447  10.901  23.028  0.00  0.00    +0.000 OA
BRANCH  25  27
ATOM     27  O   UNL     1       0.332   9.724  23.799  0.00  0.00    +0.000 OA
ATOM     28  H   UNL     1       0.825  10.386  24.335  0.00  0.00    +0.000 HD
ENDBRANCH  25  27
ENDBRANCH   5  25
TORSDOF 6
ENDMDL
MODEL 8
REMARK VINA RESULT:      -7.2      1.438      1.910
REMARK  Name = 
REMARK  6 active torsions:
REMARK  status: ('A' for Active; 'I' for Inactive)
REMARK    1  A    between atoms: N_1  and  C_2
REMARK    2  A    between atoms: C_6  and  C_7
REMARK    3  A    between atoms: C_7  and  O_9
REMARK    4  A    between atoms: N_11  and  C_12
REMARK    5  A    between atoms: C_15  and  O_16
REMARK    6  A    between atoms: O_16  and  C_17
REMARK                            x       y       z     vdW  Elec       q    Type
REMARK                         _______ _______ _______ _____ _____    ______ ____
ROOT
ATOM      1  C   UNL     1       4.254   5.309  17.244  0.00  0.00    +0.000 A 
ATOM      2  S   UNL     1       4.586   3.633  17.251  0.00  0.00    +0.000 S 
ATOM      3  C   UNL     1       3.600   3.375  18.626  0.00  0.00    +0.000 A 
ATOM      4  C   UNL     1       3.036   4.546  19.082  0.00  0.00    +0.000 A 
ATOM      5  C   UNL     1       2.166   4.747  20.219  0.00  0.00    +0.000 A 
ATOM      6  N   UNL     1       1.734   5.947  20.517  0.00  0.00    +0.000 NA
ATOM      7  N   UNL     1       2.079   7.056  19.716  0.00  0.00    +0.000 N 
ATOM      8  C   UNL     1       2.947   6.996  18.592  0.00  0.00    +0.000 A 
ATOM      9  O   UNL     1       3.335   7.961  17.933  0.00  0.00    +0.000 OA
ATOM     10  C   UNL     1       3.415   5.658  18.283  0.00  0.00    +0.000 A 
ENDROOT
BRANCH   7  11
ATOM     11  C   UNL     1       1.495   8.298  20.146  0.00  0.00    +0.000 A 
ATOM     12  C   UNL     1       1.105   9.282  19.228  0.00  0.00    +0.000 A 
ATOM     13  C   UNL     1       0.593  10.511  19.653  0.00  0.00    +0.000 A 
ATOM     14  C   UNL     1       0.441  10.791  21.007  0.00  0.00    +0.000 A 
ATOM     15  C   UNL     1       0.825   9.828  21.937  0.00  0.00    +0.000 A 
ATOM     16  C   UNL     1       1.319   8.583  21.509  0.00  0.00    +0.000 A 
BRANCH  14  17
ATOM     17  O   UNL     1      -0.002  12.047  21.278  0.00  0.00    +0.000 OA
BRANCH  17  18
ATOM     18  C   UNL     1       0.852  13.161  21.075  0.00  0.00    +0.000 C 
ATOM     19  F   UNL     1       2.161  12.851  20.976  0.00  0.00    +0.000 F 
ATOM     20  F   UNL     1       0.475  13.806  19.950  0.00  0.00    +0.000 F 
ATOM     21  F   UNL     1       0.704  14.011  22.116  0.00  0.00    +0.000 F 
ENDBRANCH  17  18
ENDBRANCH  14  17
ENDBRANCH   7  11
BRANCH   1  22
ATOM     22  N   UNL     1       4.784   6.121  16.309  0.00  0.00    +0.000 N 
ATOM     23  H   UNL     1       5.264   6.977  16.564  0.00  0.00    +0.000 HD
ATOM     24  H   UNL     1       4.433   6.089  15.349  0.00  0.00    +0.000 HD
ENDBRANCH   1  22
BRANCH   5  25
ATOM     25  C   UNL     1       1.686   3.607  21.137  0.00  0.00    +0.000 C 
ATOM     26  O   UNL     1       2.254   3.277  22.159  0.00  0.00    +0.000 OA
BRANCH  25  27
ATOM     27  O   UNL     1       0.570   3.027  20.659  0.00  0.00    +0.000 OA
ATOM     28  H   UNL     1       0.082   3.660  20.084  0.00  0.00    +0.000 HD
ENDBRANCH  25  27
ENDBRANCH   5  25
TORSDOF 6
ENDMDL
MODEL 9
REMARK VINA RESULT:      -7.2      0.778      1.394
REMARK  Name = 
REMARK  6 active torsions:
REMARK  status: ('A' for Active; 'I' for Inactive)
REMARK    1  A    between atoms: N_1  and  C_2
REMARK    2  A    between atoms: C_6  and  C_7
REMARK    3  A    between atoms: C_7  and  O_9
REMARK    4  A    between atoms: N_11  and  C_12
REMARK    5  A    between atoms: C_15  and  O_16
REMARK    6  A    between atoms: O_16  and  C_17
REMARK                            x       y       z     vdW  Elec       q    Type
REMARK                         _______ _______ _______ _____ _____    ______ ____
ROOT
ATOM      1  C   UNL     1       4.645   5.650  16.641  0.00  0.00    +0.000 A 
ATOM      2  S   UNL     1       5.000   4.013  16.305  0.00  0.00    +0.000 S 
ATOM      3  C   UNL     1       3.991   3.462  17.573  0.00  0.00    +0.000 A 
ATOM      4  C   UNL     1       3.402   4.506  18.252  0.00  0.00    +0.000 A 
ATOM      5  C   UNL     1       2.507   4.456  19.387  0.00  0.00    +0.000 A 
ATOM      6  N   UNL     1       2.053   5.562  19.920  0.00  0.00    +0.000 NA
ATOM      7  N   UNL     1       2.397   6.818  19.377  0.00  0.00    +0.000 N 
ATOM      8  C   UNL     1       3.287   7.003  18.284  0.00  0.00    +0.000 A 
ATOM      9  O   UNL     1       3.674   8.089  17.851  0.00  0.00    +0.000 OA
ATOM     10  C   UNL     1       3.780   5.765  17.712  0.00  0.00    +0.000 A 
ENDROOT
BRANCH   7  11
ATOM     11  C   UNL     1       1.787   7.936  20.044  0.00  0.00    +0.000 A 
ATOM     12  C   UNL     1       1.331   9.054  19.333  0.00  0.00    +0.000 A 
ATOM     13  C   UNL     1       0.793  10.165  19.992  0.00  0.00    +0.000 A 
ATOM     14  C   UNL     1       0.681  10.186  21.379  0.00  0.00    +0.000 A 
ATOM     15  C   UNL     1       1.130   9.086  22.104  0.00  0.00    +0.000 A 
ATOM     16  C   UNL     1       1.651   7.960  21.441  0.00  0.00    +0.000 A 
BRANCH  14  17
ATOM     17  O   UNL     1       0.206  11.353  21.888  0.00  0.00    +0.000 OA
BRANCH  17  18
ATOM     18  C   UNL     1      -1.011  11.368  22.617  0.00  0.00    +0.000 C 
ATOM     19  F   UNL     1      -1.214  10.279  23.387  0.00  0.00    +0.000 F 
ATOM     20  F   UNL     1      -1.039  12.465  23.404  0.00  0.00    +0.000 F 
ATOM     21  F   UNL     1      -2.036  11.454  21.740  0.00  0.00    +0.000 F 
ENDBRANCH  17  18
ENDBRANCH  14  17
ENDBRANCH   7  11
BRANCH   1  22
ATOM     22  N   UNL     1       5.181   6.645  15.908  0.00  0.00    +0.000 N 
ATOM     23  H   UNL     1       4.696   7.028  15.105  0.00  0.00    +0.000 HD
ATOM     24  H   UNL     1       6.192   6.797  15.920  0.00  0.00    +0.000 HD
ENDBRANCH   1  22
BRANCH   5  25
ATOM     25  C   UNL     1       2.027   3.143  20.035  0.00  0.00    +0.000 C 
ATOM     26  O   UNL     1       1.233   2.384  19.516  0.00  0.00    +0.000 OA
BRANCH  25  27
ATOM     27  O   UNL     1       2.593   2.954  21.240  0.00  0.00    +0.000 OA
ATOM     28  H   UNL     1       2.434   3.738  21.814  0.00  0.00    +0.000 HD
ENDBRANCH  25  27
ENDBRANCH   5  25
TORSDOF 6
ENDMDL
