MODEL 1
REMARK VINA RESULT:      -8.5      0.000      0.000
REMARK  Name = 
REMARK  4 active torsions:
REMARK  status: ('A' for Active; 'I' for Inactive)
REMARK    1  A    between atoms: C_5  and  N_6
REMARK    2  A    between atoms: C_10  and  C_11
REMARK    3  A    between atoms: C_11  and  N_12
REMARK    4  A    between atoms: C_16  and  C_17
REMARK                            x       y       z     vdW  Elec       q    Type
REMARK                         _______ _______ _______ _____ _____    ______ ____
ROOT
ATOM      1  N   UNL     1       3.910   4.318  18.291  0.00  0.00    +0.000 N 
ATOM      2  C   UNL     1       3.272   5.406  18.947  0.00  0.00    +0.000 A 
ATOM      3  C   UNL     1       2.563   5.154  20.120  0.00  0.00    +0.000 A 
ATOM      4  C   UNL     1       1.839   6.187  20.730  0.00  0.00    +0.000 A 
ATOM      5  C   UNL     1       1.793   7.449  20.137  0.00  0.00    +0.000 A 
ATOM      6  C   UNL     1       2.566   7.618  18.995  0.00  0.00    +0.000 A 
ATOM      7  N   UNL     1       3.301   6.642  18.407  0.00  0.00    +0.000 NA
ATOM      8  H   UNL     1       3.193   3.656  18.011  0.00  0.00    +0.000 HD
ENDROOT
BRANCH   1  13
ATOM      9  F   UNL     1       7.904   4.811  14.459  0.00  0.00    +0.000 F 
ATOM     10  C   UNL     1       6.940   4.713  15.384  0.00  0.00    +0.000 A 
ATOM     11  C   UNL     1       5.622   4.564  14.985  0.00  0.00    +0.000 A 
ATOM     12  C   UNL     1       4.622   4.439  15.951  0.00  0.00    +0.000 A 
ATOM     13  C   UNL     1       4.930   4.442  17.317  0.00  0.00    +0.000 A 
ATOM     14  C   UNL     1       6.268   4.655  17.700  0.00  0.00    +0.000 A 
ATOM     15  C   UNL     1       7.272   4.774  16.732  0.00  0.00    +0.000 A 
ENDBRANCH   1  13
BRANCH   5  16
ATOM     16  C   UNL     1       0.870   8.544  20.625  0.00  0.00    +0.000 C 
BRANCH  16  17
ATOM     17  N   UNL     1       1.124   9.902  20.116  0.00  0.00    +0.000 NA
ATOM     18  C   UNL     1       0.843  10.922  21.160  0.00  0.00    +0.000 C 
ATOM     19  C   UNL     1      -0.647  11.289  21.369  0.00  0.00    +0.000 C 
ATOM     20  O   UNL     1      -1.348  11.527  20.141  0.00  0.00    +0.000 OA
ATOM     21  C   UNL     1      -1.201  10.417  19.237  0.00  0.00    +0.000 C 
ATOM     22  C   UNL     1       0.312  10.260  18.923  0.00  0.00    +0.000 C 
BRANCH  21  23
ATOM     23  C   UNL     1      -2.087  10.576  18.014  0.00  0.00    +0.000 A 
ATOM     24  C   UNL     1      -3.222  11.399  18.020  0.00  0.00    +0.000 A 
ATOM     25  C   UNL     1      -4.093  11.444  16.932  0.00  0.00    +0.000 A 
ATOM     26  C   UNL     1      -3.843  10.658  15.808  0.00  0.00    +0.000 A 
ATOM     27  C   UNL     1      -2.717   9.836  15.774  0.00  0.00    +0.000 A 
ATOM     28  C   UNL     1      -1.847   9.792  16.869  0.00  0.00    +0.000 A 
ENDBRANCH  21  23
ENDBRANCH  16  17
ENDBRANCH   5  16
TORSDOF 4
ENDMDL
MODEL 2
REMARK VINA RESULT:      -8.4      0.337      1.342
REMARK  Name = 
REMARK  4 active torsions:
REMARK  status: ('A' for Active; 'I' for Inactive)
REMARK    1  A    between atoms: C_5  and  N_6
REMARK    2  A    between atoms: C_10  and  C_11
REMARK    3  A    between atoms: C_11  and  N_12
REMARK    4  A    between atoms: C_16  and  C_17
REMARK                            x       y       z     vdW  Elec       q    Type
REMARK                         _______ _______ _______ _____ _____    ______ ____
ROOT
ATOM      1  N   UNL     1       3.839   4.531  17.998  0.00  0.00    +0.000 N 
ATOM      2  C   UNL     1       3.233   5.618  18.686  0.00  0.00    +0.000 A 
ATOM      3  C   UNL     1       2.528   5.354  19.859  0.00  0.00    +0.000 A 
ATOM      4  C   UNL     1       1.833   6.388  20.500  0.00  0.00    +0.000 A 
ATOM      5  C   UNL     1       1.812   7.665  19.938  0.00  0.00    +0.000 A 
ATOM      6  C   UNL     1       2.578   7.843  18.792  0.00  0.00    +0.000 A 
ATOM      7  N   UNL     1       3.285   6.865  18.175  0.00  0.00    +0.000 NA
ATOM      8  H   UNL     1       3.104   3.892  17.710  0.00  0.00    +0.000 HD
ENDROOT
BRANCH   1  13
ATOM      9  F   UNL     1       7.832   5.013  14.165  0.00  0.00    +0.000 F 
ATOM     10  C   UNL     1       6.875   4.876  15.092  0.00  0.00    +0.000 A 
ATOM     11  C   UNL     1       7.141   5.221  16.407  0.00  0.00    +0.000 A 
ATOM     12  C   UNL     1       6.135   5.100  17.366  0.00  0.00    +0.000 A 
ATOM     13  C   UNL     1       4.853   4.654  17.019  0.00  0.00    +0.000 A 
ATOM     14  C   UNL     1       4.623   4.253  15.690  0.00  0.00    +0.000 A 
ATOM     15  C   UNL     1       5.629   4.380  14.726  0.00  0.00    +0.000 A 
ENDBRANCH   1  13
BRANCH   5  16
ATOM     16  C   UNL     1       0.918   8.769  20.459  0.00  0.00    +0.000 C 
BRANCH  16  17
ATOM     17  N   UNL     1       1.083  10.100  19.851  0.00  0.00    +0.000 NA
ATOM     18  C   UNL     1       0.791  11.174  20.836  0.00  0.00    +0.000 C 
ATOM     19  C   UNL     1      -0.707  11.483  21.082  0.00  0.00    +0.000 C 
ATOM     20  O   UNL     1      -1.465  11.602  19.872  0.00  0.00    +0.000 OA
ATOM     21  C   UNL     1      -1.297  10.441  19.038  0.00  0.00    +0.000 C 
ATOM     22  C   UNL     1       0.209  10.336  18.672  0.00  0.00    +0.000 C 
BRANCH  21  23
ATOM     23  C   UNL     1      -2.236  10.473  17.846  0.00  0.00    +0.000 A 
ATOM     24  C   UNL     1      -1.933   9.822  16.642  0.00  0.00    +0.000 A 
ATOM     25  C   UNL     1      -2.745   9.958  15.516  0.00  0.00    +0.000 A 
ATOM     26  C   UNL     1      -3.886  10.756  15.575  0.00  0.00    +0.000 A 
ATOM     27  C   UNL     1      -4.215  11.410  16.762  0.00  0.00    +0.000 A 
ATOM     28  C   UNL     1      -3.396  11.272  17.889  0.00  0.00    +0.000 A 
ENDBRANCH  21  23
ENDBRANCH  16  17
ENDBRANCH   5  16
TORSDOF 4
ENDMDL
MODEL 3
REMARK VINA RESULT:      -8.2      2.278      2.890
REMARK  Name = 
REMARK  4 active torsions:
REMARK  status: ('A' for Active; 'I' for Inactive)
REMARK    1  A    between atoms: C_5  and  N_6
REMARK    2  A    between atoms: C_10  and  C_11
REMARK    3  A    between atoms: C_11  and  N_12
REMARK    4  A    between atoms: C_16  and  C_17
REMARK                            x       y       z     vdW  Elec       q    Type
REMARK                         _______ _______ _______ _____ _____    ______ ____
ROOT
ATOM      1  N   UNL     1       3.197   6.380  17.778  0.00  0.00    +0.000 N 
ATOM      2  C   UNL     1       2.442   7.284  18.575  0.00  0.00    +0.000 A 
ATOM      3  C   UNL     1       2.137   8.539  18.052  0.00  0.00    +0.000 A 
ATOM      4  C   UNL     1       1.486   9.487  18.853  0.00  0.00    +0.000 A 
ATOM      5  C   UNL     1       1.187   9.187  20.182  0.00  0.00    +0.000 A 
ATOM      6  C   UNL     1       1.489   7.897  20.602  0.00  0.00    +0.000 A 
ATOM      7  N   UNL     1       2.087   6.954  19.834  0.00  0.00    +0.000 NA
ATOM      8  H   UNL     1       4.102   6.802  17.597  0.00  0.00    +0.000 HD
ENDROOT
BRANCH   1  13
ATOM      9  F   UNL     1       3.580   0.909  18.669  0.00  0.00    +0.000 F 
ATOM     10  C   UNL     1       3.474   2.230  18.470  0.00  0.00    +0.000 A 
ATOM     11  C   UNL     1       4.405   3.083  19.038  0.00  0.00    +0.000 A 
ATOM     12  C   UNL     1       4.306   4.457  18.810  0.00  0.00    +0.000 A 
ATOM     13  C   UNL     1       3.292   4.986  18.001  0.00  0.00    +0.000 A 
ATOM     14  C   UNL     1       2.323   4.106  17.485  0.00  0.00    +0.000 A 
ATOM     15  C   UNL     1       2.425   2.728  17.708  0.00  0.00    +0.000 A 
ENDBRANCH   1  13
BRANCH   5  16
ATOM     16  C   UNL     1       0.678  10.226  21.156  0.00  0.00    +0.000 C 
BRANCH  16  17
ATOM     17  N   UNL     1       0.495  11.591  20.635  0.00  0.00    +0.000 NA
ATOM     18  C   UNL     1      -0.247  12.436  21.608  0.00  0.00    +0.000 C 
ATOM     19  C   UNL     1      -1.785  12.250  21.636  0.00  0.00    +0.000 C 
ATOM     20  O   UNL     1      -2.377  12.236  20.331  0.00  0.00    +0.000 OA
ATOM     21  C   UNL     1      -1.744  11.257  19.486  0.00  0.00    +0.000 C 
ATOM     22  C   UNL     1      -0.247  11.649  19.348  0.00  0.00    +0.000 C 
BRANCH  21  23
ATOM     23  C   UNL     1      -2.480  11.104  18.167  0.00  0.00    +0.000 A 
ATOM     24  C   UNL     1      -3.771  11.617  17.971  0.00  0.00    +0.000 A 
ATOM     25  C   UNL     1      -4.484  11.366  16.799  0.00  0.00    +0.000 A 
ATOM     26  C   UNL     1      -3.912  10.589  15.792  0.00  0.00    +0.000 A 
ATOM     27  C   UNL     1      -2.627  10.073  15.957  0.00  0.00    +0.000 A 
ATOM     28  C   UNL     1      -1.917  10.326  17.137  0.00  0.00    +0.000 A 
ENDBRANCH  21  23
ENDBRANCH  16  17
ENDBRANCH   5  16
TORSDOF 4
ENDMDL
MODEL 4
REMARK VINA RESULT:      -8.0      4.084      9.061
REMARK  Name = 
REMARK  4 active torsions:
REMARK  status: ('A' for Active; 'I' for Inactive)
REMARK    1  A    between atoms: C_5  and  N_6
REMARK    2  A    between atoms: C_10  and  C_11
REMARK    3  A    between atoms: C_11  and  N_12
REMARK    4  A    between atoms: C_16  and  C_17
REMARK                            x       y       z     vdW  Elec       q    Type
REMARK                         _______ _______ _______ _____ _____    ______ ____
ROOT
ATOM      1  N   UNL     1       0.934  10.753  18.125  0.00  0.00    +0.000 N 
ATOM      2  C   UNL     1       1.383   9.547  18.730  0.00  0.00    +0.000 A 
ATOM      3  C   UNL     1       2.120   8.649  17.960  0.00  0.00    +0.000 A 
ATOM      4  C   UNL     1       2.485   7.408  18.498  0.00  0.00    +0.000 A 
ATOM      5  C   UNL     1       2.070   7.058  19.783  0.00  0.00    +0.000 A 
ATOM      6  C   UNL     1       1.377   8.033  20.491  0.00  0.00    +0.000 A 
ATOM      7  N   UNL     1       1.044   9.253  20.002  0.00  0.00    +0.000 NA
ATOM      8  H   UNL     1       0.311  10.509  17.362  0.00  0.00    +0.000 HD
ENDROOT
BRANCH   1  13
ATOM      9  F   UNL     1      -0.813  15.243  20.893  0.00  0.00    +0.000 F 
ATOM     10  C   UNL     1      -0.388  14.151  20.244  0.00  0.00    +0.000 A 
ATOM     11  C   UNL     1      -1.312  13.227  19.783  0.00  0.00    +0.000 A 
ATOM     12  C   UNL     1      -0.869  12.102  19.086  0.00  0.00    +0.000 A 
ATOM     13  C   UNL     1       0.493  11.899  18.829  0.00  0.00    +0.000 A 
ATOM     14  C   UNL     1       1.417  12.818  19.360  0.00  0.00    +0.000 A 
ATOM     15  C   UNL     1       0.973  13.950  20.053  0.00  0.00    +0.000 A 
ENDBRANCH   1  13
BRANCH   5  16
ATOM     16  C   UNL     1       2.248   5.664  20.344  0.00  0.00    +0.000 C 
BRANCH  16  17
ATOM     17  N   UNL     1       1.939   4.541  19.443  0.00  0.00    +0.000 NA
ATOM     18  C   UNL     1       2.063   3.241  20.153  0.00  0.00    +0.000 C 
ATOM     19  C   UNL     1       3.501   2.694  20.326  0.00  0.00    +0.000 C 
ATOM     20  O   UNL     1       4.280   2.759  19.124  0.00  0.00    +0.000 OA
ATOM     21  C   UNL     1       4.285   4.093  18.582  0.00  0.00    +0.000 C 
ATOM     22  C   UNL     1       2.816   4.472  18.245  0.00  0.00    +0.000 C 
BRANCH  21  23
ATOM     23  C   UNL     1       5.252   4.216  17.419  0.00  0.00    +0.000 A 
ATOM     24  C   UNL     1       6.600   4.556  17.604  0.00  0.00    +0.000 A 
ATOM     25  C   UNL     1       7.449   4.783  16.521  0.00  0.00    +0.000 A 
ATOM     26  C   UNL     1       6.960   4.672  15.220  0.00  0.00    +0.000 A 
ATOM     27  C   UNL     1       5.625   4.327  15.007  0.00  0.00    +0.000 A 
ATOM     28  C   UNL     1       4.777   4.103  16.097  0.00  0.00    +0.000 A 
ENDBRANCH  21  23
ENDBRANCH  16  17
ENDBRANCH   5  16
TORSDOF 4
ENDMDL
MODEL 5
REMARK VINA RESULT:      -7.9      3.050      4.421
REMARK  Name = 
REMARK  4 active torsions:
REMARK  status: ('A' for Active; 'I' for Inactive)
REMARK    1  A    between atoms: C_5  and  N_6
REMARK    2  A    between atoms: C_10  and  C_11
REMARK    3  A    between atoms: C_11  and  N_12
REMARK    4  A    between atoms: C_16  and  C_17
REMARK                            x       y       z     vdW  Elec       q    Type
REMARK                         _______ _______ _______ _____ _____    ______ ____
ROOT
ATOM      1  N   UNL     1       3.190   6.702  17.764  0.00  0.00    +0.000 N 
ATOM      2  C   UNL     1       2.366   7.604  18.491  0.00  0.00    +0.000 A 
ATOM      3  C   UNL     1       1.943   8.773  17.861  0.00  0.00    +0.000 A 
ATOM      4  C   UNL     1       1.218   9.730  18.586  0.00  0.00    +0.000 A 
ATOM      5  C   UNL     1       0.965   9.529  19.942  0.00  0.00    +0.000 A 
ATOM      6  C   UNL     1       1.387   8.315  20.472  0.00  0.00    +0.000 A 
ATOM      7  N   UNL     1       2.058   7.362  19.781  0.00  0.00    +0.000 NA
ATOM      8  H   UNL     1       4.051   7.183  17.527  0.00  0.00    +0.000 HD
ENDROOT
BRANCH   1  13
ATOM      9  F   UNL     1       4.062   1.383  19.115  0.00  0.00    +0.000 F 
ATOM     10  C   UNL     1       3.866   2.663  18.774  0.00  0.00    +0.000 A 
ATOM     11  C   UNL     1       2.788   2.999  17.971  0.00  0.00    +0.000 A 
ATOM     12  C   UNL     1       2.571   4.336  17.636  0.00  0.00    +0.000 A 
ATOM     13  C   UNL     1       3.414   5.348  18.112  0.00  0.00    +0.000 A 
ATOM     14  C   UNL     1       4.538   4.977  18.875  0.00  0.00    +0.000 A 
ATOM     15  C   UNL     1       4.752   3.637  19.217  0.00  0.00    +0.000 A 
ENDBRANCH   1  13
BRANCH   5  16
ATOM     16  C   UNL     1       0.375  10.605  20.828  0.00  0.00    +0.000 C 
BRANCH  16  17
ATOM     17  N   UNL     1      -0.258  11.749  20.151  0.00  0.00    +0.000 NA
ATOM     18  C   UNL     1       0.497  13.003  20.410  0.00  0.00    +0.000 C 
ATOM     19  C   UNL     1       0.239  13.683  21.778  0.00  0.00    +0.000 C 
ATOM     20  O   UNL     1      -1.152  13.780  22.108  0.00  0.00    +0.000 OA
ATOM     21  C   UNL     1      -1.795  12.494  22.029  0.00  0.00    +0.000 C 
ATOM     22  C   UNL     1      -1.665  11.990  20.565  0.00  0.00    +0.000 C 
BRANCH  21  23
ATOM     23  C   UNL     1      -3.218  12.552  22.553  0.00  0.00    +0.000 A 
ATOM     24  C   UNL     1      -4.315  12.773  21.707  0.00  0.00    +0.000 A 
ATOM     25  C   UNL     1      -5.603  12.944  22.214  0.00  0.00    +0.000 A 
ATOM     26  C   UNL     1      -5.819  12.897  23.591  0.00  0.00    +0.000 A 
ATOM     27  C   UNL     1      -4.748  12.671  24.454  0.00  0.00    +0.000 A 
ATOM     28  C   UNL     1      -3.457  12.502  23.941  0.00  0.00    +0.000 A 
ENDBRANCH  21  23
ENDBRANCH  16  17
ENDBRANCH   5  16
TORSDOF 4
ENDMDL
MODEL 6
REMARK VINA RESULT:      -7.8      4.087      9.179
REMARK  Name = 
REMARK  4 active torsions:
REMARK  status: ('A' for Active; 'I' for Inactive)
REMARK    1  A    between atoms: C_5  and  N_6
REMARK    2  A    between atoms: C_10  and  C_11
REMARK    3  A    between atoms: C_11  and  N_12
REMARK    4  A    between atoms: C_16  and  C_17
REMARK                            x       y       z     vdW  Elec       q    Type
REMARK                         _______ _______ _______ _____ _____    ______ ____
ROOT
ATOM      1  N   UNL     1       0.666  10.792  18.207  0.00  0.00    +0.000 N 
ATOM      2  C   UNL     1       1.235   9.611  18.757  0.00  0.00    +0.000 A 
ATOM      3  C   UNL     1       2.005   8.795  17.930  0.00  0.00    +0.000 A 
ATOM      4  C   UNL     1       2.490   7.573  18.415  0.00  0.00    +0.000 A 
ATOM      5  C   UNL     1       2.162   7.158  19.706  0.00  0.00    +0.000 A 
ATOM      6  C   UNL     1       1.427   8.056  20.471  0.00  0.00    +0.000 A 
ATOM      7  N   UNL     1       0.978   9.258  20.033  0.00  0.00    +0.000 NA
ATOM      8  H   UNL     1       0.030  10.519  17.465  0.00  0.00    +0.000 HD
ENDROOT
BRANCH   1  13
ATOM      9  F   UNL     1      -1.277  15.075  21.166  0.00  0.00    +0.000 F 
ATOM     10  C   UNL     1      -0.814  14.052  20.435  0.00  0.00    +0.000 A 
ATOM     11  C   UNL     1       0.534  13.990  20.125  0.00  0.00    +0.000 A 
ATOM     12  C   UNL     1       1.019  12.911  19.383  0.00  0.00    +0.000 A 
ATOM     13  C   UNL     1       0.168  11.881  18.962  0.00  0.00    +0.000 A 
ATOM     14  C   UNL     1      -1.208  11.996  19.237  0.00  0.00    +0.000 A 
ATOM     15  C   UNL     1      -1.693  13.074  19.986  0.00  0.00    +0.000 A 
ENDBRANCH   1  13
BRANCH   5  16
ATOM     16  C   UNL     1       2.474   5.769  20.219  0.00  0.00    +0.000 C 
BRANCH  16  17
ATOM     17  N   UNL     1       2.127   4.642  19.336  0.00  0.00    +0.000 NA
ATOM     18  C   UNL     1       2.357   3.342  20.018  0.00  0.00    +0.000 C 
ATOM     19  C   UNL     1       3.824   2.845  20.060  0.00  0.00    +0.000 C 
ATOM     20  O   UNL     1       4.491   2.948  18.796  0.00  0.00    +0.000 OA
ATOM     21  C   UNL     1       4.403   4.285  18.270  0.00  0.00    +0.000 C 
ATOM     22  C   UNL     1       2.899   4.614  18.065  0.00  0.00    +0.000 C 
BRANCH  21  23
ATOM     23  C   UNL     1       5.261   4.450  17.028  0.00  0.00    +0.000 A 
ATOM     24  C   UNL     1       4.744   4.270  15.738  0.00  0.00    +0.000 A 
ATOM     25  C   UNL     1       5.567   4.306  14.612  0.00  0.00    +0.000 A 
ATOM     26  C   UNL     1       6.936   4.526  14.760  0.00  0.00    +0.000 A 
ATOM     27  C   UNL     1       7.475   4.716  16.032  0.00  0.00    +0.000 A 
ATOM     28  C   UNL     1       6.645   4.676  17.158  0.00  0.00    +0.000 A 
ENDBRANCH  21  23
ENDBRANCH  16  17
ENDBRANCH   5  16
TORSDOF 4
ENDMDL
MODEL 7
REMARK VINA RESULT:      -7.8      3.090      4.580
REMARK  Name = 
REMARK  4 active torsions:
REMARK  status: ('A' for Active; 'I' for Inactive)
REMARK    1  A    between atoms: C_5  and  N_6
REMARK    2  A    between atoms: C_10  and  C_11
REMARK    3  A    between atoms: C_11  and  N_12
REMARK    4  A    between atoms: C_16  and  C_17
REMARK                            x       y       z     vdW  Elec       q    Type
REMARK                         _______ _______ _______ _____ _____    ______ ____
ROOT
ATOM      1  N   UNL     1       3.225   6.892  17.815  0.00  0.00    +0.000 N 
ATOM      2  C   UNL     1       2.366   7.766  18.536  0.00  0.00    +0.000 A 
ATOM      3  C   UNL     1       1.949   8.946  17.921  0.00  0.00    +0.000 A 
ATOM      4  C   UNL     1       1.189   9.875  18.645  0.00  0.00    +0.000 A 
ATOM      5  C   UNL     1       0.893   9.637  19.987  0.00  0.00    +0.000 A 
ATOM      6  C   UNL     1       1.313   8.416  20.500  0.00  0.00    +0.000 A 
ATOM      7  N   UNL     1       2.019   7.488  19.809  0.00  0.00    +0.000 NA
ATOM      8  H   UNL     1       4.087   7.389  17.619  0.00  0.00    +0.000 HD
ENDROOT
BRANCH   1  13
ATOM      9  F   UNL     1       4.135   1.561  19.091  0.00  0.00    +0.000 F 
ATOM     10  C   UNL     1       3.902   2.847  18.800  0.00  0.00    +0.000 A 
ATOM     11  C   UNL     1       4.781   3.819  19.249  0.00  0.00    +0.000 A 
ATOM     12  C   UNL     1       4.550   5.157  18.925  0.00  0.00    +0.000 A 
ATOM     13  C   UNL     1       3.454   5.532  18.137  0.00  0.00    +0.000 A 
ATOM     14  C   UNL     1       2.542   4.535  17.743  0.00  0.00    +0.000 A 
ATOM     15  C   UNL     1       2.777   3.193  18.062  0.00  0.00    +0.000 A 
ENDBRANCH   1  13
BRANCH   5  16
ATOM     16  C   UNL     1       0.261  10.684  20.879  0.00  0.00    +0.000 C 
BRANCH  16  17
ATOM     17  N   UNL     1      -0.355  11.842  20.210  0.00  0.00    +0.000 NA
ATOM     18  C   UNL     1       0.456  13.070  20.420  0.00  0.00    +0.000 C 
ATOM     19  C   UNL     1       0.280  13.777  21.786  0.00  0.00    +0.000 C 
ATOM     20  O   UNL     1      -1.093  13.932  22.169  0.00  0.00    +0.000 OA
ATOM     21  C   UNL     1      -1.786  12.671  22.135  0.00  0.00    +0.000 C 
ATOM     22  C   UNL     1      -1.734  12.142  20.675  0.00  0.00    +0.000 C 
BRANCH  21  23
ATOM     23  C   UNL     1      -3.184  12.791  22.714  0.00  0.00    +0.000 A 
ATOM     24  C   UNL     1      -3.475  12.432  24.038  0.00  0.00    +0.000 A 
ATOM     25  C   UNL     1      -4.783  12.432  24.522  0.00  0.00    +0.000 A 
ATOM     26  C   UNL     1      -5.834  12.796  23.682  0.00  0.00    +0.000 A 
ATOM     27  C   UNL     1      -5.572  13.166  22.363  0.00  0.00    +0.000 A 
ATOM     28  C   UNL     1      -4.258  13.161  21.881  0.00  0.00    +0.000 A 
ENDBRANCH  21  23
ENDBRANCH  16  17
ENDBRANCH   5  16
TORSDOF 4
ENDMDL
MODEL 8
REMARK VINA RESULT:      -7.8      4.495      9.457
REMARK  Name = 
REMARK  4 active torsions:
REMARK  status: ('A' for Active; 'I' for Inactive)
REMARK    1  A    between atoms: C_5  and  N_6
REMARK    2  A    between atoms: C_10  and  C_11
REMARK    3  A    between atoms: C_11  and  N_12
REMARK    4  A    between atoms: C_16  and  C_17
REMARK                            x       y       z     vdW  Elec       q    Type
REMARK                         _______ _______ _______ _____ _____    ______ ____
ROOT
ATOM      1  N   UNL     1       0.250  11.022  19.798  0.00  0.00    +0.000 N 
ATOM      2  C   UNL     1       0.892   9.760  19.926  0.00  0.00    +0.000 A 
ATOM      3  C   UNL     1       1.540   9.227  18.813  0.00  0.00    +0.000 A 
ATOM      4  C   UNL     1       2.092   7.940  18.880  0.00  0.00    +0.000 A 
ATOM      5  C   UNL     1       1.949   7.182  20.042  0.00  0.00    +0.000 A 
ATOM      6  C   UNL     1       1.327   7.813  21.113  0.00  0.00    +0.000 A 
ATOM      7  N   UNL     1       0.818   9.068  21.081  0.00  0.00    +0.000 NA
ATOM      8  H   UNL     1      -0.483  10.933  19.102  0.00  0.00    +0.000 HD
ENDROOT
BRANCH   1  13
ATOM      9  F   UNL     1      -1.284  14.249  24.054  0.00  0.00    +0.000 F 
ATOM     10  C   UNL     1      -0.897  13.465  23.039  0.00  0.00    +0.000 A 
ATOM     11  C   UNL     1      -1.408  12.182  22.932  0.00  0.00    +0.000 A 
ATOM     12  C   UNL     1      -1.022  11.375  21.861  0.00  0.00    +0.000 A 
ATOM     13  C   UNL     1      -0.140  11.848  20.880  0.00  0.00    +0.000 A 
ATOM     14  C   UNL     1       0.413  13.132  21.041  0.00  0.00    +0.000 A 
ATOM     15  C   UNL     1       0.021  13.943  22.111  0.00  0.00    +0.000 A 
ENDBRANCH   1  13
BRANCH   5  16
ATOM     16  C   UNL     1       2.332   5.720  20.112  0.00  0.00    +0.000 C 
BRANCH  16  17
ATOM     17  N   UNL     1       1.883   4.862  19.003  0.00  0.00    +0.000 NA
ATOM     18  C   UNL     1       1.702   3.458  19.457  0.00  0.00    +0.000 C 
ATOM     19  C   UNL     1       2.992   2.610  19.578  0.00  0.00    +0.000 C 
ATOM     20  O   UNL     1       3.856   2.730  18.440  0.00  0.00    +0.000 OA
ATOM     21  C   UNL     1       4.157   4.110  18.162  0.00  0.00    +0.000 C 
ATOM     22  C   UNL     1       2.818   4.832  17.848  0.00  0.00    +0.000 C 
BRANCH  21  23
ATOM     23  C   UNL     1       5.214   4.240  17.080  0.00  0.00    +0.000 A 
ATOM     24  C   UNL     1       6.532   4.621  17.370  0.00  0.00    +0.000 A 
ATOM     25  C   UNL     1       7.462   4.853  16.357  0.00  0.00    +0.000 A 
ATOM     26  C   UNL     1       7.085   4.708  15.022  0.00  0.00    +0.000 A 
ATOM     27  C   UNL     1       5.783   4.323  14.706  0.00  0.00    +0.000 A 
ATOM     28  C   UNL     1       4.853   4.093  15.727  0.00  0.00    +0.000 A 
ENDBRANCH  21  23
ENDBRANCH  16  17
ENDBRANCH   5  16
TORSDOF 4
ENDMDL
MODEL 9
REMARK VINA RESULT:      -7.8      1.302      1.866
REMARK  Name = 
REMARK  4 active torsions:
REMARK  status: ('A' for Active; 'I' for Inactive)
REMARK    1  A    between atoms: C_5  and  N_6
REMARK    2  A    between atoms: C_10  and  C_11
REMARK    3  A    between atoms: C_11  and  N_12
REMARK    4  A    between atoms: C_16  and  C_17
REMARK                            x       y       z     vdW  Elec       q    Type
REMARK                         _______ _______ _______ _____ _____    ______ ____
ROOT
ATOM      1  N   UNL     1       3.426   4.963  19.162  0.00  0.00    +0.000 N 
ATOM      2  C   UNL     1       2.797   6.205  19.450  0.00  0.00    +0.000 A 
ATOM      3  C   UNL     1       2.061   6.322  20.627  0.00  0.00    +0.000 A 
ATOM      4  C   UNL     1       1.345   7.499  20.885  0.00  0.00    +0.000 A 
ATOM      5  C   UNL     1       1.335   8.528  19.943  0.00  0.00    +0.000 A 
ATOM      6  C   UNL     1       2.133   8.339  18.821  0.00  0.00    +0.000 A 
ATOM      7  N   UNL     1       2.860   7.223  18.568  0.00  0.00    +0.000 NA
ATOM      8  H   UNL     1       2.702   4.257  19.075  0.00  0.00    +0.000 HD
ENDROOT
BRANCH   1  13
ATOM      9  F   UNL     1       7.501   4.241  15.455  0.00  0.00    +0.000 F 
ATOM     10  C   UNL     1       6.518   4.435  16.343  0.00  0.00    +0.000 A 
ATOM     11  C   UNL     1       5.211   4.138  15.992  0.00  0.00    +0.000 A 
ATOM     12  C   UNL     1       4.190   4.319  16.927  0.00  0.00    +0.000 A 
ATOM     13  C   UNL     1       4.467   4.778  18.221  0.00  0.00    +0.000 A 
ATOM     14  C   UNL     1       5.793   5.131  18.536  0.00  0.00    +0.000 A 
ATOM     15  C   UNL     1       6.817   4.944  17.601  0.00  0.00    +0.000 A 
ENDBRANCH   1  13
BRANCH   5  16
ATOM     16  C   UNL     1       0.424   9.730  20.060  0.00  0.00    +0.000 C 
BRANCH  16  17
ATOM     17  N   UNL     1       0.464  10.704  18.957  0.00  0.00    +0.000 NA
ATOM     18  C   UNL     1       0.937  12.029  19.435  0.00  0.00    +0.000 C 
ATOM     19  C   UNL     1      -0.114  12.907  20.158  0.00  0.00    +0.000 C 
ATOM     20  O   UNL     1      -1.370  12.968  19.469  0.00  0.00    +0.000 OA
ATOM     21  C   UNL     1      -1.879  11.649  19.202  0.00  0.00    +0.000 C 
ATOM     22  C   UNL     1      -0.849  10.919  18.295  0.00  0.00    +0.000 C 
BRANCH  21  23
ATOM     23  C   UNL     1      -3.289  11.701  18.641  0.00  0.00    +0.000 A 
ATOM     24  C   UNL     1      -3.584  11.297  17.332  0.00  0.00    +0.000 A 
ATOM     25  C   UNL     1      -4.858  11.462  16.789  0.00  0.00    +0.000 A 
ATOM     26  C   UNL     1      -5.870  12.040  17.555  0.00  0.00    +0.000 A 
ATOM     27  C   UNL     1      -5.605  12.444  18.863  0.00  0.00    +0.000 A 
ATOM     28  C   UNL     1      -4.324  12.278  19.402  0.00  0.00    +0.000 A 
ENDBRANCH  21  23
ENDBRANCH  16  17
ENDBRANCH   5  16
TORSDOF 4
ENDMDL
