MODEL 1
REMARK VINA RESULT:      -7.0      0.000      0.000
REMARK  Name = 
REMARK  11 active torsions:
REMARK  status: ('A' for Active; 'I' for Inactive)
REMARK    1  A    between atoms: C_1  and  O_2
REMARK    2  A    between atoms: O_2  and  C_3
REMARK    3  A    between atoms: C_3  and  C_4
REMARK    4  A    between atoms: C_4  and  C_5
REMARK    5  A    between atoms: C_5  and  C_6
REMARK    6  A    between atoms: C_6  and  N_7
REMARK    7  A    between atoms: N_7  and  S_8
REMARK    8  A    between atoms: S_8  and  C_11
REMARK    9  A    between atoms: C_13  and  C_14
REMARK   10  A    between atoms: C_14  and  O_16
REMARK   11  A    between atoms: O_16  and  C_17
REMARK                            x       y       z     vdW  Elec       q    Type
REMARK                         _______ _______ _______ _____ _____    ______ ____
ROOT
ATOM      1  N   UNL     1       4.867   3.821  19.009  0.00  0.00    +0.000 NA
ATOM      2  H   UNL     1       4.339   4.656  19.267  0.00  0.00    +0.000 HD
ENDROOT
BRANCH   1   3
ATOM      3  S   UNL     1       4.112   2.447  19.686  0.00  0.00    +0.000 S 
ATOM      4  O   UNL     1       3.512   1.766  18.552  0.00  0.00    +0.000 OA
ATOM      5  O   UNL     1       5.108   1.779  20.489  0.00  0.00    +0.000 OA
BRANCH   3   6
ATOM      6  C   UNL     1       2.781   3.093  20.716  0.00  0.00    +0.000 C 
ATOM      7  C   UNL     1       2.630   4.626  20.711  0.00  0.00    +0.000 C 
ATOM      8  C   UNL     1       1.453   4.486  19.714  0.00  0.00    +0.000 C 
ATOM      9  C   UNL     1       1.360   2.997  20.139  0.00  0.00    +0.000 C 
BRANCH   8  10
ATOM     10  C   UNL     1       1.669   4.785  18.209  0.00  0.00    +0.000 C 
ATOM     11  O   UNL     1       1.066   4.221  17.295  0.00  0.00    +0.000 OA
BRANCH  10  12
ATOM     12  O   UNL     1       2.585   5.778  18.010  0.00  0.00    +0.000 OA
ATOM     13  C   UNL     1       2.125   7.095  18.324  0.00  0.00    +0.000 C 
ENDBRANCH  10  12
ENDBRANCH   8  10
ENDBRANCH   3   6
ENDBRANCH   1   3
BRANCH   1  14
ATOM     14  C   UNL     1       5.069   3.745  17.536  0.00  0.00    +0.000 C 
BRANCH  14  15
ATOM     15  C   UNL     1       5.885   4.969  17.029  0.00  0.00    +0.000 C 
ATOM     16  C   UNL     1       5.183   5.698  15.864  0.00  0.00    +0.000 C 
ATOM     17  C   UNL     1       5.462   4.847  14.630  0.00  0.00    +0.000 C 
ATOM     18  C   UNL     1       6.806   4.175  14.886  0.00  0.00    +0.000 C 
ATOM     19  C   UNL     1       7.181   4.491  16.332  0.00  0.00    +0.000 C 
BRANCH  15  20
ATOM     20  C   UNL     1       6.208   5.951  18.186  0.00  0.00    +0.000 C 
BRANCH  20  21
ATOM     21  C   UNL     1       7.538   6.683  18.000  0.00  0.00    +0.000 C 
BRANCH  21  23
ATOM     22  C   UNL     1       8.098   8.947  17.848  0.00  0.00    +0.000 C 
ATOM     23  O   UNL     1       7.336   7.890  17.266  0.00  0.00    +0.000 OA
ENDBRANCH  21  23
ENDBRANCH  20  21
ENDBRANCH  15  20
ENDBRANCH  14  15
ENDBRANCH   1  14
TORSDOF 9
ENDMDL
MODEL 2
REMARK VINA RESULT:      -6.7      2.346      5.568
REMARK  Name = 
REMARK  11 active torsions:
REMARK  status: ('A' for Active; 'I' for Inactive)
REMARK    1  A    between atoms: C_1  and  O_2
REMARK    2  A    between atoms: O_2  and  C_3
REMARK    3  A    between atoms: C_3  and  C_4
REMARK    4  A    between atoms: C_4  and  C_5
REMARK    5  A    between atoms: C_5  and  C_6
REMARK    6  A    between atoms: C_6  and  N_7
REMARK    7  A    between atoms: N_7  and  S_8
REMARK    8  A    between atoms: S_8  and  C_11
REMARK    9  A    between atoms: C_13  and  C_14
REMARK   10  A    between atoms: C_14  and  O_16
REMARK   11  A    between atoms: O_16  and  C_17
REMARK                            x       y       z     vdW  Elec       q    Type
REMARK                         _______ _______ _______ _____ _____    ______ ____
ROOT
ATOM      1  N   UNL     1       3.646   3.502  17.162  0.00  0.00    +0.000 NA
ATOM      2  H   UNL     1       2.858   4.007  16.755  0.00  0.00    +0.000 HD
ENDROOT
BRANCH   1   3
ATOM      3  S   UNL     1       5.099   4.298  16.747  0.00  0.00    +0.000 S 
ATOM      4  O   UNL     1       5.820   3.338  15.931  0.00  0.00    +0.000 OA
ATOM      5  O   UNL     1       4.727   5.581  16.200  0.00  0.00    +0.000 OA
BRANCH   3   6
ATOM      6  C   UNL     1       5.995   4.495  18.299  0.00  0.00    +0.000 C 
ATOM      7  C   UNL     1       7.528   4.578  18.169  0.00  0.00    +0.000 C 
ATOM      8  C   UNL     1       7.435   6.118  18.316  0.00  0.00    +0.000 C 
ATOM      9  C   UNL     1       6.015   5.907  18.904  0.00  0.00    +0.000 C 
BRANCH   8  10
ATOM     10  C   UNL     1       7.563   7.027  17.068  0.00  0.00    +0.000 C 
ATOM     11  O   UNL     1       7.797   6.616  15.931  0.00  0.00    +0.000 OA
BRANCH  10  12
ATOM     12  O   UNL     1       7.350   8.342  17.368  0.00  0.00    +0.000 OA
ATOM     13  C   UNL     1       8.359   8.947  18.178  0.00  0.00    +0.000 C 
ENDBRANCH  10  12
ENDBRANCH   8  10
ENDBRANCH   3   6
ENDBRANCH   1   3
BRANCH   1  14
ATOM     14  C   UNL     1       3.457   3.295  18.624  0.00  0.00    +0.000 C 
BRANCH  14  15
ATOM     15  C   UNL     1       2.321   4.210  19.166  0.00  0.00    +0.000 C 
ATOM     16  C   UNL     1       2.598   4.696  20.604  0.00  0.00    +0.000 C 
ATOM     17  C   UNL     1       2.242   3.516  21.503  0.00  0.00    +0.000 C 
ATOM     18  C   UNL     1       1.148   2.750  20.768  0.00  0.00    +0.000 C 
ATOM     19  C   UNL     1       1.032   3.382  19.383  0.00  0.00    +0.000 C 
BRANCH  15  20
ATOM     20  C   UNL     1       2.057   5.407  18.215  0.00  0.00    +0.000 C 
BRANCH  20  21
ATOM     21  C   UNL     1       2.483   6.751  18.806  0.00  0.00    +0.000 C 
BRANCH  21  23
ATOM     22  C   UNL     1       2.047   8.883  17.954  0.00  0.00    +0.000 C 
ATOM     23  O   UNL     1       2.782   7.675  17.761  0.00  0.00    +0.000 OA
ENDBRANCH  21  23
ENDBRANCH  20  21
ENDBRANCH  15  20
ENDBRANCH  14  15
ENDBRANCH   1  14
TORSDOF 9
ENDMDL
MODEL 3
REMARK VINA RESULT:      -6.6      2.241      5.449
REMARK  Name = 
REMARK  11 active torsions:
REMARK  status: ('A' for Active; 'I' for Inactive)
REMARK    1  A    between atoms: C_1  and  O_2
REMARK    2  A    between atoms: O_2  and  C_3
REMARK    3  A    between atoms: C_3  and  C_4
REMARK    4  A    between atoms: C_4  and  C_5
REMARK    5  A    between atoms: C_5  and  C_6
REMARK    6  A    between atoms: C_6  and  N_7
REMARK    7  A    between atoms: N_7  and  S_8
REMARK    8  A    between atoms: S_8  and  C_11
REMARK    9  A    between atoms: C_13  and  C_14
REMARK   10  A    between atoms: C_14  and  O_16
REMARK   11  A    between atoms: O_16  and  C_17
REMARK                            x       y       z     vdW  Elec       q    Type
REMARK                         _______ _______ _______ _____ _____    ______ ____
ROOT
ATOM      1  N   UNL     1       4.859   5.558  19.765  0.00  0.00    +0.000 NA
ATOM      2  H   UNL     1       4.972   5.759  20.760  0.00  0.00    +0.000 HD
ENDROOT
BRANCH   1   3
ATOM      3  S   UNL     1       6.394   5.263  19.074  0.00  0.00    +0.000 S 
ATOM      4  O   UNL     1       7.334   5.540  20.145  0.00  0.00    +0.000 OA
ATOM      5  O   UNL     1       6.336   3.949  18.482  0.00  0.00    +0.000 OA
BRANCH   3   6
ATOM      6  C   UNL     1       6.599   6.531  17.810  0.00  0.00    +0.000 C 
ATOM      7  C   UNL     1       7.356   6.085  16.545  0.00  0.00    +0.000 C 
ATOM      8  C   UNL     1       5.999   5.929  15.814  0.00  0.00    +0.000 C 
ATOM      9  C   UNL     1       5.377   6.818  16.922  0.00  0.00    +0.000 C 
BRANCH   8  10
ATOM     10  C   UNL     1       5.387   4.521  15.602  0.00  0.00    +0.000 C 
ATOM     11  O   UNL     1       4.264   4.188  15.982  0.00  0.00    +0.000 OA
BRANCH  10  12
ATOM     12  O   UNL     1       6.227   3.695  14.911  0.00  0.00    +0.000 OA
ATOM     13  C   UNL     1       6.068   3.725  13.491  0.00  0.00    +0.000 C 
ENDBRANCH  10  12
ENDBRANCH   8  10
ENDBRANCH   3   6
ENDBRANCH   1   3
BRANCH   1  14
ATOM     14  C   UNL     1       3.869   4.468  19.544  0.00  0.00    +0.000 C 
BRANCH  14  15
ATOM     15  C   UNL     1       2.444   5.055  19.335  0.00  0.00    +0.000 C 
ATOM     16  C   UNL     1       1.544   4.860  20.573  0.00  0.00    +0.000 C 
ATOM     17  C   UNL     1       1.086   3.407  20.512  0.00  0.00    +0.000 C 
ATOM     18  C   UNL     1       1.053   3.043  19.033  0.00  0.00    +0.000 C 
ATOM     19  C   UNL     1       1.675   4.220  18.283  0.00  0.00    +0.000 C 
BRANCH  15  20
ATOM     20  C   UNL     1       2.502   6.548  18.919  0.00  0.00    +0.000 C 
BRANCH  20  21
ATOM     21  C   UNL     1       1.892   7.487  19.960  0.00  0.00    +0.000 C 
BRANCH  21  23
ATOM     22  C   UNL     1       1.812   8.715  17.973  0.00  0.00    +0.000 C 
ATOM     23  O   UNL     1       1.678   8.779  19.392  0.00  0.00    +0.000 OA
ENDBRANCH  21  23
ENDBRANCH  20  21
ENDBRANCH  15  20
ENDBRANCH  14  15
ENDBRANCH   1  14
TORSDOF 9
ENDMDL
MODEL 4
REMARK VINA RESULT:      -6.6      2.418      5.759
REMARK  Name = 
REMARK  11 active torsions:
REMARK  status: ('A' for Active; 'I' for Inactive)
REMARK    1  A    between atoms: C_1  and  O_2
REMARK    2  A    between atoms: O_2  and  C_3
REMARK    3  A    between atoms: C_3  and  C_4
REMARK    4  A    between atoms: C_4  and  C_5
REMARK    5  A    between atoms: C_5  and  C_6
REMARK    6  A    between atoms: C_6  and  N_7
REMARK    7  A    between atoms: N_7  and  S_8
REMARK    8  A    between atoms: S_8  and  C_11
REMARK    9  A    between atoms: C_13  and  C_14
REMARK   10  A    between atoms: C_14  and  O_16
REMARK   11  A    between atoms: O_16  and  C_17
REMARK                            x       y       z     vdW  Elec       q    Type
REMARK                         _______ _______ _______ _____ _____    ______ ____
ROOT
ATOM      1  N   UNL     1       4.591   5.661  19.791  0.00  0.00    +0.000 NA
ATOM      2  H   UNL     1       5.135   5.928  20.613  0.00  0.00    +0.000 HD
ENDROOT
BRANCH   1   3
ATOM      3  S   UNL     1       5.656   5.245  18.523  0.00  0.00    +0.000 S 
ATOM      4  O   UNL     1       6.614   6.335  18.480  0.00  0.00    +0.000 OA
ATOM      5  O   UNL     1       6.102   3.897  18.782  0.00  0.00    +0.000 OA
BRANCH   3   6
ATOM      6  C   UNL     1       4.661   5.317  17.022  0.00  0.00    +0.000 C 
ATOM      7  C   UNL     1       5.119   6.353  15.977  0.00  0.00    +0.000 C 
ATOM      8  C   UNL     1       5.796   5.214  15.175  0.00  0.00    +0.000 C 
ATOM      9  C   UNL     1       4.916   4.219  15.977  0.00  0.00    +0.000 C 
BRANCH   8  10
ATOM     10  C   UNL     1       7.332   5.023  15.242  0.00  0.00    +0.000 C 
ATOM     11  O   UNL     1       7.917   4.412  16.138  0.00  0.00    +0.000 OA
BRANCH  10  12
ATOM     12  O   UNL     1       7.967   5.582  14.170  0.00  0.00    +0.000 OA
ATOM     13  C   UNL     1       7.592   5.045  12.900  0.00  0.00    +0.000 C 
ENDBRANCH  10  12
ENDBRANCH   8  10
ENDBRANCH   3   6
ENDBRANCH   1   3
BRANCH   1  14
ATOM     14  C   UNL     1       3.594   4.607  20.124  0.00  0.00    +0.000 C 
BRANCH  14  15
ATOM     15  C   UNL     1       2.147   5.117  19.866  0.00  0.00    +0.000 C 
ATOM     16  C   UNL     1       1.080   4.188  20.482  0.00  0.00    +0.000 C 
ATOM     17  C   UNL     1       0.967   3.011  19.519  0.00  0.00    +0.000 C 
ATOM     18  C   UNL     1       1.310   3.568  18.142  0.00  0.00    +0.000 C 
ATOM     19  C   UNL     1       1.803   4.997  18.363  0.00  0.00    +0.000 C 
BRANCH  15  20
ATOM     20  C   UNL     1       1.966   6.576  20.360  0.00  0.00    +0.000 C 
BRANCH  20  21
ATOM     21  C   UNL     1       1.996   7.603  19.228  0.00  0.00    +0.000 C 
BRANCH  21  23
ATOM     22  C   UNL     1       0.875   8.685  20.969  0.00  0.00    +0.000 C 
ATOM     23  O   UNL     1       1.452   8.844  19.674  0.00  0.00    +0.000 OA
ENDBRANCH  21  23
ENDBRANCH  20  21
ENDBRANCH  15  20
ENDBRANCH  14  15
ENDBRANCH   1  14
TORSDOF 9
ENDMDL
MODEL 5
REMARK VINA RESULT:      -6.5      1.988      3.845
REMARK  Name = 
REMARK  11 active torsions:
REMARK  status: ('A' for Active; 'I' for Inactive)
REMARK    1  A    between atoms: C_1  and  O_2
REMARK    2  A    between atoms: O_2  and  C_3
REMARK    3  A    between atoms: C_3  and  C_4
REMARK    4  A    between atoms: C_4  and  C_5
REMARK    5  A    between atoms: C_5  and  C_6
REMARK    6  A    between atoms: C_6  and  N_7
REMARK    7  A    between atoms: N_7  and  S_8
REMARK    8  A    between atoms: S_8  and  C_11
REMARK    9  A    between atoms: C_13  and  C_14
REMARK   10  A    between atoms: C_14  and  O_16
REMARK   11  A    between atoms: O_16  and  C_17
REMARK                            x       y       z     vdW  Elec       q    Type
REMARK                         _______ _______ _______ _____ _____    ______ ____
ROOT
ATOM      1  N   UNL     1       4.163   5.427  18.467  0.00  0.00    +0.000 NA
ATOM      2  H   UNL     1       4.563   5.121  19.356  0.00  0.00    +0.000 HD
ENDROOT
BRANCH   1   3
ATOM      3  S   UNL     1       2.498   5.743  18.678  0.00  0.00    +0.000 S 
ATOM      4  O   UNL     1       2.399   7.192  18.669  0.00  0.00    +0.000 OA
ATOM      5  O   UNL     1       1.799   4.963  17.686  0.00  0.00    +0.000 OA
BRANCH   3   6
ATOM      6  C   UNL     1       2.111   5.168  20.341  0.00  0.00    +0.000 C 
ATOM      7  C   UNL     1       0.778   4.408  20.482  0.00  0.00    +0.000 C 
ATOM      8  C   UNL     1       1.562   3.072  20.472  0.00  0.00    +0.000 C 
ATOM      9  C   UNL     1       2.833   3.895  20.812  0.00  0.00    +0.000 C 
BRANCH   8  10
ATOM     10  C   UNL     1       1.598   2.201  19.191  0.00  0.00    +0.000 C 
ATOM     11  O   UNL     1       0.654   2.076  18.410  0.00  0.00    +0.000 OA
BRANCH  10  12
ATOM     12  O   UNL     1       2.815   1.611  19.006  0.00  0.00    +0.000 OA
ATOM     13  C   UNL     1       3.475   1.957  17.786  0.00  0.00    +0.000 C 
ENDBRANCH  10  12
ENDBRANCH   8  10
ENDBRANCH   3   6
ENDBRANCH   1   3
BRANCH   1  14
ATOM     14  C   UNL     1       4.935   6.564  17.893  0.00  0.00    +0.000 C 
BRANCH  14  15
ATOM     15  C   UNL     1       6.208   6.050  17.161  0.00  0.00    +0.000 C 
ATOM     16  C   UNL     1       6.917   4.924  17.943  0.00  0.00    +0.000 C 
ATOM     17  C   UNL     1       7.691   5.630  19.051  0.00  0.00    +0.000 C 
ATOM     18  C   UNL     1       8.043   7.007  18.499  0.00  0.00    +0.000 C 
ATOM     19  C   UNL     1       7.302   7.143  17.171  0.00  0.00    +0.000 C 
BRANCH  15  20
ATOM     20  C   UNL     1       5.885   5.603  15.711  0.00  0.00    +0.000 C 
BRANCH  20  21
ATOM     21  C   UNL     1       6.892   4.597  15.153  0.00  0.00    +0.000 C 
BRANCH  21  23
ATOM     22  C   UNL     1       6.374   3.808  13.015  0.00  0.00    +0.000 C 
ATOM     23  O   UNL     1       6.215   3.581  14.415  0.00  0.00    +0.000 OA
ENDBRANCH  21  23
ENDBRANCH  20  21
ENDBRANCH  15  20
ENDBRANCH  14  15
ENDBRANCH   1  14
TORSDOF 9
ENDMDL
MODEL 6
REMARK VINA RESULT:      -6.5      1.551      1.973
REMARK  Name = 
REMARK  11 active torsions:
REMARK  status: ('A' for Active; 'I' for Inactive)
REMARK    1  A    between atoms: C_1  and  O_2
REMARK    2  A    between atoms: O_2  and  C_3
REMARK    3  A    between atoms: C_3  and  C_4
REMARK    4  A    between atoms: C_4  and  C_5
REMARK    5  A    between atoms: C_5  and  C_6
REMARK    6  A    between atoms: C_6  and  N_7
REMARK    7  A    between atoms: N_7  and  S_8
REMARK    8  A    between atoms: S_8  and  C_11
REMARK    9  A    between atoms: C_13  and  C_14
REMARK   10  A    between atoms: C_14  and  O_16
REMARK   11  A    between atoms: O_16  and  C_17
REMARK                            x       y       z     vdW  Elec       q    Type
REMARK                         _______ _______ _______ _____ _____    ______ ____
ROOT
ATOM      1  N   UNL     1       3.917   3.639  18.267  0.00  0.00    +0.000 NA
ATOM      2  H   UNL     1       3.844   4.589  18.635  0.00  0.00    +0.000 HD
ENDROOT
BRANCH   1   3
ATOM      3  S   UNL     1       2.353   2.968  18.127  0.00  0.00    +0.000 S 
ATOM      4  O   UNL     1       1.558   4.020  17.521  0.00  0.00    +0.000 OA
ATOM      5  O   UNL     1       2.505   1.698  17.459  0.00  0.00    +0.000 OA
BRANCH   3   6
ATOM      6  C   UNL     1       1.779   2.740  19.821  0.00  0.00    +0.000 C 
ATOM      7  C   UNL     1       2.716   3.291  20.914  0.00  0.00    +0.000 C 
ATOM      8  C   UNL     1       1.804   4.538  21.037  0.00  0.00    +0.000 C 
ATOM      9  C   UNL     1       0.701   3.718  20.316  0.00  0.00    +0.000 C 
BRANCH   8  10
ATOM     10  C   UNL     1       2.231   5.880  20.391  0.00  0.00    +0.000 C 
ATOM     11  O   UNL     1       3.140   5.996  19.568  0.00  0.00    +0.000 OA
BRANCH  10  12
ATOM     12  O   UNL     1       1.458   6.922  20.815  0.00  0.00    +0.000 OA
ATOM     13  C   UNL     1       1.669   8.152  20.118  0.00  0.00    +0.000 C 
ENDBRANCH  10  12
ENDBRANCH   8  10
ENDBRANCH   3   6
ENDBRANCH   1   3
BRANCH   1  14
ATOM     14  C   UNL     1       4.710   3.610  17.008  0.00  0.00    +0.000 C 
BRANCH  14  15
ATOM     15  C   UNL     1       5.743   4.773  16.982  0.00  0.00    +0.000 C 
ATOM     16  C   UNL     1       5.192   6.030  16.277  0.00  0.00    +0.000 C 
ATOM     17  C   UNL     1       5.304   5.736  14.785  0.00  0.00    +0.000 C 
ATOM     18  C   UNL     1       6.495   4.798  14.635  0.00  0.00    +0.000 C 
ATOM     19  C   UNL     1       6.924   4.413  16.049  0.00  0.00    +0.000 C 
BRANCH  15  20
ATOM     20  C   UNL     1       6.249   5.112  18.409  0.00  0.00    +0.000 C 
BRANCH  20  21
ATOM     21  C   UNL     1       7.760   5.338  18.474  0.00  0.00    +0.000 C 
BRANCH  21  23
ATOM     22  C   UNL     1       7.884   7.602  17.905  0.00  0.00    +0.000 C 
ATOM     23  O   UNL     1       8.040   6.651  18.958  0.00  0.00    +0.000 OA
ENDBRANCH  21  23
ENDBRANCH  20  21
ENDBRANCH  15  20
ENDBRANCH  14  15
ENDBRANCH   1  14
TORSDOF 9
ENDMDL
MODEL 7
REMARK VINA RESULT:      -6.5      1.864      3.875
REMARK  Name = 
REMARK  11 active torsions:
REMARK  status: ('A' for Active; 'I' for Inactive)
REMARK    1  A    between atoms: C_1  and  O_2
REMARK    2  A    between atoms: O_2  and  C_3
REMARK    3  A    between atoms: C_3  and  C_4
REMARK    4  A    between atoms: C_4  and  C_5
REMARK    5  A    between atoms: C_5  and  C_6
REMARK    6  A    between atoms: C_6  and  N_7
REMARK    7  A    between atoms: N_7  and  S_8
REMARK    8  A    between atoms: S_8  and  C_11
REMARK    9  A    between atoms: C_13  and  C_14
REMARK   10  A    between atoms: C_14  and  O_16
REMARK   11  A    between atoms: O_16  and  C_17
REMARK                            x       y       z     vdW  Elec       q    Type
REMARK                         _______ _______ _______ _____ _____    ______ ____
ROOT
ATOM      1  N   UNL     1       3.936   5.207  18.898  0.00  0.00    +0.000 NA
ATOM      2  H   UNL     1       4.183   4.882  19.834  0.00  0.00    +0.000 HD
ENDROOT
BRANCH   1   3
ATOM      3  S   UNL     1       2.264   5.550  18.845  0.00  0.00    +0.000 S 
ATOM      4  O   UNL     1       2.185   6.996  18.946  0.00  0.00    +0.000 OA
ATOM      5  O   UNL     1       1.739   4.875  17.682  0.00  0.00    +0.000 OA
BRANCH   3   6
ATOM      6  C   UNL     1       1.585   4.847  20.359  0.00  0.00    +0.000 C 
ATOM      7  C   UNL     1       1.057   3.405  20.238  0.00  0.00    +0.000 C 
ATOM      8  C   UNL     1       2.369   2.893  20.884  0.00  0.00    +0.000 C 
ATOM      9  C   UNL     1       2.601   4.340  21.395  0.00  0.00    +0.000 C 
BRANCH   8  10
ATOM     10  C   UNL     1       3.476   2.262  20.002  0.00  0.00    +0.000 C 
ATOM     11  O   UNL     1       4.684   2.413  20.191  0.00  0.00    +0.000 OA
BRANCH  10  12
ATOM     12  O   UNL     1       2.958   1.485  19.006  0.00  0.00    +0.000 OA
ATOM     13  C   UNL     1       3.337   1.869  17.683  0.00  0.00    +0.000 C 
ENDBRANCH  10  12
ENDBRANCH   8  10
ENDBRANCH   3   6
ENDBRANCH   1   3
BRANCH   1  14
ATOM     14  C   UNL     1       4.806   6.338  18.473  0.00  0.00    +0.000 C 
BRANCH  14  15
ATOM     15  C   UNL     1       5.922   5.842  17.509  0.00  0.00    +0.000 C 
ATOM     16  C   UNL     1       6.880   4.841  18.189  0.00  0.00    +0.000 C 
ATOM     17  C   UNL     1       7.820   5.694  19.032  0.00  0.00    +0.000 C 
ATOM     18  C   UNL     1       7.924   7.033  18.313  0.00  0.00    +0.000 C 
ATOM     19  C   UNL     1       6.896   6.999  17.184  0.00  0.00    +0.000 C 
BRANCH  15  20
ATOM     20  C   UNL     1       5.321   5.243  16.210  0.00  0.00    +0.000 C 
BRANCH  20  21
ATOM     21  C   UNL     1       5.862   3.851  15.882  0.00  0.00    +0.000 C 
BRANCH  21  23
ATOM     22  C   UNL     1       7.014   4.807  14.088  0.00  0.00    +0.000 C 
ATOM     23  O   UNL     1       6.144   3.749  14.488  0.00  0.00    +0.000 OA
ENDBRANCH  21  23
ENDBRANCH  20  21
ENDBRANCH  15  20
ENDBRANCH  14  15
ENDBRANCH   1  14
TORSDOF 9
ENDMDL
MODEL 8
REMARK VINA RESULT:      -6.5      2.271      3.842
REMARK  Name = 
REMARK  11 active torsions:
REMARK  status: ('A' for Active; 'I' for Inactive)
REMARK    1  A    between atoms: C_1  and  O_2
REMARK    2  A    between atoms: O_2  and  C_3
REMARK    3  A    between atoms: C_3  and  C_4
REMARK    4  A    between atoms: C_4  and  C_5
REMARK    5  A    between atoms: C_5  and  C_6
REMARK    6  A    between atoms: C_6  and  N_7
REMARK    7  A    between atoms: N_7  and  S_8
REMARK    8  A    between atoms: S_8  and  C_11
REMARK    9  A    between atoms: C_13  and  C_14
REMARK   10  A    between atoms: C_14  and  O_16
REMARK   11  A    between atoms: O_16  and  C_17
REMARK                            x       y       z     vdW  Elec       q    Type
REMARK                         _______ _______ _______ _____ _____    ______ ____
ROOT
ATOM      1  N   UNL     1       5.979   4.013  18.062  0.00  0.00    +0.000 NA
ATOM      2  H   UNL     1       6.387   4.922  18.284  0.00  0.00    +0.000 HD
ENDROOT
BRANCH   1   3
ATOM      3  S   UNL     1       4.578   3.779  19.010  0.00  0.00    +0.000 S 
ATOM      4  O   UNL     1       4.858   2.583  19.784  0.00  0.00    +0.000 OA
ATOM      5  O   UNL     1       4.316   5.031  19.678  0.00  0.00    +0.000 OA
BRANCH   3   6
ATOM      6  C   UNL     1       3.268   3.388  17.835  0.00  0.00    +0.000 C 
ATOM      7  C   UNL     1       2.272   2.305  18.295  0.00  0.00    +0.000 C 
ATOM      8  C   UNL     1       1.264   3.422  18.666  0.00  0.00    +0.000 C 
ATOM      9  C   UNL     1       2.093   4.375  17.765  0.00  0.00    +0.000 C 
BRANCH   8  10
ATOM     10  C   UNL     1       1.068   3.831  20.148  0.00  0.00    +0.000 C 
ATOM     11  O   UNL     1       0.935   4.992  20.535  0.00  0.00    +0.000 OA
BRANCH  10  12
ATOM     12  O   UNL     1       1.024   2.748  20.978  0.00  0.00    +0.000 OA
ATOM     13  C   UNL     1       2.114   2.647  21.896  0.00  0.00    +0.000 C 
ENDBRANCH  10  12
ENDBRANCH   8  10
ENDBRANCH   3   6
ENDBRANCH   1   3
BRANCH   1  14
ATOM     14  C   UNL     1       5.760   3.864  16.597  0.00  0.00    +0.000 C 
BRANCH  14  15
ATOM     15  C   UNL     1       6.301   5.105  15.831  0.00  0.00    +0.000 C 
ATOM     16  C   UNL     1       7.276   5.941  16.687  0.00  0.00    +0.000 C 
ATOM     17  C   UNL     1       6.392   6.754  17.626  0.00  0.00    +0.000 C 
ATOM     18  C   UNL     1       5.084   6.977  16.876  0.00  0.00    +0.000 C 
ATOM     19  C   UNL     1       5.162   6.129  15.608  0.00  0.00    +0.000 C 
BRANCH  15  20
ATOM     20  C   UNL     1       6.951   4.699  14.483  0.00  0.00    +0.000 C 
BRANCH  20  21
ATOM     21  C   UNL     1       6.144   3.651  13.716  0.00  0.00    +0.000 C 
BRANCH  21  23
ATOM     22  C   UNL     1       7.083   3.019  11.672  0.00  0.00    +0.000 C 
ATOM     23  O   UNL     1       6.188   3.924  12.317  0.00  0.00    +0.000 OA
ENDBRANCH  21  23
ENDBRANCH  20  21
ENDBRANCH  15  20
ENDBRANCH  14  15
ENDBRANCH   1  14
TORSDOF 9
ENDMDL
MODEL 9
REMARK VINA RESULT:      -6.5      1.805      2.865
REMARK  Name = 
REMARK  11 active torsions:
REMARK  status: ('A' for Active; 'I' for Inactive)
REMARK    1  A    between atoms: C_1  and  O_2
REMARK    2  A    between atoms: O_2  and  C_3
REMARK    3  A    between atoms: C_3  and  C_4
REMARK    4  A    between atoms: C_4  and  C_5
REMARK    5  A    between atoms: C_5  and  C_6
REMARK    6  A    between atoms: C_6  and  N_7
REMARK    7  A    between atoms: N_7  and  S_8
REMARK    8  A    between atoms: S_8  and  C_11
REMARK    9  A    between atoms: C_13  and  C_14
REMARK   10  A    between atoms: C_14  and  O_16
REMARK   11  A    between atoms: O_16  and  C_17
REMARK                            x       y       z     vdW  Elec       q    Type
REMARK                         _______ _______ _______ _____ _____    ______ ____
ROOT
ATOM      1  N   UNL     1       6.042   4.063  18.318  0.00  0.00    +0.000 NA
ATOM      2  H   UNL     1       6.262   5.049  18.466  0.00  0.00    +0.000 HD
ENDROOT
BRANCH   1   3
ATOM      3  S   UNL     1       4.605   3.676  19.157  0.00  0.00    +0.000 S 
ATOM      4  O   UNL     1       4.924   2.460  19.883  0.00  0.00    +0.000 OA
ATOM      5  O   UNL     1       4.210   4.865  19.872  0.00  0.00    +0.000 OA
BRANCH   3   6
ATOM      6  C   UNL     1       3.403   3.263  17.879  0.00  0.00    +0.000 C 
ATOM      7  C   UNL     1       2.387   2.169  18.259  0.00  0.00    +0.000 C 
ATOM      8  C   UNL     1       1.336   3.273  18.539  0.00  0.00    +0.000 C 
ATOM      9  C   UNL     1       2.225   4.234  17.706  0.00  0.00    +0.000 C 
BRANCH   8  10
ATOM     10  C   UNL     1       1.011   3.686  19.997  0.00  0.00    +0.000 C 
ATOM     11  O   UNL     1       0.762   4.839  20.353  0.00  0.00    +0.000 OA
BRANCH  10  12
ATOM     12  O   UNL     1       0.998   2.615  20.843  0.00  0.00    +0.000 OA
ATOM     13  C   UNL     1       1.978   2.655  21.882  0.00  0.00    +0.000 C 
ENDBRANCH  10  12
ENDBRANCH   8  10
ENDBRANCH   3   6
ENDBRANCH   1   3
BRANCH   1  14
ATOM     14  C   UNL     1       6.012   3.730  16.867  0.00  0.00    +0.000 C 
BRANCH  14  15
ATOM     15  C   UNL     1       6.014   5.026  16.006  0.00  0.00    +0.000 C 
ATOM     16  C   UNL     1       4.938   4.996  14.901  0.00  0.00    +0.000 C 
ATOM     17  C   UNL     1       5.518   4.116  13.798  0.00  0.00    +0.000 C 
ATOM     18  C   UNL     1       7.030   4.283  13.887  0.00  0.00    +0.000 C 
ATOM     19  C   UNL     1       7.303   5.092  15.153  0.00  0.00    +0.000 C 
BRANCH  15  20
ATOM     20  C   UNL     1       5.870   6.292  16.890  0.00  0.00    +0.000 C 
BRANCH  20  21
ATOM     21  C   UNL     1       4.549   7.031  16.672  0.00  0.00    +0.000 C 
BRANCH  21  23
ATOM     22  C   UNL     1       2.804   8.126  17.777  0.00  0.00    +0.000 C 
ATOM     23  O   UNL     1       3.851   7.165  17.909  0.00  0.00    +0.000 OA
ENDBRANCH  21  23
ENDBRANCH  20  21
ENDBRANCH  15  20
ENDBRANCH  14  15
ENDBRANCH   1  14
TORSDOF 9
ENDMDL
