MODEL 1
REMARK VINA RESULT:      -6.5      0.000      0.000
REMARK  Name = 
REMARK  3 active torsions:
REMARK  status: ('A' for Active; 'I' for Inactive)
REMARK    1  A    between atoms: C_1  and  C_2
REMARK    2  A    between atoms: C_5  and  S_6
REMARK    3  A    between atoms: S_6  and  N_9
REMARK                            x       y       z     vdW  Elec       q    Type
REMARK                         _______ _______ _______ _____ _____    ______ ____
ROOT
ATOM      1  S   UNL     1       6.370   5.433  17.904  0.00  0.00    +0.000 S 
ATOM      2  O   UNL     1       7.497   4.830  18.577  0.00  0.00    +0.000 OA
ATOM      3  O   UNL     1       6.247   6.874  17.800  0.00  0.00    +0.000 OA
ENDROOT
BRANCH   1   8
ATOM      4  C   UNL     1       6.123   3.514  12.133  0.00  0.00    +0.000 C 
ATOM      5  C   UNL     1       6.206   3.931  13.574  0.00  0.00    +0.000 A 
ATOM      6  C   UNL     1       5.166   3.648  14.466  0.00  0.00    +0.000 A 
ATOM      7  C   UNL     1       5.240   4.070  15.796  0.00  0.00    +0.000 A 
ATOM      8  C   UNL     1       6.357   4.786  16.241  0.00  0.00    +0.000 A 
ATOM      9  C   UNL     1       7.389   5.090  15.351  0.00  0.00    +0.000 A 
ATOM     10  C   UNL     1       7.321   4.650  14.027  0.00  0.00    +0.000 A 
ENDBRANCH   1   8
BRANCH   1  11
ATOM     11  N   UNL     1       4.944   4.868  18.631  0.00  0.00    +0.000 NA
ATOM     12  C   UNL     1       4.010   5.889  19.129  0.00  0.00    +0.000 C 
ATOM     13  C   UNL     1       2.709   5.278  19.542  0.00  0.00    +0.000 C 
ATOM     14  C   UNL     1       2.526   3.967  19.735  0.00  0.00    +0.000 C 
ATOM     15 BR   UNL     1       0.860   3.260  20.190  0.00  0.00    +0.000 Br
ATOM     16  C   UNL     1       3.634   2.970  19.580  0.00  0.00    +0.000 C 
ATOM     17  C   UNL     1       5.017   3.606  19.395  0.00  0.00    +0.000 C 
ENDBRANCH   1  11
TORSDOF 2
ENDMDL
MODEL 2
REMARK VINA RESULT:      -6.5      1.314      1.546
REMARK  Name = 
REMARK  3 active torsions:
REMARK  status: ('A' for Active; 'I' for Inactive)
REMARK    1  A    between atoms: C_1  and  C_2
REMARK    2  A    between atoms: C_5  and  S_6
REMARK    3  A    between atoms: S_6  and  N_9
REMARK                            x       y       z     vdW  Elec       q    Type
REMARK                         _______ _______ _______ _____ _____    ______ ____
ROOT
ATOM      1  S   UNL     1       7.168   5.328  16.656  0.00  0.00    +0.000 S 
ATOM      2  O   UNL     1       8.124   4.408  17.225  0.00  0.00    +0.000 OA
ATOM      3  O   UNL     1       7.529   6.705  16.379  0.00  0.00    +0.000 OA
ENDROOT
BRANCH   1   8
ATOM      4  C   UNL     1       5.096   3.187  11.348  0.00  0.00    +0.000 C 
ATOM      5  C   UNL     1       5.630   3.657  12.671  0.00  0.00    +0.000 A 
ATOM      6  C   UNL     1       4.886   3.497  13.845  0.00  0.00    +0.000 A 
ATOM      7  C   UNL     1       5.378   3.969  15.064  0.00  0.00    +0.000 A 
ATOM      8  C   UNL     1       6.620   4.612  15.115  0.00  0.00    +0.000 A 
ATOM      9  C   UNL     1       7.359   4.794  13.944  0.00  0.00    +0.000 A 
ATOM     10  C   UNL     1       6.872   4.305  12.730  0.00  0.00    +0.000 A 
ENDBRANCH   1   8
BRANCH   1  11
ATOM     11  N   UNL     1       5.798   5.370  17.658  0.00  0.00    +0.000 NA
ATOM     12  C   UNL     1       4.898   6.521  17.494  0.00  0.00    +0.000 C 
ATOM     13  C   UNL     1       3.632   6.332  18.267  0.00  0.00    +0.000 C 
ATOM     14  C   UNL     1       3.468   5.410  19.221  0.00  0.00    +0.000 C 
ATOM     15 BR   UNL     1       1.841   5.185  20.106  0.00  0.00    +0.000 Br
ATOM     16  C   UNL     1       4.566   4.477  19.633  0.00  0.00    +0.000 C 
ATOM     17  C   UNL     1       5.930   4.819  19.022  0.00  0.00    +0.000 C 
ENDBRANCH   1  11
TORSDOF 2
ENDMDL
MODEL 3
REMARK VINA RESULT:      -6.5      0.339      1.219
REMARK  Name = 
REMARK  3 active torsions:
REMARK  status: ('A' for Active; 'I' for Inactive)
REMARK    1  A    between atoms: C_1  and  C_2
REMARK    2  A    between atoms: C_5  and  S_6
REMARK    3  A    between atoms: S_6  and  N_9
REMARK                            x       y       z     vdW  Elec       q    Type
REMARK                         _______ _______ _______ _____ _____    ______ ____
ROOT
ATOM      1  S   UNL     1       6.364   5.333  17.723  0.00  0.00    +0.000 S 
ATOM      2  O   UNL     1       7.449   4.584  18.314  0.00  0.00    +0.000 OA
ATOM      3  O   UNL     1       6.340   6.782  17.778  0.00  0.00    +0.000 OA
ENDROOT
BRANCH   1   8
ATOM      4  C   UNL     1       6.370   3.488  11.923  0.00  0.00    +0.000 C 
ATOM      5  C   UNL     1       6.343   3.998  13.335  0.00  0.00    +0.000 A 
ATOM      6  C   UNL     1       7.379   4.797  13.832  0.00  0.00    +0.000 A 
ATOM      7  C   UNL     1       7.359   5.238  15.157  0.00  0.00    +0.000 A 
ATOM      8  C   UNL     1       6.302   4.875  15.999  0.00  0.00    +0.000 A 
ATOM      9  C   UNL     1       5.275   4.061  15.516  0.00  0.00    +0.000 A 
ATOM     10  C   UNL     1       5.288   3.638  14.186  0.00  0.00    +0.000 A 
ENDBRANCH   1   8
BRANCH   1  11
ATOM     11  N   UNL     1       4.904   4.791  18.398  0.00  0.00    +0.000 NA
ATOM     12  C   UNL     1       3.828   5.785  18.525  0.00  0.00    +0.000 C 
ATOM     13  C   UNL     1       2.539   5.140  18.922  0.00  0.00    +0.000 C 
ATOM     14  C   UNL     1       2.442   3.896  19.404  0.00  0.00    +0.000 C 
ATOM     15 BR   UNL     1       0.794   3.127  19.824  0.00  0.00    +0.000 Br
ATOM     16  C   UNL     1       3.640   3.023  19.622  0.00  0.00    +0.000 C 
ATOM     17  C   UNL     1       4.978   3.753  19.447  0.00  0.00    +0.000 C 
ENDBRANCH   1  11
TORSDOF 2
ENDMDL
MODEL 4
REMARK VINA RESULT:      -6.4      2.332      3.148
REMARK  Name = 
REMARK  3 active torsions:
REMARK  status: ('A' for Active; 'I' for Inactive)
REMARK    1  A    between atoms: C_1  and  C_2
REMARK    2  A    between atoms: C_5  and  S_6
REMARK    3  A    between atoms: S_6  and  N_9
REMARK                            x       y       z     vdW  Elec       q    Type
REMARK                         _______ _______ _______ _____ _____    ______ ____
ROOT
ATOM      1  S   UNL     1       4.282   3.477  18.602  0.00  0.00    +0.000 S 
ATOM      2  O   UNL     1       3.384   2.456  18.115  0.00  0.00    +0.000 OA
ATOM      3  O   UNL     1       5.250   3.187  19.642  0.00  0.00    +0.000 OA
ENDROOT
BRANCH   1   8
ATOM      4  C   UNL     1       7.584   5.202  13.788  0.00  0.00    +0.000 C 
ATOM      5  C   UNL     1       6.749   4.836  14.982  0.00  0.00    +0.000 A 
ATOM      6  C   UNL     1       7.237   5.007  16.282  0.00  0.00    +0.000 A 
ATOM      7  C   UNL     1       6.465   4.632  17.384  0.00  0.00    +0.000 A 
ATOM      8  C   UNL     1       5.195   4.075  17.190  0.00  0.00    +0.000 A 
ATOM      9  C   UNL     1       4.709   3.883  15.895  0.00  0.00    +0.000 A 
ATOM     10  C   UNL     1       5.477   4.276  14.797  0.00  0.00    +0.000 A 
ENDBRANCH   1   8
BRANCH   1  11
ATOM     11  N   UNL     1       3.357   4.794  19.145  0.00  0.00    +0.000 NA
ATOM     12  C   UNL     1       2.375   4.517  20.203  0.00  0.00    +0.000 C 
ATOM     13  C   UNL     1       1.788   5.781  20.742  0.00  0.00    +0.000 C 
ATOM     14  C   UNL     1       1.894   6.971  20.140  0.00  0.00    +0.000 C 
ATOM     15 BR   UNL     1       1.190   8.525  20.897  0.00  0.00    +0.000 Br
ATOM     16  C   UNL     1       2.601   7.149  18.832  0.00  0.00    +0.000 C 
ATOM     17  C   UNL     1       2.994   5.830  18.156  0.00  0.00    +0.000 C 
ENDBRANCH   1  11
TORSDOF 2
ENDMDL
MODEL 5
REMARK VINA RESULT:      -6.4      1.031      1.629
REMARK  Name = 
REMARK  3 active torsions:
REMARK  status: ('A' for Active; 'I' for Inactive)
REMARK    1  A    between atoms: C_1  and  C_2
REMARK    2  A    between atoms: C_5  and  S_6
REMARK    3  A    between atoms: S_6  and  N_9
REMARK                            x       y       z     vdW  Elec       q    Type
REMARK                         _______ _______ _______ _____ _____    ______ ____
ROOT
ATOM      1  S   UNL     1       6.810   5.652  16.887  0.00  0.00    +0.000 S 
ATOM      2  O   UNL     1       7.891   4.877  17.450  0.00  0.00    +0.000 OA
ATOM      3  O   UNL     1       6.945   7.081  16.681  0.00  0.00    +0.000 OA
ENDROOT
BRANCH   1   8
ATOM      4  C   UNL     1       5.708   2.893  11.575  0.00  0.00    +0.000 C 
ATOM      5  C   UNL     1       5.957   3.628  12.861  0.00  0.00    +0.000 A 
ATOM      6  C   UNL     1       7.136   4.355  13.057  0.00  0.00    +0.000 A 
ATOM      7  C   UNL     1       7.372   5.007  14.270  0.00  0.00    +0.000 A 
ATOM      8  C   UNL     1       6.429   4.929  15.301  0.00  0.00    +0.000 A 
ATOM      9  C   UNL     1       5.259   4.188  15.120  0.00  0.00    +0.000 A 
ATOM     10  C   UNL     1       5.018   3.553  13.899  0.00  0.00    +0.000 A 
ENDBRANCH   1   8
BRANCH   1  11
ATOM     11  N   UNL     1       5.427   5.421  17.844  0.00  0.00    +0.000 NA
ATOM     12  C   UNL     1       4.429   6.501  17.831  0.00  0.00    +0.000 C 
ATOM     13  C   UNL     1       3.173   6.087  18.528  0.00  0.00    +0.000 C 
ATOM     14  C   UNL     1       3.078   5.018  19.327  0.00  0.00    +0.000 C 
ATOM     15 BR   UNL     1       1.464   4.520  20.120  0.00  0.00    +0.000 Br
ATOM     16  C   UNL     1       4.249   4.132  19.624  0.00  0.00    +0.000 C 
ATOM     17  C   UNL     1       5.587   4.680  19.112  0.00  0.00    +0.000 C 
ENDBRANCH   1  11
TORSDOF 2
ENDMDL
MODEL 6
REMARK VINA RESULT:      -6.4      2.095      2.680
REMARK  Name = 
REMARK  3 active torsions:
REMARK  status: ('A' for Active; 'I' for Inactive)
REMARK    1  A    between atoms: C_1  and  C_2
REMARK    2  A    between atoms: C_5  and  S_6
REMARK    3  A    between atoms: S_6  and  N_9
REMARK                            x       y       z     vdW  Elec       q    Type
REMARK                         _______ _______ _______ _____ _____    ______ ____
ROOT
ATOM      1  S   UNL     1       5.507   4.697  18.911  0.00  0.00    +0.000 S 
ATOM      2  O   UNL     1       4.975   3.450  19.409  0.00  0.00    +0.000 OA
ATOM      3  O   UNL     1       6.665   5.314  19.527  0.00  0.00    +0.000 OA
ENDROOT
BRANCH   1   8
ATOM      4  C   UNL     1       6.660   4.097  12.965  0.00  0.00    +0.000 C 
ATOM      5  C   UNL     1       6.400   4.187  14.441  0.00  0.00    +0.000 A 
ATOM      6  C   UNL     1       5.241   3.641  15.003  0.00  0.00    +0.000 A 
ATOM      7  C   UNL     1       4.994   3.761  16.373  0.00  0.00    +0.000 A 
ATOM      8  C   UNL     1       5.906   4.436  17.191  0.00  0.00    +0.000 A 
ATOM      9  C   UNL     1       7.055   5.002  16.634  0.00  0.00    +0.000 A 
ATOM     10  C   UNL     1       7.308   4.864  15.268  0.00  0.00    +0.000 A 
ENDBRANCH   1   8
BRANCH   1  11
ATOM     11  N   UNL     1       4.265   5.856  18.926  0.00  0.00    +0.000 NA
ATOM     12  C   UNL     1       3.143   5.606  19.842  0.00  0.00    +0.000 C 
ATOM     13  C   UNL     1       2.236   6.791  19.923  0.00  0.00    +0.000 C 
ATOM     14  C   UNL     1       2.254   7.809  19.055  0.00  0.00    +0.000 C 
ATOM     15 BR   UNL     1       1.136   9.290  19.248  0.00  0.00    +0.000 Br
ATOM     16  C   UNL     1       3.185   7.845  17.881  0.00  0.00    +0.000 C 
ATOM     17  C   UNL     1       3.945   6.533  17.653  0.00  0.00    +0.000 C 
ENDBRANCH   1  11
TORSDOF 2
ENDMDL
MODEL 7
REMARK VINA RESULT:      -6.3      3.222      5.961
REMARK  Name = 
REMARK  3 active torsions:
REMARK  status: ('A' for Active; 'I' for Inactive)
REMARK    1  A    between atoms: C_1  and  C_2
REMARK    2  A    between atoms: C_5  and  S_6
REMARK    3  A    between atoms: S_6  and  N_9
REMARK                            x       y       z     vdW  Elec       q    Type
REMARK                         _______ _______ _______ _____ _____    ______ ____
ROOT
ATOM      1  S   UNL     1       4.803   4.238  18.346  0.00  0.00    +0.000 S 
ATOM      2  O   UNL     1       5.771   4.212  19.418  0.00  0.00    +0.000 OA
ATOM      3  O   UNL     1       3.843   3.164  18.180  0.00  0.00    +0.000 OA
ENDROOT
BRANCH   1   8
ATOM      4  C   UNL     1       1.365   9.243  18.766  0.00  0.00    +0.000 C 
ATOM      5  C   UNL     1       2.262   8.041  18.687  0.00  0.00    +0.000 A 
ATOM      6  C   UNL     1       3.117   7.851  17.596  0.00  0.00    +0.000 A 
ATOM      7  C   UNL     1       3.922   6.712  17.517  0.00  0.00    +0.000 A 
ATOM      8  C   UNL     1       3.871   5.749  18.532  0.00  0.00    +0.000 A 
ATOM      9  C   UNL     1       3.005   5.922  19.614  0.00  0.00    +0.000 A 
ATOM     10  C   UNL     1       2.216   7.071  19.698  0.00  0.00    +0.000 A 
ENDBRANCH   1   8
BRANCH   1  11
ATOM     11  N   UNL     1       5.635   4.387  16.873  0.00  0.00    +0.000 NA
ATOM     12  C   UNL     1       5.119   3.600  15.743  0.00  0.00    +0.000 C 
ATOM     13  C   UNL     1       5.792   3.981  14.465  0.00  0.00    +0.000 C 
ATOM     14  C   UNL     1       6.919   4.699  14.398  0.00  0.00    +0.000 C 
ATOM     15 BR   UNL     1       7.677   5.195  12.766  0.00  0.00    +0.000 Br
ATOM     16  C   UNL     1       7.642   5.175  15.621  0.00  0.00    +0.000 C 
ATOM     17  C   UNL     1       7.097   4.589  16.929  0.00  0.00    +0.000 C 
ENDBRANCH   1  11
TORSDOF 2
ENDMDL
MODEL 8
REMARK VINA RESULT:      -6.3      2.167      2.997
REMARK  Name = 
REMARK  3 active torsions:
REMARK  status: ('A' for Active; 'I' for Inactive)
REMARK    1  A    between atoms: C_1  and  C_2
REMARK    2  A    between atoms: C_5  and  S_6
REMARK    3  A    between atoms: S_6  and  N_9
REMARK                            x       y       z     vdW  Elec       q    Type
REMARK                         _______ _______ _______ _____ _____    ______ ____
ROOT
ATOM      1  S   UNL     1       5.167   4.647  18.884  0.00  0.00    +0.000 S 
ATOM      2  O   UNL     1       4.566   3.360  19.143  0.00  0.00    +0.000 OA
ATOM      3  O   UNL     1       6.308   5.107  19.651  0.00  0.00    +0.000 OA
ENDROOT
BRANCH   1   8
ATOM      4  C   UNL     1       7.018   4.353  13.093  0.00  0.00    +0.000 C 
ATOM      5  C   UNL     1       6.542   4.485  14.511  0.00  0.00    +0.000 A 
ATOM      6  C   UNL     1       7.353   5.066  15.492  0.00  0.00    +0.000 A 
ATOM      7  C   UNL     1       6.912   5.153  16.815  0.00  0.00    +0.000 A 
ATOM      8  C   UNL     1       5.654   4.651  17.167  0.00  0.00    +0.000 A 
ATOM      9  C   UNL     1       4.847   4.052  16.197  0.00  0.00    +0.000 A 
ATOM     10  C   UNL     1       5.283   3.984  14.873  0.00  0.00    +0.000 A 
ENDBRANCH   1   8
BRANCH   1  11
ATOM     11  N   UNL     1       3.967   5.840  19.026  0.00  0.00    +0.000 NA
ATOM     12  C   UNL     1       2.869   5.562  19.964  0.00  0.00    +0.000 C 
ATOM     13  C   UNL     1       2.006   6.766  20.161  0.00  0.00    +0.000 C 
ATOM     14  C   UNL     1       2.029   7.841  19.365  0.00  0.00    +0.000 C 
ATOM     15 BR   UNL     1       0.969   9.340  19.702  0.00  0.00    +0.000 Br
ATOM     16  C   UNL     1       2.919   7.932  18.163  0.00  0.00    +0.000 C 
ATOM     17  C   UNL     1       3.626   6.616  17.816  0.00  0.00    +0.000 C 
ENDBRANCH   1  11
TORSDOF 2
ENDMDL
MODEL 9
REMARK VINA RESULT:      -6.2      3.204      5.859
REMARK  Name = 
REMARK  3 active torsions:
REMARK  status: ('A' for Active; 'I' for Inactive)
REMARK    1  A    between atoms: C_1  and  C_2
REMARK    2  A    between atoms: C_5  and  S_6
REMARK    3  A    between atoms: S_6  and  N_9
REMARK                            x       y       z     vdW  Elec       q    Type
REMARK                         _______ _______ _______ _____ _____    ______ ____
ROOT
ATOM      1  S   UNL     1       4.871   4.809  18.796  0.00  0.00    +0.000 S 
ATOM      2  O   UNL     1       5.893   5.220  19.729  0.00  0.00    +0.000 OA
ATOM      3  O   UNL     1       4.110   3.593  19.009  0.00  0.00    +0.000 OA
ENDROOT
BRANCH   1   8
ATOM      4  C   UNL     1       1.089   9.577  18.666  0.00  0.00    +0.000 C 
ATOM      5  C   UNL     1       1.976   8.364  18.674  0.00  0.00    +0.000 A 
ATOM      6  C   UNL     1       1.945   7.457  19.738  0.00  0.00    +0.000 A 
ATOM      7  C   UNL     1       2.799   6.351  19.750  0.00  0.00    +0.000 A 
ATOM      8  C   UNL     1       3.696   6.149  18.696  0.00  0.00    +0.000 A 
ATOM      9  C   UNL     1       3.747   7.062  17.640  0.00  0.00    +0.000 A 
ATOM     10  C   UNL     1       2.879   8.156  17.622  0.00  0.00    +0.000 A 
ENDBRANCH   1   8
BRANCH   1  11
ATOM     11  N   UNL     1       5.567   4.689  17.252  0.00  0.00    +0.000 NA
ATOM     12  C   UNL     1       4.812   3.928  16.246  0.00  0.00    +0.000 C 
ATOM     13  C   UNL     1       5.414   4.081  14.886  0.00  0.00    +0.000 C 
ATOM     14  C   UNL     1       6.638   4.570  14.661  0.00  0.00    +0.000 C 
ATOM     15 BR   UNL     1       7.309   4.793  12.933  0.00  0.00    +0.000 Br
ATOM     16  C   UNL     1       7.550   4.996  15.771  0.00  0.00    +0.000 C 
ATOM     17  C   UNL     1       7.041   4.621  17.168  0.00  0.00    +0.000 C 
ENDBRANCH   1  11
TORSDOF 2
ENDMDL
