MODEL 1
REMARK VINA RESULT:      -7.0      0.000      0.000
REMARK  Name = 
REMARK  7 active torsions:
REMARK  status: ('A' for Active; 'I' for Inactive)
REMARK    1  A    between atoms: C_1  and  O_2
REMARK    2  A    between atoms: O_2  and  C_3
REMARK    3  A    between atoms: C_3  and  C_4
REMARK    4  A    between atoms: C_4  and  N_5
REMARK    5  A    between atoms: N_14  and  C_15
REMARK    6  A    between atoms: C_15  and  C_16
REMARK    7  A    between atoms: C_19  and  C_20
REMARK                            x       y       z     vdW  Elec       q    Type
REMARK                         _______ _______ _______ _____ _____    ______ ____
ROOT
ATOM      1  N   UNL     1       6.061   4.515  16.529  0.00  0.00    +0.000 N 
ATOM      2  C   UNL     1       7.171   4.571  17.350  0.00  0.00    +0.000 C 
ATOM      3  O   UNL     1       8.295   4.227  16.969  0.00  0.00    +0.000 OA
ATOM      4  C   UNL     1       6.904   4.831  18.814  0.00  0.00    +0.000 C 
ATOM      5  C   UNL     1       5.673   5.656  19.149  0.00  0.00    +0.000 C 
ATOM      6  C   UNL     1       4.453   5.330  18.271  0.00  0.00    +0.000 C 
ATOM      7  C   UNL     1       4.848   5.265  16.797  0.00  0.00    +0.000 C 
ATOM      8  C   UNL     1       4.960   6.743  16.435  0.00  0.00    +0.000 C 
ATOM      9  C   UNL     1       3.896   7.415  17.299  0.00  0.00    +0.000 C 
ATOM     10  N   UNL     1       3.495   6.461  18.360  0.00  0.00    +0.000 NA
ENDROOT
BRANCH   1  11
ATOM     11  C   UNL     1       6.100   3.594  15.386  0.00  0.00    +0.000 C 
BRANCH  11  12
ATOM     12  C   UNL     1       5.983   4.358  14.054  0.00  0.00    +0.000 C 
BRANCH  12  14
ATOM     13  C   UNL     1       5.472   3.211  12.055  0.00  0.00    +0.000 C 
ATOM     14  O   UNL     1       6.495   3.550  12.983  0.00  0.00    +0.000 OA
ENDBRANCH  12  14
ENDBRANCH  11  12
ENDBRANCH   1  11
BRANCH  10  15
ATOM     15  C   UNL     1       2.088   6.025  18.196  0.00  0.00    +0.000 C 
BRANCH  15  16
ATOM     16  C   UNL     1       1.771   4.746  18.949  0.00  0.00    +0.000 A 
ATOM     17  C   UNL     1       1.341   3.526  18.464  0.00  0.00    +0.000 A 
ATOM     18  C   UNL     1       1.228   2.536  19.481  0.00  0.00    +0.000 A 
ATOM     19  C   UNL     1       1.471   3.048  20.736  0.00  0.00    +0.000 A 
ATOM     20  C   UNL     1       1.354   2.343  22.046  0.00  0.00    +0.000 C 
ATOM     21  S   UNL     1       1.923   4.698  20.663  0.00  0.00    +0.000 S 
ENDBRANCH  15  16
ENDBRANCH  10  15
TORSDOF 5
ENDMDL
MODEL 2
REMARK VINA RESULT:      -6.5      2.532      4.681
REMARK  Name = 
REMARK  7 active torsions:
REMARK  status: ('A' for Active; 'I' for Inactive)
REMARK    1  A    between atoms: C_1  and  O_2
REMARK    2  A    between atoms: O_2  and  C_3
REMARK    3  A    between atoms: C_3  and  C_4
REMARK    4  A    between atoms: C_4  and  N_5
REMARK    5  A    between atoms: N_14  and  C_15
REMARK    6  A    between atoms: C_15  and  C_16
REMARK    7  A    between atoms: C_19  and  C_20
REMARK                            x       y       z     vdW  Elec       q    Type
REMARK                         _______ _______ _______ _____ _____    ______ ____
ROOT
ATOM      1  N   UNL     1       6.713   5.026  18.091  0.00  0.00    +0.000 N 
ATOM      2  C   UNL     1       6.760   4.746  16.739  0.00  0.00    +0.000 C 
ATOM      3  O   UNL     1       7.787   4.347  16.180  0.00  0.00    +0.000 OA
ATOM      4  C   UNL     1       5.568   5.193  15.924  0.00  0.00    +0.000 C 
ATOM      5  C   UNL     1       4.229   5.241  16.641  0.00  0.00    +0.000 C 
ATOM      6  C   UNL     1       4.319   5.769  18.083  0.00  0.00    +0.000 C 
ATOM      7  C   UNL     1       5.468   5.100  18.834  0.00  0.00    +0.000 C 
ATOM      8  C   UNL     1       4.878   3.733  19.163  0.00  0.00    +0.000 C 
ATOM      9  C   UNL     1       3.393   4.014  19.374  0.00  0.00    +0.000 C 
ATOM     10  N   UNL     1       3.093   5.353  18.812  0.00  0.00    +0.000 NA
ENDROOT
BRANCH   1  11
ATOM     11  C   UNL     1       7.977   5.333  18.772  0.00  0.00    +0.000 C 
BRANCH  11  12
ATOM     12  C   UNL     1       8.144   6.850  18.976  0.00  0.00    +0.000 C 
BRANCH  12  14
ATOM     13  C   UNL     1       8.090   8.938  17.875  0.00  0.00    +0.000 C 
ATOM     14  O   UNL     1       7.863   7.539  17.748  0.00  0.00    +0.000 OA
ENDBRANCH  12  14
ENDBRANCH  11  12
ENDBRANCH   1  11
BRANCH  10  15
ATOM     15  C   UNL     1       2.712   6.315  19.872  0.00  0.00    +0.000 C 
BRANCH  15  16
ATOM     16  C   UNL     1       2.125   7.602  19.323  0.00  0.00    +0.000 A 
ATOM     17  C   UNL     1       2.164   8.106  18.036  0.00  0.00    +0.000 A 
ATOM     18  C   UNL     1       1.424   9.313  17.893  0.00  0.00    +0.000 A 
ATOM     19  C   UNL     1       0.923   9.764  19.095  0.00  0.00    +0.000 A 
ATOM     20  C   UNL     1       0.183  11.033  19.355  0.00  0.00    +0.000 C 
ATOM     21  S   UNL     1       1.275   8.674  20.367  0.00  0.00    +0.000 S 
ENDBRANCH  15  16
ENDBRANCH  10  15
TORSDOF 5
ENDMDL
MODEL 3
REMARK VINA RESULT:      -6.4      3.704      6.483
REMARK  Name = 
REMARK  7 active torsions:
REMARK  status: ('A' for Active; 'I' for Inactive)
REMARK    1  A    between atoms: C_1  and  O_2
REMARK    2  A    between atoms: O_2  and  C_3
REMARK    3  A    between atoms: C_3  and  C_4
REMARK    4  A    between atoms: C_4  and  N_5
REMARK    5  A    between atoms: N_14  and  C_15
REMARK    6  A    between atoms: C_15  and  C_16
REMARK    7  A    between atoms: C_19  and  C_20
REMARK                            x       y       z     vdW  Elec       q    Type
REMARK                         _______ _______ _______ _____ _____    ______ ____
ROOT
ATOM      1  N   UNL     1       2.294   4.414  20.303  0.00  0.00    +0.000 N 
ATOM      2  C   UNL     1       2.491   3.368  21.185  0.00  0.00    +0.000 C 
ATOM      3  O   UNL     1       1.874   3.274  22.250  0.00  0.00    +0.000 OA
ATOM      4  C   UNL     1       3.682   2.480  20.908  0.00  0.00    +0.000 C 
ATOM      5  C   UNL     1       4.104   2.335  19.455  0.00  0.00    +0.000 C 
ATOM      6  C   UNL     1       4.017   3.645  18.653  0.00  0.00    +0.000 C 
ATOM      7  C   UNL     1       2.685   4.348  18.907  0.00  0.00    +0.000 C 
ATOM      8  C   UNL     1       1.727   3.529  18.049  0.00  0.00    +0.000 C 
ATOM      9  C   UNL     1       2.577   3.099  16.856  0.00  0.00    +0.000 C 
ATOM     10  N   UNL     1       4.002   3.309  17.207  0.00  0.00    +0.000 NA
ENDROOT
BRANCH   1  11
ATOM     11  C   UNL     1       1.733   5.663  20.835  0.00  0.00    +0.000 C 
BRANCH  11  12
ATOM     12  C   UNL     1       2.120   6.865  19.953  0.00  0.00    +0.000 C 
BRANCH  12  14
ATOM     13  C   UNL     1       0.590   8.109  21.251  0.00  0.00    +0.000 C 
ATOM     14  O   UNL     1       1.887   8.088  20.669  0.00  0.00    +0.000 OA
ENDBRANCH  12  14
ENDBRANCH  11  12
ENDBRANCH   1  11
BRANCH  10  15
ATOM     15  C   UNL     1       4.616   4.368  16.373  0.00  0.00    +0.000 C 
BRANCH  15  16
ATOM     16  C   UNL     1       5.791   5.050  17.051  0.00  0.00    +0.000 A 
ATOM     17  C   UNL     1       6.825   4.497  17.781  0.00  0.00    +0.000 A 
ATOM     18  C   UNL     1       7.789   5.460  18.192  0.00  0.00    +0.000 A 
ATOM     19  C   UNL     1       7.419   6.744  17.858  0.00  0.00    +0.000 A 
ATOM     20  C   UNL     1       8.122   8.014  18.203  0.00  0.00    +0.000 C 
ATOM     21  S   UNL     1       5.954   6.762  16.971  0.00  0.00    +0.000 S 
ENDBRANCH  15  16
ENDBRANCH  10  15
TORSDOF 5
ENDMDL
MODEL 4
REMARK VINA RESULT:      -6.4      2.953      6.186
REMARK  Name = 
REMARK  7 active torsions:
REMARK  status: ('A' for Active; 'I' for Inactive)
REMARK    1  A    between atoms: C_1  and  O_2
REMARK    2  A    between atoms: O_2  and  C_3
REMARK    3  A    between atoms: C_3  and  C_4
REMARK    4  A    between atoms: C_4  and  N_5
REMARK    5  A    between atoms: N_14  and  C_15
REMARK    6  A    between atoms: C_15  and  C_16
REMARK    7  A    between atoms: C_19  and  C_20
REMARK                            x       y       z     vdW  Elec       q    Type
REMARK                         _______ _______ _______ _____ _____    ______ ____
ROOT
ATOM      1  N   UNL     1       3.849   4.495  19.051  0.00  0.00    +0.000 N 
ATOM      2  C   UNL     1       2.958   5.550  18.999  0.00  0.00    +0.000 C 
ATOM      3  O   UNL     1       1.964   5.615  19.731  0.00  0.00    +0.000 OA
ATOM      4  C   UNL     1       3.111   6.496  17.831  0.00  0.00    +0.000 C 
ATOM      5  C   UNL     1       4.511   6.660  17.263  0.00  0.00    +0.000 C 
ATOM      6  C   UNL     1       5.310   5.347  17.201  0.00  0.00    +0.000 C 
ATOM      7  C   UNL     1       5.195   4.579  18.516  0.00  0.00    +0.000 C 
ATOM      8  C   UNL     1       6.155   5.350  19.416  0.00  0.00    +0.000 C 
ATOM      9  C   UNL     1       7.254   5.820  18.466  0.00  0.00    +0.000 C 
ATOM     10  N   UNL     1       6.753   5.681  17.078  0.00  0.00    +0.000 NA
ENDROOT
BRANCH   1  11
ATOM     11  C   UNL     1       3.372   3.221  19.603  0.00  0.00    +0.000 C 
BRANCH  11  12
ATOM     12  C   UNL     1       3.191   2.168  18.494  0.00  0.00    +0.000 C 
BRANCH  12  14
ATOM     13  C   UNL     1       0.857   2.403  18.762  0.00  0.00    +0.000 C 
ATOM     14  O   UNL     1       1.934   2.370  17.832  0.00  0.00    +0.000 OA
ENDBRANCH  12  14
ENDBRANCH  11  12
ENDBRANCH   1  11
BRANCH  10  15
ATOM     15  C   UNL     1       7.509   4.652  16.327  0.00  0.00    +0.000 C 
BRANCH  15  16
ATOM     16  C   UNL     1       7.056   4.515  14.885  0.00  0.00    +0.000 A 
ATOM     17  C   UNL     1       7.572   5.100  13.744  0.00  0.00    +0.000 A 
ATOM     18  C   UNL     1       6.920   4.661  12.557  0.00  0.00    +0.000 A 
ATOM     19  C   UNL     1       5.853   3.832  12.823  0.00  0.00    +0.000 A 
ATOM     20  C   UNL     1       4.881   3.256  11.847  0.00  0.00    +0.000 C 
ATOM     21  S   UNL     1       5.705   3.521  14.500  0.00  0.00    +0.000 S 
ENDBRANCH  15  16
ENDBRANCH  10  15
TORSDOF 5
ENDMDL
MODEL 5
REMARK VINA RESULT:      -6.3      3.455      6.151
REMARK  Name = 
REMARK  7 active torsions:
REMARK  status: ('A' for Active; 'I' for Inactive)
REMARK    1  A    between atoms: C_1  and  O_2
REMARK    2  A    between atoms: O_2  and  C_3
REMARK    3  A    between atoms: C_3  and  C_4
REMARK    4  A    between atoms: C_4  and  N_5
REMARK    5  A    between atoms: N_14  and  C_15
REMARK    6  A    between atoms: C_15  and  C_16
REMARK    7  A    between atoms: C_19  and  C_20
REMARK                            x       y       z     vdW  Elec       q    Type
REMARK                         _______ _______ _______ _____ _____    ______ ____
ROOT
ATOM      1  N   UNL     1       2.220   6.257  19.336  0.00  0.00    +0.000 N 
ATOM      2  C   UNL     1       1.857   5.751  20.569  0.00  0.00    +0.000 C 
ATOM      3  O   UNL     1       1.072   6.338  21.321  0.00  0.00    +0.000 OA
ATOM      4  C   UNL     1       2.661   4.573  21.068  0.00  0.00    +0.000 C 
ATOM      5  C   UNL     1       3.246   3.648  20.014  0.00  0.00    +0.000 C 
ATOM      6  C   UNL     1       3.794   4.387  18.780  0.00  0.00    +0.000 C 
ATOM      7  C   UNL     1       2.797   5.434  18.289  0.00  0.00    +0.000 C 
ATOM      8  C   UNL     1       1.769   4.574  17.561  0.00  0.00    +0.000 C 
ATOM      9  C   UNL     1       2.593   3.427  16.981  0.00  0.00    +0.000 C 
ATOM     10  N   UNL     1       3.909   3.414  17.664  0.00  0.00    +0.000 NA
ENDROOT
BRANCH   1  11
ATOM     11  C   UNL     1       2.080   7.703  19.119  0.00  0.00    +0.000 C 
BRANCH  11  12
ATOM     12  C   UNL     1       2.799   8.144  17.830  0.00  0.00    +0.000 C 
BRANCH  12  14
ATOM     13  C   UNL     1       1.574  10.118  18.251  0.00  0.00    +0.000 C 
ATOM     14  O   UNL     1       2.113   9.263  17.249  0.00  0.00    +0.000 OA
ENDBRANCH  12  14
ENDBRANCH  11  12
ENDBRANCH   1  11
BRANCH  10  15
ATOM     15  C   UNL     1       5.009   3.752  16.731  0.00  0.00    +0.000 C 
BRANCH  15  16
ATOM     16  C   UNL     1       5.977   4.773  17.298  0.00  0.00    +0.000 A 
ATOM     17  C   UNL     1       6.880   4.643  18.337  0.00  0.00    +0.000 A 
ATOM     18  C   UNL     1       7.677   5.808  18.524  0.00  0.00    +0.000 A 
ATOM     19  C   UNL     1       7.296   6.840  17.695  0.00  0.00    +0.000 A 
ATOM     20  C   UNL     1       7.831   8.233  17.669  0.00  0.00    +0.000 C 
ATOM     21  S   UNL     1       6.039   6.360  16.636  0.00  0.00    +0.000 S 
ENDBRANCH  15  16
ENDBRANCH  10  15
TORSDOF 5
ENDMDL
MODEL 6
REMARK VINA RESULT:      -6.0      3.273      6.653
REMARK  Name = 
REMARK  7 active torsions:
REMARK  status: ('A' for Active; 'I' for Inactive)
REMARK    1  A    between atoms: C_1  and  O_2
REMARK    2  A    between atoms: O_2  and  C_3
REMARK    3  A    between atoms: C_3  and  C_4
REMARK    4  A    between atoms: C_4  and  N_5
REMARK    5  A    between atoms: N_14  and  C_15
REMARK    6  A    between atoms: C_15  and  C_16
REMARK    7  A    between atoms: C_19  and  C_20
REMARK                            x       y       z     vdW  Elec       q    Type
REMARK                         _______ _______ _______ _____ _____    ______ ____
ROOT
ATOM      1  N   UNL     1       2.370   5.418  19.718  0.00  0.00    +0.000 N 
ATOM      2  C   UNL     1       2.145   6.777  19.829  0.00  0.00    +0.000 C 
ATOM      3  O   UNL     1       1.478   7.265  20.748  0.00  0.00    +0.000 OA
ATOM      4  C   UNL     1       2.534   7.616  18.635  0.00  0.00    +0.000 C 
ATOM      5  C   UNL     1       3.690   7.108  17.789  0.00  0.00    +0.000 C 
ATOM      6  C   UNL     1       3.685   5.583  17.591  0.00  0.00    +0.000 C 
ATOM      7  C   UNL     1       3.446   4.864  18.917  0.00  0.00    +0.000 C 
ATOM      8  C   UNL     1       4.813   4.971  19.585  0.00  0.00    +0.000 C 
ATOM      9  C   UNL     1       5.797   4.910  18.420  0.00  0.00    +0.000 C 
ATOM     10  N   UNL     1       5.045   5.161  17.167  0.00  0.00    +0.000 NA
ENDROOT
BRANCH   1  11
ATOM     11  C   UNL     1       1.427   4.510  20.383  0.00  0.00    +0.000 C 
BRANCH  11  12
ATOM     12  C   UNL     1       2.129   3.216  20.838  0.00  0.00    +0.000 C 
BRANCH  12  14
ATOM     13  C   UNL     1       0.659   2.477  19.145  0.00  0.00    +0.000 C 
ATOM     14  O   UNL     1       1.774   2.137  19.960  0.00  0.00    +0.000 OA
ENDBRANCH  12  14
ENDBRANCH  11  12
ENDBRANCH   1  11
BRANCH  10  15
ATOM     15  C   UNL     1       5.020   3.961  16.299  0.00  0.00    +0.000 C 
BRANCH  15  16
ATOM     16  C   UNL     1       5.786   4.150  15.002  0.00  0.00    +0.000 A 
ATOM     17  C   UNL     1       5.648   3.489  13.797  0.00  0.00    +0.000 A 
ATOM     18  C   UNL     1       6.500   4.007  12.781  0.00  0.00    +0.000 A 
ATOM     19  C   UNL     1       7.348   4.983  13.259  0.00  0.00    +0.000 A 
ATOM     20  C   UNL     1       8.438   5.684  12.520  0.00  0.00    +0.000 C 
ATOM     21  S   UNL     1       7.040   5.325  14.908  0.00  0.00    +0.000 S 
ENDBRANCH  15  16
ENDBRANCH  10  15
TORSDOF 5
ENDMDL
MODEL 7
REMARK VINA RESULT:      -6.0      3.451      6.842
REMARK  Name = 
REMARK  7 active torsions:
REMARK  status: ('A' for Active; 'I' for Inactive)
REMARK    1  A    between atoms: C_1  and  O_2
REMARK    2  A    between atoms: O_2  and  C_3
REMARK    3  A    between atoms: C_3  and  C_4
REMARK    4  A    between atoms: C_4  and  N_5
REMARK    5  A    between atoms: N_14  and  C_15
REMARK    6  A    between atoms: C_15  and  C_16
REMARK    7  A    between atoms: C_19  and  C_20
REMARK                            x       y       z     vdW  Elec       q    Type
REMARK                         _______ _______ _______ _____ _____    ______ ____
ROOT
ATOM      1  N   UNL     1       2.322   5.805  19.810  0.00  0.00    +0.000 N 
ATOM      2  C   UNL     1       2.046   7.156  19.886  0.00  0.00    +0.000 C 
ATOM      3  O   UNL     1       1.417   7.651  20.828  0.00  0.00    +0.000 OA
ATOM      4  C   UNL     1       2.323   7.965  18.640  0.00  0.00    +0.000 C 
ATOM      5  C   UNL     1       3.445   7.473  17.741  0.00  0.00    +0.000 C 
ATOM      6  C   UNL     1       3.495   5.942  17.598  0.00  0.00    +0.000 C 
ATOM      7  C   UNL     1       3.369   5.265  18.962  0.00  0.00    +0.000 C 
ATOM      8  C   UNL     1       4.769   5.454  19.537  0.00  0.00    +0.000 C 
ATOM      9  C   UNL     1       5.681   5.389  18.314  0.00  0.00    +0.000 C 
ATOM     10  N   UNL     1       4.843   5.561  17.104  0.00  0.00    +0.000 NA
ENDROOT
BRANCH   1  11
ATOM     11  C   UNL     1       1.463   4.884  20.565  0.00  0.00    +0.000 C 
BRANCH  11  12
ATOM     12  C   UNL     1       1.110   3.641  19.728  0.00  0.00    +0.000 C 
BRANCH  12  14
ATOM     13  C   UNL     1       1.957   2.706  21.723  0.00  0.00    +0.000 C 
ATOM     14  O   UNL     1       1.198   2.463  20.545  0.00  0.00    +0.000 OA
ENDBRANCH  12  14
ENDBRANCH  11  12
ENDBRANCH   1  11
BRANCH  10  15
ATOM     15  C   UNL     1       4.816   4.329  16.282  0.00  0.00    +0.000 C 
BRANCH  15  16
ATOM     16  C   UNL     1       5.744   4.394  15.083  0.00  0.00    +0.000 A 
ATOM     17  C   UNL     1       6.967   5.025  14.953  0.00  0.00    +0.000 A 
ATOM     18  C   UNL     1       7.578   4.791  13.689  0.00  0.00    +0.000 A 
ATOM     19  C   UNL     1       6.763   4.074  12.841  0.00  0.00    +0.000 A 
ATOM     20  C   UNL     1       7.020   3.721  11.414  0.00  0.00    +0.000 C 
ATOM     21  S   UNL     1       5.306   3.613  13.613  0.00  0.00    +0.000 S 
ENDBRANCH  15  16
ENDBRANCH  10  15
TORSDOF 5
ENDMDL
MODEL 8
REMARK VINA RESULT:      -6.0      3.461      6.697
REMARK  Name = 
REMARK  7 active torsions:
REMARK  status: ('A' for Active; 'I' for Inactive)
REMARK    1  A    between atoms: C_1  and  O_2
REMARK    2  A    between atoms: O_2  and  C_3
REMARK    3  A    between atoms: C_3  and  C_4
REMARK    4  A    between atoms: C_4  and  N_5
REMARK    5  A    between atoms: N_14  and  C_15
REMARK    6  A    between atoms: C_15  and  C_16
REMARK    7  A    between atoms: C_19  and  C_20
REMARK                            x       y       z     vdW  Elec       q    Type
REMARK                         _______ _______ _______ _____ _____    ______ ____
ROOT
ATOM      1  N   UNL     1       3.292   3.013  20.067  0.00  0.00    +0.000 N 
ATOM      2  C   UNL     1       2.000   2.714  19.681  0.00  0.00    +0.000 C 
ATOM      3  O   UNL     1       1.168   2.239  20.461  0.00  0.00    +0.000 OA
ATOM      4  C   UNL     1       1.723   2.754  18.196  0.00  0.00    +0.000 C 
ATOM      5  C   UNL     1       2.555   3.721  17.371  0.00  0.00    +0.000 C 
ATOM      6  C   UNL     1       4.030   3.790  17.801  0.00  0.00    +0.000 C 
ATOM      7  C   UNL     1       4.146   3.917  19.319  0.00  0.00    +0.000 C 
ATOM      8  C   UNL     1       3.809   5.388  19.540  0.00  0.00    +0.000 C 
ATOM      9  C   UNL     1       4.356   6.082  18.295  0.00  0.00    +0.000 C 
ATOM     10  N   UNL     1       4.616   5.046  17.267  0.00  0.00    +0.000 NA
ENDROOT
BRANCH   1  11
ATOM     11  C   UNL     1       3.834   2.320  21.243  0.00  0.00    +0.000 C 
BRANCH  11  12
ATOM     12  C   UNL     1       5.006   1.399  20.855  0.00  0.00    +0.000 C 
BRANCH  12  14
ATOM     13  C   UNL     1       6.243  -0.275  21.969  0.00  0.00    +0.000 C 
ATOM     14  O   UNL     1       5.771   1.067  22.023  0.00  0.00    +0.000 OA
ENDBRANCH  12  14
ENDBRANCH  11  12
ENDBRANCH   1  11
BRANCH  10  15
ATOM     15  C   UNL     1       6.064   4.916  16.979  0.00  0.00    +0.000 C 
BRANCH  15  16
ATOM     16  C   UNL     1       6.360   4.696  15.507  0.00  0.00    +0.000 A 
ATOM     17  C   UNL     1       7.328   5.277  14.710  0.00  0.00    +0.000 A 
ATOM     18  C   UNL     1       7.344   4.750  13.388  0.00  0.00    +0.000 A 
ATOM     19  C   UNL     1       6.320   3.854  13.171  0.00  0.00    +0.000 A 
ATOM     20  C   UNL     1       5.961   3.174  11.892  0.00  0.00    +0.000 C 
ATOM     21  S   UNL     1       5.407   3.591  14.595  0.00  0.00    +0.000 S 
ENDBRANCH  15  16
ENDBRANCH  10  15
TORSDOF 5
ENDMDL
MODEL 9
REMARK VINA RESULT:      -5.9      3.582      6.745
REMARK  Name = 
REMARK  7 active torsions:
REMARK  status: ('A' for Active; 'I' for Inactive)
REMARK    1  A    between atoms: C_1  and  O_2
REMARK    2  A    between atoms: O_2  and  C_3
REMARK    3  A    between atoms: C_3  and  C_4
REMARK    4  A    between atoms: C_4  and  N_5
REMARK    5  A    between atoms: N_14  and  C_15
REMARK    6  A    between atoms: C_15  and  C_16
REMARK    7  A    between atoms: C_19  and  C_20
REMARK                            x       y       z     vdW  Elec       q    Type
REMARK                         _______ _______ _______ _____ _____    ______ ____
ROOT
ATOM      1  N   UNL     1       3.114   2.987  20.115  0.00  0.00    +0.000 N 
ATOM      2  C   UNL     1       1.760   2.900  19.858  0.00  0.00    +0.000 C 
ATOM      3  O   UNL     1       0.948   2.513  20.705  0.00  0.00    +0.000 OA
ATOM      4  C   UNL     1       1.345   3.053  18.413  0.00  0.00    +0.000 C 
ATOM      5  C   UNL     1       2.226   3.929  17.538  0.00  0.00    +0.000 C 
ATOM      6  C   UNL     1       3.730   3.760  17.811  0.00  0.00    +0.000 C 
ATOM      7  C   UNL     1       4.015   3.793  19.312  0.00  0.00    +0.000 C 
ATOM      8  C   UNL     1       3.927   5.284  19.617  0.00  0.00    +0.000 C 
ATOM      9  C   UNL     1       4.445   5.952  18.346  0.00  0.00    +0.000 C 
ATOM     10  N   UNL     1       4.442   4.942  17.261  0.00  0.00    +0.000 NA
ENDROOT
BRANCH   1  11
ATOM     11  C   UNL     1       3.661   2.165  21.202  0.00  0.00    +0.000 C 
BRANCH  11  12
ATOM     12  C   UNL     1       4.975   1.484  20.777  0.00  0.00    +0.000 C 
BRANCH  12  14
ATOM     13  C   UNL     1       6.094  -0.105  22.117  0.00  0.00    +0.000 C 
ATOM     14  O   UNL     1       5.809   1.276  21.927  0.00  0.00    +0.000 OA
ENDBRANCH  12  14
ENDBRANCH  11  12
ENDBRANCH   1  11
BRANCH  10  15
ATOM     15  C   UNL     1       5.818   4.617  16.817  0.00  0.00    +0.000 C 
BRANCH  15  16
ATOM     16  C   UNL     1       5.914   4.354  15.325  0.00  0.00    +0.000 A 
ATOM     17  C   UNL     1       5.035   3.687  14.494  0.00  0.00    +0.000 A 
ATOM     18  C   UNL     1       5.436   3.718  13.128  0.00  0.00    +0.000 A 
ATOM     19  C   UNL     1       6.665   4.316  12.958  0.00  0.00    +0.000 A 
ATOM     20  C   UNL     1       7.448   4.446  11.695  0.00  0.00    +0.000 C 
ATOM     21  S   UNL     1       7.279   4.916  14.440  0.00  0.00    +0.000 S 
ENDBRANCH  15  16
ENDBRANCH  10  15
TORSDOF 5
ENDMDL
