MODEL 1
REMARK VINA RESULT:      -8.6      0.000      0.000
REMARK  Name = 
REMARK  6 active torsions:
REMARK  status: ('A' for Active; 'I' for Inactive)
REMARK    1  A    between atoms: C_2  and  C_18
REMARK    2  A    between atoms: N_3  and  C_4
REMARK    3  A    between atoms: N_8  and  C_9
REMARK    4  A    between atoms: C_9  and  C_10
REMARK    5  A    between atoms: CA_21  and  C_22
REMARK    6  A    between atoms: C_22  and  OXT_24
REMARK                            x       y       z     vdW  Elec       q    Type
REMARK                         _______ _______ _______ _____ _____    ______ ____
ROOT
ATOM      1  O   UNL     1       5.077   3.556  18.431  0.00  0.00    +0.000 OA
ATOM      2  C   UNL     1       4.603   4.097  17.446  0.00  0.00    +0.000 C 
ATOM      3  N   UNL     1       3.200   4.419  17.356  0.00  0.00    +0.000 N 
ATOM      4  H   UNL     1       2.817   4.734  16.475  0.00  0.00    +0.000 HD
ENDROOT
BRANCH   2   5
ATOM      5  C   UNL     1       5.436   4.350  16.254  0.00  0.00    +0.000 A 
ATOM      6  C   UNL     1       5.194   3.766  15.010  0.00  0.00    +0.000 A 
ATOM      7  C   UNL     1       6.032   4.082  13.938  0.00  0.00    +0.000 A 
ATOM      8  CA  UNL     1       7.088   4.964  14.152  0.00  0.00    +0.000 A 
ATOM      9  N   UNL     1       7.347   5.556  15.354  0.00  0.00    +0.000 NA
ATOM     10  C   UNL     1       6.502   5.244  16.370  0.00  0.00    +0.000 A 
BRANCH   8  11
ATOM     11  C   UNL     1       8.010   5.310  13.034  0.00  0.00    +0.000 C 
ATOM     12  O   UNL     1       8.997   6.018  13.155  0.00  0.00    +0.000 OA
BRANCH  11  13
ATOM     13  OXT UNL     1       7.607   4.747  11.872  0.00  0.00    +0.000 OA
ATOM     14  HXT UNL     1       7.817   3.786  11.869  0.00  0.00    +0.000 HD
ENDBRANCH  11  13
ENDBRANCH   8  11
ENDBRANCH   2   5
BRANCH   3  15
ATOM     15  C   UNL     1       2.315   4.227  18.423  0.00  0.00    +0.000 A 
ATOM     16  C   UNL     1       1.303   3.293  18.510  0.00  0.00    +0.000 A 
ATOM     17  C   UNL     1       0.702   3.500  19.763  0.00  0.00    +0.000 A 
ATOM     18  N   UNL     1       1.279   4.490  20.440  0.00  0.00    +0.000 NA
ATOM     19  N   UNL     1       2.262   4.925  19.618  0.00  0.00    +0.000 N 
BRANCH  19  20
ATOM     20  C   UNL     1       2.984   6.135  19.998  0.00  0.00    +0.000 C 
BRANCH  20  21
ATOM     21  C   UNL     1       2.227   7.392  19.637  0.00  0.00    +0.000 A 
ATOM     22  C   UNL     1       2.256   7.903  18.327  0.00  0.00    +0.000 A 
ATOM     23  C   UNL     1       1.515   9.040  17.982  0.00  0.00    +0.000 A 
ATOM     24  C   UNL     1       0.747   9.685  18.949  0.00  0.00    +0.000 A 
ATOM     25 CL   UNL     1      -0.218  11.039  18.506  0.00  0.00    +0.000 Cl
ATOM     26  C   UNL     1       0.758   9.217  20.259  0.00  0.00    +0.000 A 
ATOM     27  F   UNL     1       0.041   9.827  21.215  0.00  0.00    +0.000 F 
ATOM     28  C   UNL     1       1.498   8.087  20.610  0.00  0.00    +0.000 A 
ENDBRANCH  20  21
ENDBRANCH  19  20
ENDBRANCH   3  15
TORSDOF 6
ENDMDL
MODEL 2
REMARK VINA RESULT:      -8.4      4.114      6.945
REMARK  Name = 
REMARK  6 active torsions:
REMARK  status: ('A' for Active; 'I' for Inactive)
REMARK    1  A    between atoms: C_2  and  C_18
REMARK    2  A    between atoms: N_3  and  C_4
REMARK    3  A    between atoms: N_8  and  C_9
REMARK    4  A    between atoms: C_9  and  C_10
REMARK    5  A    between atoms: CA_21  and  C_22
REMARK    6  A    between atoms: C_22  and  OXT_24
REMARK                            x       y       z     vdW  Elec       q    Type
REMARK                         _______ _______ _______ _____ _____    ______ ____
ROOT
ATOM      1  O   UNL     1       3.838   5.990  19.809  0.00  0.00    +0.000 OA
ATOM      2  C   UNL     1       2.831   6.186  19.149  0.00  0.00    +0.000 C 
ATOM      3  N   UNL     1       2.212   5.138  18.375  0.00  0.00    +0.000 N 
ATOM      4  H   UNL     1       1.468   5.368  17.731  0.00  0.00    +0.000 HD
ENDROOT
BRANCH   2   5
ATOM      5  C   UNL     1       2.262   7.543  19.032  0.00  0.00    +0.000 A 
ATOM      6  C   UNL     1       2.308   8.296  17.859  0.00  0.00    +0.000 A 
ATOM      7  C   UNL     1       1.726   9.566  17.844  0.00  0.00    +0.000 A 
ATOM      8  CA  UNL     1       1.127  10.040  19.009  0.00  0.00    +0.000 A 
ATOM      9  N   UNL     1       1.061   9.326  20.170  0.00  0.00    +0.000 NA
ATOM     10  C   UNL     1       1.617   8.088  20.144  0.00  0.00    +0.000 A 
BRANCH   8  11
ATOM     11  C   UNL     1       0.511  11.398  19.033  0.00  0.00    +0.000 C 
ATOM     12  O   UNL     1      -0.458  11.697  19.712  0.00  0.00    +0.000 OA
BRANCH  11  13
ATOM     13  OXT UNL     1       1.158  12.246  18.202  0.00  0.00    +0.000 OA
ATOM     14  HXT UNL     1       2.118  12.266  18.416  0.00  0.00    +0.000 HD
ENDBRANCH  11  13
ENDBRANCH   8  11
ENDBRANCH   2   5
BRANCH   3  15
ATOM     15  C   UNL     1       2.662   3.813  18.410  0.00  0.00    +0.000 A 
ATOM     16  C   UNL     1       2.390   2.866  19.376  0.00  0.00    +0.000 A 
ATOM     17  C   UNL     1       3.065   1.703  18.968  0.00  0.00    +0.000 A 
ATOM     18  N   UNL     1       3.722   1.879  17.824  0.00  0.00    +0.000 NA
ATOM     19  N   UNL     1       3.469   3.165  17.490  0.00  0.00    +0.000 N 
BRANCH  19  20
ATOM     20  C   UNL     1       4.194   3.732  16.358  0.00  0.00    +0.000 C 
BRANCH  20  21
ATOM     21  C   UNL     1       5.217   4.757  16.787  0.00  0.00    +0.000 A 
ATOM     22  C   UNL     1       5.086   6.109  16.418  0.00  0.00    +0.000 A 
ATOM     23  C   UNL     1       6.008   7.067  16.857  0.00  0.00    +0.000 A 
ATOM     24  C   UNL     1       7.079   6.680  17.660  0.00  0.00    +0.000 A 
ATOM     25 CL   UNL     1       8.169   7.870  18.256  0.00  0.00    +0.000 Cl
ATOM     26  C   UNL     1       7.245   5.337  17.982  0.00  0.00    +0.000 A 
ATOM     27  F   UNL     1       8.275   4.933  18.740  0.00  0.00    +0.000 F 
ATOM     28  C   UNL     1       6.332   4.377  17.543  0.00  0.00    +0.000 A 
ENDBRANCH  20  21
ENDBRANCH  19  20
ENDBRANCH   3  15
TORSDOF 6
ENDMDL
MODEL 3
REMARK VINA RESULT:      -8.3      0.941      1.331
REMARK  Name = 
REMARK  6 active torsions:
REMARK  status: ('A' for Active; 'I' for Inactive)
REMARK    1  A    between atoms: C_2  and  C_18
REMARK    2  A    between atoms: N_3  and  C_4
REMARK    3  A    between atoms: N_8  and  C_9
REMARK    4  A    between atoms: C_9  and  C_10
REMARK    5  A    between atoms: CA_21  and  C_22
REMARK    6  A    between atoms: C_22  and  OXT_24
REMARK                            x       y       z     vdW  Elec       q    Type
REMARK                         _______ _______ _______ _____ _____    ______ ____
ROOT
ATOM      1  O   UNL     1       5.016   3.438  18.567  0.00  0.00    +0.000 OA
ATOM      2  C   UNL     1       4.514   3.972  17.591  0.00  0.00    +0.000 C 
ATOM      3  N   UNL     1       3.101   4.253  17.522  0.00  0.00    +0.000 N 
ATOM      4  H   UNL     1       2.697   4.563  16.649  0.00  0.00    +0.000 HD
ENDROOT
BRANCH   2   5
ATOM      5  C   UNL     1       5.324   4.258  16.391  0.00  0.00    +0.000 A 
ATOM      6  C   UNL     1       4.854   4.083  15.089  0.00  0.00    +0.000 A 
ATOM      7  C   UNL     1       5.693   4.397  14.017  0.00  0.00    +0.000 A 
ATOM      8  CA  UNL     1       6.975   4.867  14.287  0.00  0.00    +0.000 A 
ATOM      9  N   UNL     1       7.461   5.055  15.548  0.00  0.00    +0.000 NA
ATOM     10  C   UNL     1       6.614   4.760  16.568  0.00  0.00    +0.000 A 
BRANCH   8  11
ATOM     11  C   UNL     1       7.901   5.196  13.167  0.00  0.00    +0.000 C 
ATOM     12  O   UNL     1       8.842   5.968  13.262  0.00  0.00    +0.000 OA
BRANCH  11  13
ATOM     13  OXT UNL     1       7.559   4.538  12.036  0.00  0.00    +0.000 OA
ATOM     14  HXT UNL     1       7.093   5.145  11.418  0.00  0.00    +0.000 HD
ENDBRANCH  11  13
ENDBRANCH   8  11
ENDBRANCH   2   5
BRANCH   3  15
ATOM     15  C   UNL     1       2.236   4.028  18.600  0.00  0.00    +0.000 A 
ATOM     16  C   UNL     1       1.212   3.106  18.669  0.00  0.00    +0.000 A 
ATOM     17  C   UNL     1       0.642   3.267  19.943  0.00  0.00    +0.000 A 
ATOM     18  N   UNL     1       1.248   4.218  20.649  0.00  0.00    +0.000 NA
ATOM     19  N   UNL     1       2.220   4.674  19.824  0.00  0.00    +0.000 N 
BRANCH  19  20
ATOM     20  C   UNL     1       2.969   5.856  20.240  0.00  0.00    +0.000 C 
BRANCH  20  21
ATOM     21  C   UNL     1       2.226   7.138  19.945  0.00  0.00    +0.000 A 
ATOM     22  C   UNL     1       1.388   7.728  20.910  0.00  0.00    +0.000 A 
ATOM     23  C   UNL     1       0.739   8.941  20.653  0.00  0.00    +0.000 A 
ATOM     24  C   UNL     1       0.912   9.573  19.423  0.00  0.00    +0.000 A 
ATOM     25 CL   UNL     1       0.171  11.099  19.139  0.00  0.00    +0.000 Cl
ATOM     26  C   UNL     1       1.695   8.968  18.446  0.00  0.00    +0.000 A 
ATOM     27  F   UNL     1       1.867   9.544  17.247  0.00  0.00    +0.000 F 
ATOM     28  C   UNL     1       2.341   7.755  18.693  0.00  0.00    +0.000 A 
ENDBRANCH  20  21
ENDBRANCH  19  20
ENDBRANCH   3  15
TORSDOF 6
ENDMDL
MODEL 4
REMARK VINA RESULT:      -8.1      4.125      6.947
REMARK  Name = 
REMARK  6 active torsions:
REMARK  status: ('A' for Active; 'I' for Inactive)
REMARK    1  A    between atoms: C_2  and  C_18
REMARK    2  A    between atoms: N_3  and  C_4
REMARK    3  A    between atoms: N_8  and  C_9
REMARK    4  A    between atoms: C_9  and  C_10
REMARK    5  A    between atoms: CA_21  and  C_22
REMARK    6  A    between atoms: C_22  and  OXT_24
REMARK                            x       y       z     vdW  Elec       q    Type
REMARK                         _______ _______ _______ _____ _____    ______ ____
ROOT
ATOM      1  O   UNL     1       3.830   5.901  19.860  0.00  0.00    +0.000 OA
ATOM      2  C   UNL     1       2.785   6.097  19.261  0.00  0.00    +0.000 C 
ATOM      3  N   UNL     1       2.156   5.065  18.473  0.00  0.00    +0.000 N 
ATOM      4  H   UNL     1       1.373   5.300  17.879  0.00  0.00    +0.000 HD
ENDROOT
BRANCH   2   5
ATOM      5  C   UNL     1       2.173   7.440  19.237  0.00  0.00    +0.000 A 
ATOM      6  C   UNL     1       1.594   8.040  20.355  0.00  0.00    +0.000 A 
ATOM      7  C   UNL     1       1.055   9.323  20.234  0.00  0.00    +0.000 A 
ATOM      8  CA  UNL     1       1.107   9.956  18.995  0.00  0.00    +0.000 A 
ATOM      9  N   UNL     1       1.672   9.398  17.885  0.00  0.00    +0.000 NA
ATOM     10  C   UNL     1       2.205   8.159  18.041  0.00  0.00    +0.000 A 
BRANCH   8  11
ATOM     11  C   UNL     1       0.527  11.318  18.827  0.00  0.00    +0.000 C 
ATOM     12  O   UNL     1       0.930  12.309  19.414  0.00  0.00    +0.000 OA
BRANCH  11  13
ATOM     13  OXT UNL     1      -0.504  11.310  17.952  0.00  0.00    +0.000 OA
ATOM     14  HXT UNL     1      -1.105  12.068  18.128  0.00  0.00    +0.000 HD
ENDBRANCH  11  13
ENDBRANCH   8  11
ENDBRANCH   2   5
BRANCH   3  15
ATOM     15  C   UNL     1       2.644   3.754  18.424  0.00  0.00    +0.000 A 
ATOM     16  C   UNL     1       2.425   2.749  19.344  0.00  0.00    +0.000 A 
ATOM     17  C   UNL     1       3.121   1.630  18.856  0.00  0.00    +0.000 A 
ATOM     18  N   UNL     1       3.743   1.887  17.708  0.00  0.00    +0.000 NA
ATOM     19  N   UNL     1       3.444   3.181  17.451  0.00  0.00    +0.000 N 
BRANCH  19  20
ATOM     20  C   UNL     1       4.122   3.829  16.333  0.00  0.00    +0.000 C 
BRANCH  20  21
ATOM     21  C   UNL     1       5.178   4.806  16.791  0.00  0.00    +0.000 A 
ATOM     22  C   UNL     1       5.055   6.183  16.528  0.00  0.00    +0.000 A 
ATOM     23  C   UNL     1       6.009   7.094  16.996  0.00  0.00    +0.000 A 
ATOM     24  C   UNL     1       7.107   6.635  17.722  0.00  0.00    +0.000 A 
ATOM     25 CL   UNL     1       8.239   7.763  18.356  0.00  0.00    +0.000 Cl
ATOM     26  C   UNL     1       7.263   5.270  17.938  0.00  0.00    +0.000 A 
ATOM     27  F   UNL     1       8.318   4.797  18.620  0.00  0.00    +0.000 F 
ATOM     28  C   UNL     1       6.318   4.356  17.470  0.00  0.00    +0.000 A 
ENDBRANCH  20  21
ENDBRANCH  19  20
ENDBRANCH   3  15
TORSDOF 6
ENDMDL
MODEL 5
REMARK VINA RESULT:      -8.0      4.006      7.353
REMARK  Name = 
REMARK  6 active torsions:
REMARK  status: ('A' for Active; 'I' for Inactive)
REMARK    1  A    between atoms: C_2  and  C_18
REMARK    2  A    between atoms: N_3  and  C_4
REMARK    3  A    between atoms: N_8  and  C_9
REMARK    4  A    between atoms: C_9  and  C_10
REMARK    5  A    between atoms: CA_21  and  C_22
REMARK    6  A    between atoms: C_22  and  OXT_24
REMARK                            x       y       z     vdW  Elec       q    Type
REMARK                         _______ _______ _______ _____ _____    ______ ____
ROOT
ATOM      1  O   UNL     1       4.111   6.100  19.310  0.00  0.00    +0.000 OA
ATOM      2  C   UNL     1       3.611   6.747  18.404  0.00  0.00    +0.000 C 
ATOM      3  N   UNL     1       4.076   6.633  17.043  0.00  0.00    +0.000 N 
ATOM      4  H   UNL     1       3.739   7.283  16.346  0.00  0.00    +0.000 HD
ENDROOT
BRANCH   2   5
ATOM      5  C   UNL     1       2.573   7.756  18.686  0.00  0.00    +0.000 A 
ATOM      6  C   UNL     1       2.105   8.663  17.734  0.00  0.00    +0.000 A 
ATOM      7  C   UNL     1       1.107   9.571  18.094  0.00  0.00    +0.000 A 
ATOM      8  CA  UNL     1       0.618   9.544  19.398  0.00  0.00    +0.000 A 
ATOM      9  N   UNL     1       1.050   8.667  20.350  0.00  0.00    +0.000 NA
ATOM     10  C   UNL     1       2.006   7.784  19.961  0.00  0.00    +0.000 A 
BRANCH   8  11
ATOM     11  C   UNL     1      -0.436  10.510  19.820  0.00  0.00    +0.000 C 
ATOM     12  O   UNL     1      -0.417  11.124  20.874  0.00  0.00    +0.000 OA
BRANCH  11  13
ATOM     13  OXT UNL     1      -1.414  10.608  18.892  0.00  0.00    +0.000 OA
ATOM     14  HXT UNL     1      -1.044  10.459  17.992  0.00  0.00    +0.000 HD
ENDBRANCH  11  13
ENDBRANCH   8  11
ENDBRANCH   2   5
BRANCH   3  15
ATOM     15  C   UNL     1       5.053   5.708  16.657  0.00  0.00    +0.000 A 
ATOM     16  C   UNL     1       6.383   5.961  16.394  0.00  0.00    +0.000 A 
ATOM     17  C   UNL     1       6.944   4.720  16.047  0.00  0.00    +0.000 A 
ATOM     18  N   UNL     1       6.049   3.736  16.084  0.00  0.00    +0.000 NA
ATOM     19  N   UNL     1       4.901   4.346  16.460  0.00  0.00    +0.000 N 
BRANCH  19  20
ATOM     20  C   UNL     1       3.670   3.562  16.430  0.00  0.00    +0.000 C 
BRANCH  20  21
ATOM     21  C   UNL     1       3.093   3.347  17.808  0.00  0.00    +0.000 A 
ATOM     22  C   UNL     1       1.753   3.673  18.091  0.00  0.00    +0.000 A 
ATOM     23  C   UNL     1       1.205   3.428  19.356  0.00  0.00    +0.000 A 
ATOM     24  C   UNL     1       1.995   2.866  20.356  0.00  0.00    +0.000 A 
ATOM     25 CL   UNL     1       1.299   2.501  21.886  0.00  0.00    +0.000 Cl
ATOM     26  C   UNL     1       3.335   2.593  20.100  0.00  0.00    +0.000 A 
ATOM     27  F   UNL     1       4.124   2.067  21.048  0.00  0.00    +0.000 F 
ATOM     28  C   UNL     1       3.889   2.840  18.843  0.00  0.00    +0.000 A 
ENDBRANCH  20  21
ENDBRANCH  19  20
ENDBRANCH   3  15
TORSDOF 6
ENDMDL
MODEL 6
REMARK VINA RESULT:      -7.9      1.659      2.051
REMARK  Name = 
REMARK  6 active torsions:
REMARK  status: ('A' for Active; 'I' for Inactive)
REMARK    1  A    between atoms: C_2  and  C_18
REMARK    2  A    between atoms: N_3  and  C_4
REMARK    3  A    between atoms: N_8  and  C_9
REMARK    4  A    between atoms: C_9  and  C_10
REMARK    5  A    between atoms: CA_21  and  C_22
REMARK    6  A    between atoms: C_22  and  OXT_24
REMARK                            x       y       z     vdW  Elec       q    Type
REMARK                         _______ _______ _______ _____ _____    ______ ____
ROOT
ATOM      1  O   UNL     1       5.360   5.153  18.814  0.00  0.00    +0.000 OA
ATOM      2  C   UNL     1       5.216   4.295  17.958  0.00  0.00    +0.000 C 
ATOM      3  N   UNL     1       4.552   3.045  18.238  0.00  0.00    +0.000 N 
ATOM      4  H   UNL     1       4.576   2.304  17.552  0.00  0.00    +0.000 HD
ENDROOT
BRANCH   2   5
ATOM      5  C   UNL     1       5.814   4.462  16.619  0.00  0.00    +0.000 A 
ATOM      6  C   UNL     1       5.283   3.886  15.465  0.00  0.00    +0.000 A 
ATOM      7  C   UNL     1       5.913   4.117  14.239  0.00  0.00    +0.000 A 
ATOM      8  CA  UNL     1       7.059   4.909  14.216  0.00  0.00    +0.000 A 
ATOM      9  N   UNL     1       7.599   5.490  15.326  0.00  0.00    +0.000 NA
ATOM     10  C   UNL     1       6.950   5.263  16.497  0.00  0.00    +0.000 A 
BRANCH   8  11
ATOM     11  C   UNL     1       7.765   5.162  12.928  0.00  0.00    +0.000 C 
ATOM     12  O   UNL     1       7.455   4.648  11.866  0.00  0.00    +0.000 OA
BRANCH  11  13
ATOM     13  OXT UNL     1       8.795   6.023  13.092  0.00  0.00    +0.000 OA
ATOM     14  HXT UNL     1       8.536   6.923  12.790  0.00  0.00    +0.000 HD
ENDBRANCH  11  13
ENDBRANCH   8  11
ENDBRANCH   2   5
BRANCH   3  15
ATOM     15  C   UNL     1       3.945   2.777  19.470  0.00  0.00    +0.000 A 
ATOM     16  C   UNL     1       4.471   2.051  20.519  0.00  0.00    +0.000 A 
ATOM     17  C   UNL     1       3.486   2.064  21.522  0.00  0.00    +0.000 A 
ATOM     18  N   UNL     1       2.404   2.747  21.154  0.00  0.00    +0.000 NA
ATOM     19  N   UNL     1       2.694   3.180  19.906  0.00  0.00    +0.000 N 
BRANCH  19  20
ATOM     20  C   UNL     1       1.630   3.826  19.144  0.00  0.00    +0.000 C 
BRANCH  20  21
ATOM     21  C   UNL     1       1.846   5.314  19.004  0.00  0.00    +0.000 A 
ATOM     22  C   UNL     1       2.116   5.893  17.750  0.00  0.00    +0.000 A 
ATOM     23  C   UNL     1       2.268   7.278  17.615  0.00  0.00    +0.000 A 
ATOM     24  C   UNL     1       2.163   8.099  18.736  0.00  0.00    +0.000 A 
ATOM     25 CL   UNL     1       2.280   9.806  18.554  0.00  0.00    +0.000 Cl
ATOM     26  C   UNL     1       1.952   7.529  19.986  0.00  0.00    +0.000 A 
ATOM     27  F   UNL     1       1.863   8.292  21.086  0.00  0.00    +0.000 F 
ATOM     28  C   UNL     1       1.804   6.148  20.129  0.00  0.00    +0.000 A 
ENDBRANCH  20  21
ENDBRANCH  19  20
ENDBRANCH   3  15
TORSDOF 6
ENDMDL
MODEL 7
REMARK VINA RESULT:      -7.9      1.099      1.742
REMARK  Name = 
REMARK  6 active torsions:
REMARK  status: ('A' for Active; 'I' for Inactive)
REMARK    1  A    between atoms: C_2  and  C_18
REMARK    2  A    between atoms: N_3  and  C_4
REMARK    3  A    between atoms: N_8  and  C_9
REMARK    4  A    between atoms: C_9  and  C_10
REMARK    5  A    between atoms: CA_21  and  C_22
REMARK    6  A    between atoms: C_22  and  OXT_24
REMARK                            x       y       z     vdW  Elec       q    Type
REMARK                         _______ _______ _______ _____ _____    ______ ____
ROOT
ATOM      1  O   UNL     1       4.989   3.351  18.675  0.00  0.00    +0.000 OA
ATOM      2  C   UNL     1       4.552   3.942  17.700  0.00  0.00    +0.000 C 
ATOM      3  N   UNL     1       3.153   4.266  17.572  0.00  0.00    +0.000 N 
ATOM      4  H   UNL     1       2.803   4.626  16.694  0.00  0.00    +0.000 HD
ENDROOT
BRANCH   2   5
ATOM      5  C   UNL     1       5.431   4.257  16.557  0.00  0.00    +0.000 A 
ATOM      6  C   UNL     1       6.758   4.663  16.699  0.00  0.00    +0.000 A 
ATOM      7  C   UNL     1       7.515   4.923  15.554  0.00  0.00    +0.000 A 
ATOM      8  CA  UNL     1       6.912   4.775  14.307  0.00  0.00    +0.000 A 
ATOM      9  N   UNL     1       5.619   4.374  14.135  0.00  0.00    +0.000 NA
ATOM     10  C   UNL     1       4.918   4.110  15.268  0.00  0.00    +0.000 A 
BRANCH   8  11
ATOM     11  C   UNL     1       7.685   5.060  13.065  0.00  0.00    +0.000 C 
ATOM     12  O   UNL     1       7.429   4.576  11.975  0.00  0.00    +0.000 OA
BRANCH  11  13
ATOM     13  OXT UNL     1       8.708   5.911  13.307  0.00  0.00    +0.000 OA
ATOM     14  HXT UNL     1       8.755   6.121  14.267  0.00  0.00    +0.000 HD
ENDBRANCH  11  13
ENDBRANCH   8  11
ENDBRANCH   2   5
BRANCH   3  15
ATOM     15  C   UNL     1       2.227   4.019  18.592  0.00  0.00    +0.000 A 
ATOM     16  C   UNL     1       1.193   3.105  18.577  0.00  0.00    +0.000 A 
ATOM     17  C   UNL     1       0.553   3.234  19.821  0.00  0.00    +0.000 A 
ATOM     18  N   UNL     1       1.128   4.159  20.588  0.00  0.00    +0.000 NA
ATOM     19  N   UNL     1       2.148   4.628  19.833  0.00  0.00    +0.000 N 
BRANCH  19  20
ATOM     20  C   UNL     1       2.882   5.790  20.324  0.00  0.00    +0.000 C 
BRANCH  20  21
ATOM     21  C   UNL     1       2.179   7.089  20.006  0.00  0.00    +0.000 A 
ATOM     22  C   UNL     1       1.368   7.727  20.963  0.00  0.00    +0.000 A 
ATOM     23  C   UNL     1       0.757   8.955  20.684  0.00  0.00    +0.000 A 
ATOM     24  C   UNL     1       0.941   9.554  19.439  0.00  0.00    +0.000 A 
ATOM     25 CL   UNL     1       0.248  11.096  19.126  0.00  0.00    +0.000 Cl
ATOM     26  C   UNL     1       1.697   8.902  18.471  0.00  0.00    +0.000 A 
ATOM     27  F   UNL     1       1.879   9.446  17.258  0.00  0.00    +0.000 F 
ATOM     28  C   UNL     1       2.305   7.675  18.740  0.00  0.00    +0.000 A 
ENDBRANCH  20  21
ENDBRANCH  19  20
ENDBRANCH   3  15
TORSDOF 6
ENDMDL
MODEL 8
REMARK VINA RESULT:      -7.9      3.845      7.290
REMARK  Name = 
REMARK  6 active torsions:
REMARK  status: ('A' for Active; 'I' for Inactive)
REMARK    1  A    between atoms: C_2  and  C_18
REMARK    2  A    between atoms: N_3  and  C_4
REMARK    3  A    between atoms: N_8  and  C_9
REMARK    4  A    between atoms: C_9  and  C_10
REMARK    5  A    between atoms: CA_21  and  C_22
REMARK    6  A    between atoms: C_22  and  OXT_24
REMARK                            x       y       z     vdW  Elec       q    Type
REMARK                         _______ _______ _______ _____ _____    ______ ____
ROOT
ATOM      1  O   UNL     1       4.077   6.043  19.292  0.00  0.00    +0.000 OA
ATOM      2  C   UNL     1       3.602   6.721  18.396  0.00  0.00    +0.000 C 
ATOM      3  N   UNL     1       4.087   6.637  17.040  0.00  0.00    +0.000 N 
ATOM      4  H   UNL     1       3.772   7.310  16.355  0.00  0.00    +0.000 HD
ENDROOT
BRANCH   2   5
ATOM      5  C   UNL     1       2.574   7.739  18.688  0.00  0.00    +0.000 A 
ATOM      6  C   UNL     1       2.116   8.660  17.745  0.00  0.00    +0.000 A 
ATOM      7  C   UNL     1       1.128   9.575  18.115  0.00  0.00    +0.000 A 
ATOM      8  CA  UNL     1       0.639   9.541  19.419  0.00  0.00    +0.000 A 
ATOM      9  N   UNL     1       1.062   8.650  20.362  0.00  0.00    +0.000 NA
ATOM     10  C   UNL     1       2.009   7.761  19.964  0.00  0.00    +0.000 A 
BRANCH   8  11
ATOM     11  C   UNL     1      -0.404  10.514  19.851  0.00  0.00    +0.000 C 
ATOM     12  O   UNL     1      -0.319  11.207  20.851  0.00  0.00    +0.000 OA
BRANCH  11  13
ATOM     13  OXT UNL     1      -1.454  10.520  18.999  0.00  0.00    +0.000 OA
ATOM     14  HXT UNL     1      -2.150  11.136  19.322  0.00  0.00    +0.000 HD
ENDBRANCH  11  13
ENDBRANCH   8  11
ENDBRANCH   2   5
BRANCH   3  15
ATOM     15  C   UNL     1       5.055   5.707  16.645  0.00  0.00    +0.000 A 
ATOM     16  C   UNL     1       6.388   5.951  16.380  0.00  0.00    +0.000 A 
ATOM     17  C   UNL     1       6.938   4.709  16.023  0.00  0.00    +0.000 A 
ATOM     18  N   UNL     1       6.035   3.732  16.054  0.00  0.00    +0.000 NA
ATOM     19  N   UNL     1       4.893   4.348  16.437  0.00  0.00    +0.000 N 
BRANCH  19  20
ATOM     20  C   UNL     1       3.656   3.574  16.403  0.00  0.00    +0.000 C 
BRANCH  20  21
ATOM     21  C   UNL     1       3.142   3.252  17.786  0.00  0.00    +0.000 A 
ATOM     22  C   UNL     1       3.960   2.604  18.730  0.00  0.00    +0.000 A 
ATOM     23  C   UNL     1       3.500   2.350  20.028  0.00  0.00    +0.000 A 
ATOM     24  C   UNL     1       2.210   2.731  20.392  0.00  0.00    +0.000 A 
ATOM     25 CL   UNL     1       1.673   2.482  22.007  0.00  0.00    +0.000 Cl
ATOM     26  C   UNL     1       1.377   3.322  19.447  0.00  0.00    +0.000 A 
ATOM     27  F   UNL     1       0.125   3.685  19.763  0.00  0.00    +0.000 F 
ATOM     28  C   UNL     1       1.828   3.573  18.150  0.00  0.00    +0.000 A 
ENDBRANCH  20  21
ENDBRANCH  19  20
ENDBRANCH   3  15
TORSDOF 6
ENDMDL
MODEL 9
REMARK VINA RESULT:      -7.8      3.939      7.264
REMARK  Name = 
REMARK  6 active torsions:
REMARK  status: ('A' for Active; 'I' for Inactive)
REMARK    1  A    between atoms: C_2  and  C_18
REMARK    2  A    between atoms: N_3  and  C_4
REMARK    3  A    between atoms: N_8  and  C_9
REMARK    4  A    between atoms: C_9  and  C_10
REMARK    5  A    between atoms: CA_21  and  C_22
REMARK    6  A    between atoms: C_22  and  OXT_24
REMARK                            x       y       z     vdW  Elec       q    Type
REMARK                         _______ _______ _______ _____ _____    ______ ____
ROOT
ATOM      1  O   UNL     1       4.003   6.038  19.394  0.00  0.00    +0.000 OA
ATOM      2  C   UNL     1       3.572   6.746  18.498  0.00  0.00    +0.000 C 
ATOM      3  N   UNL     1       4.114   6.696  17.162  0.00  0.00    +0.000 N 
ATOM      4  H   UNL     1       3.833   7.392  16.485  0.00  0.00    +0.000 HD
ENDROOT
BRANCH   2   5
ATOM      5  C   UNL     1       2.541   7.765  18.777  0.00  0.00    +0.000 A 
ATOM      6  C   UNL     1       1.928   7.915  20.021  0.00  0.00    +0.000 A 
ATOM      7  C   UNL     1       0.974   8.921  20.190  0.00  0.00    +0.000 A 
ATOM      8  CA  UNL     1       0.662   9.736  19.104  0.00  0.00    +0.000 A 
ATOM      9  N   UNL     1       1.249   9.619  17.878  0.00  0.00    +0.000 NA
ATOM     10  C   UNL     1       2.187   8.644  17.753  0.00  0.00    +0.000 A 
BRANCH   8  11
ATOM     11  C   UNL     1      -0.362  10.809  19.245  0.00  0.00    +0.000 C 
ATOM     12  O   UNL     1      -1.039  10.981  20.247  0.00  0.00    +0.000 OA
BRANCH  11  13
ATOM     13  OXT UNL     1      -0.450  11.557  18.122  0.00  0.00    +0.000 OA
ATOM     14  HXT UNL     1       0.140  12.342  18.190  0.00  0.00    +0.000 HD
ENDBRANCH  11  13
ENDBRANCH   8  11
ENDBRANCH   2   5
BRANCH   3  15
ATOM     15  C   UNL     1       5.090   5.769  16.782  0.00  0.00    +0.000 A 
ATOM     16  C   UNL     1       6.428   6.015  16.548  0.00  0.00    +0.000 A 
ATOM     17  C   UNL     1       6.985   4.775  16.193  0.00  0.00    +0.000 A 
ATOM     18  N   UNL     1       6.082   3.798  16.198  0.00  0.00    +0.000 NA
ATOM     19  N   UNL     1       4.932   4.411  16.560  0.00  0.00    +0.000 N 
BRANCH  19  20
ATOM     20  C   UNL     1       3.696   3.638  16.494  0.00  0.00    +0.000 C 
BRANCH  20  21
ATOM     21  C   UNL     1       3.170   3.279  17.863  0.00  0.00    +0.000 A 
ATOM     22  C   UNL     1       4.003   2.677  18.825  0.00  0.00    +0.000 A 
ATOM     23  C   UNL     1       3.528   2.389  20.110  0.00  0.00    +0.000 A 
ATOM     24  C   UNL     1       2.209   2.689  20.444  0.00  0.00    +0.000 A 
ATOM     25 CL   UNL     1       1.650   2.399  22.044  0.00  0.00    +0.000 Cl
ATOM     26  C   UNL     1       1.365   3.232  19.481  0.00  0.00    +0.000 A 
ATOM     27  F   UNL     1       0.085   3.516  19.768  0.00  0.00    +0.000 F 
ATOM     28  C   UNL     1       1.830   3.517  18.197  0.00  0.00    +0.000 A 
ENDBRANCH  20  21
ENDBRANCH  19  20
ENDBRANCH   3  15
TORSDOF 6
ENDMDL
