MODEL 1
REMARK VINA RESULT:      -7.1      0.000      0.000
REMARK  Name = 
REMARK  8 active torsions:
REMARK  status: ('A' for Active; 'I' for Inactive)
REMARK    1  A    between atoms: C_1  and  C_2
REMARK    2  A    between atoms: C_5  and  C_6
REMARK    3  A    between atoms: N_8  and  C_9
REMARK    4  A    between atoms: C_12  and  C_13
REMARK    5  A    between atoms: C_13  and  O_15
REMARK    6  A    between atoms: C_17  and  N_18
REMARK    7  A    between atoms: C_19  and  C_21
REMARK    8  A    between atoms: C_24  and  C_25
REMARK                            x       y       z     vdW  Elec       q    Type
REMARK                         _______ _______ _______ _____ _____    ______ ____
ROOT
ATOM      1  C   UNL     1      -0.010  13.778  21.644  0.00  0.00    +0.000 A 
ATOM      2  C   UNL     1      -0.705  14.805  22.316  0.00  0.00    +0.000 A 
ATOM      3  C   UNL     1      -1.802  14.550  23.140  0.00  0.00    +0.000 A 
ATOM      4  C   UNL     1      -2.271  13.250  23.273  0.00  0.00    +0.000 A 
ATOM      5  C   UNL     1      -1.604  12.217  22.607  0.00  0.00    +0.000 A 
ATOM      6  C   UNL     1      -0.480  12.446  21.791  0.00  0.00    +0.000 A 
ENDROOT
BRANCH   1   9
ATOM      7  C   UNL     1       2.362  14.508  21.301  0.00  0.00    +0.000 C 
ATOM      8  O   UNL     1       2.686  14.620  22.479  0.00  0.00    +0.000 OA
ATOM      9  N   UNL     1       1.117  14.098  20.821  0.00  0.00    +0.000 N 
ATOM     10  H   UNL     1       1.034  13.919  19.834  0.00  0.00    +0.000 HD
BRANCH   7  15
ATOM     11  C   UNL     1       6.905  14.972  17.749  0.00  0.00    +0.000 C 
ATOM     12  C   UNL     1       5.685  14.956  18.624  0.00  0.00    +0.000 A 
ATOM     13  C   UNL     1       5.777  15.319  19.969  0.00  0.00    +0.000 A 
ATOM     14  C   UNL     1       4.664  15.210  20.797  0.00  0.00    +0.000 A 
ATOM     15  C   UNL     1       3.447  14.714  20.304  0.00  0.00    +0.000 A 
ATOM     16  C   UNL     1       3.324  14.422  18.944  0.00  0.00    +0.000 A 
ATOM     17  C   UNL     1       4.445  14.538  18.111  0.00  0.00    +0.000 A 
ENDBRANCH   7  15
ENDBRANCH   1   9
BRANCH   6  18
ATOM     18  N   UNL     1       0.200  11.326  21.210  0.00  0.00    +0.000 N 
ATOM     19  C   UNL     1       0.022  10.859  19.902  0.00  0.00    +0.000 C 
ATOM     20  O   UNL     1      -0.654  11.404  19.039  0.00  0.00    +0.000 OA
ATOM     21  H   UNL     1       0.792  10.793  21.826  0.00  0.00    +0.000 HD
BRANCH  19  22
ATOM     22  C   UNL     1       0.757   9.624  19.493  0.00  0.00    +0.000 A 
ATOM     23  C   UNL     1       1.164   9.510  18.150  0.00  0.00    +0.000 A 
ATOM     24  C   UNL     1       1.998   8.464  17.739  0.00  0.00    +0.000 A 
ATOM     25  C   UNL     1       2.467   7.532  18.666  0.00  0.00    +0.000 A 
ATOM     26  C   UNL     1       3.459   6.477  18.273  0.00  0.00    +0.000 C 
ATOM     27  C   UNL     1       2.024   7.618  19.996  0.00  0.00    +0.000 A 
ATOM     28  C   UNL     1       1.168   8.649  20.406  0.00  0.00    +0.000 A 
ENDBRANCH  19  22
ENDBRANCH   6  18
BRANCH   4  29
ATOM     29  C   UNL     1      -3.413  12.974  24.176  0.00  0.00    +0.000 C 
ATOM     30  O   UNL     1      -3.985  11.898  24.209  0.00  0.00    +0.000 OA
BRANCH  29  31
ATOM     31  O   UNL     1      -3.755  14.005  24.987  0.00  0.00    +0.000 OA
ATOM     32  H   UNL     1      -4.671  14.337  24.921  0.00  0.00    +0.000 HD
ENDBRANCH  29  31
ENDBRANCH   4  29
TORSDOF 6
ENDMDL
MODEL 2
REMARK VINA RESULT:      -7.0      2.637      6.523
REMARK  Name = 
REMARK  8 active torsions:
REMARK  status: ('A' for Active; 'I' for Inactive)
REMARK    1  A    between atoms: C_1  and  C_2
REMARK    2  A    between atoms: C_5  and  C_6
REMARK    3  A    between atoms: N_8  and  C_9
REMARK    4  A    between atoms: C_12  and  C_13
REMARK    5  A    between atoms: C_13  and  O_15
REMARK    6  A    between atoms: C_17  and  N_18
REMARK    7  A    between atoms: C_19  and  C_21
REMARK    8  A    between atoms: C_24  and  C_25
REMARK                            x       y       z     vdW  Elec       q    Type
REMARK                         _______ _______ _______ _____ _____    ______ ____
ROOT
ATOM      1  C   UNL     1       1.303  10.943  18.912  0.00  0.00    +0.000 A 
ATOM      2  C   UNL     1       1.910  10.147  17.919  0.00  0.00    +0.000 A 
ATOM      3  C   UNL     1       2.177   8.791  18.108  0.00  0.00    +0.000 A 
ATOM      4  C   UNL     1       1.887   8.200  19.332  0.00  0.00    +0.000 A 
ATOM      5  C   UNL     1       1.296   8.974  20.335  0.00  0.00    +0.000 A 
ATOM      6  C   UNL     1       0.993  10.338  20.158  0.00  0.00    +0.000 A 
ENDROOT
BRANCH   1   9
ATOM      7  C   UNL     1       1.599  13.389  19.371  0.00  0.00    +0.000 C 
ATOM      8  O   UNL     1       2.412  13.302  20.286  0.00  0.00    +0.000 OA
ATOM      9  N   UNL     1       1.041  12.328  18.656  0.00  0.00    +0.000 N 
ATOM     10  H   UNL     1       0.493  12.552  17.841  0.00  0.00    +0.000 HD
BRANCH   7  15
ATOM     11  C   UNL     1       0.629  18.616  17.090  0.00  0.00    +0.000 C 
ATOM     12  C   UNL     1       0.868  17.311  17.791  0.00  0.00    +0.000 A 
ATOM     13  C   UNL     1       2.163  16.803  17.915  0.00  0.00    +0.000 A 
ATOM     14  C   UNL     1       2.367  15.548  18.480  0.00  0.00    +0.000 A 
ATOM     15  C   UNL     1       1.283  14.768  18.910  0.00  0.00    +0.000 A 
ATOM     16  C   UNL     1      -0.008  15.299  18.862  0.00  0.00    +0.000 A 
ATOM     17  C   UNL     1      -0.211  16.566  18.297  0.00  0.00    +0.000 A 
ENDBRANCH   7  15
ENDBRANCH   1   9
BRANCH   6  18
ATOM     18  N   UNL     1       0.309  11.041  21.203  0.00  0.00    +0.000 N 
ATOM     19  C   UNL     1      -0.946  11.650  21.083  0.00  0.00    +0.000 C 
ATOM     20  O   UNL     1      -1.682  11.575  20.108  0.00  0.00    +0.000 OA
ATOM     21  H   UNL     1       0.816  11.168  22.064  0.00  0.00    +0.000 HD
BRANCH  19  22
ATOM     22  C   UNL     1      -1.469  12.412  22.258  0.00  0.00    +0.000 A 
ATOM     23  C   UNL     1      -0.742  13.537  22.693  0.00  0.00    +0.000 A 
ATOM     24  C   UNL     1      -1.259  14.391  23.674  0.00  0.00    +0.000 A 
ATOM     25  C   UNL     1      -2.524  14.154  24.215  0.00  0.00    +0.000 A 
ATOM     26  C   UNL     1      -3.150  15.123  25.176  0.00  0.00    +0.000 C 
ATOM     27  C   UNL     1      -3.228  13.007  23.817  0.00  0.00    +0.000 A 
ATOM     28  C   UNL     1      -2.702  12.137  22.853  0.00  0.00    +0.000 A 
ENDBRANCH  19  22
ENDBRANCH   6  18
BRANCH   4  29
ATOM     29  C   UNL     1       2.138   6.752  19.521  0.00  0.00    +0.000 C 
ATOM     30  O   UNL     1       2.495   6.019  18.616  0.00  0.00    +0.000 OA
BRANCH  29  31
ATOM     31  O   UNL     1       1.970   6.311  20.792  0.00  0.00    +0.000 OA
ATOM     32  H   UNL     1       2.576   6.669  21.469  0.00  0.00    +0.000 HD
ENDBRANCH  29  31
ENDBRANCH   4  29
TORSDOF 6
ENDMDL
MODEL 3
REMARK VINA RESULT:      -7.0      1.827      2.215
REMARK  Name = 
REMARK  8 active torsions:
REMARK  status: ('A' for Active; 'I' for Inactive)
REMARK    1  A    between atoms: C_1  and  C_2
REMARK    2  A    between atoms: C_5  and  C_6
REMARK    3  A    between atoms: N_8  and  C_9
REMARK    4  A    between atoms: C_12  and  C_13
REMARK    5  A    between atoms: C_13  and  O_15
REMARK    6  A    between atoms: C_17  and  N_18
REMARK    7  A    between atoms: C_19  and  C_21
REMARK    8  A    between atoms: C_24  and  C_25
REMARK                            x       y       z     vdW  Elec       q    Type
REMARK                         _______ _______ _______ _____ _____    ______ ____
ROOT
ATOM      1  C   UNL     1      -1.837  13.880  21.891  0.00  0.00    +0.000 A 
ATOM      2  C   UNL     1      -2.536  14.765  22.738  0.00  0.00    +0.000 A 
ATOM      3  C   UNL     1      -3.418  14.317  23.722  0.00  0.00    +0.000 A 
ATOM      4  C   UNL     1      -3.667  12.957  23.851  0.00  0.00    +0.000 A 
ATOM      5  C   UNL     1      -2.994  12.062  23.013  0.00  0.00    +0.000 A 
ATOM      6  C   UNL     1      -2.080  12.488  22.031  0.00  0.00    +0.000 A 
ENDROOT
BRANCH   1   9
ATOM      7  C   UNL     1       0.451  14.470  21.058  0.00  0.00    +0.000 C 
ATOM      8  O   UNL     1       1.099  14.077  22.023  0.00  0.00    +0.000 OA
ATOM      9  N   UNL     1      -0.934  14.397  20.907  0.00  0.00    +0.000 N 
ATOM     10  H   UNL     1      -1.318  14.631  20.006  0.00  0.00    +0.000 HD
BRANCH   7  15
ATOM     11  C   UNL     1       3.634  16.826  16.841  0.00  0.00    +0.000 C 
ATOM     12  C   UNL     1       2.756  16.146  17.851  0.00  0.00    +0.000 A 
ATOM     13  C   UNL     1       1.630  16.796  18.357  0.00  0.00    +0.000 A 
ATOM     14  C   UNL     1       0.875  16.199  19.363  0.00  0.00    +0.000 A 
ATOM     15  C   UNL     1       1.243  14.955  19.896  0.00  0.00    +0.000 A 
ATOM     16  C   UNL     1       2.322  14.262  19.342  0.00  0.00    +0.000 A 
ATOM     17  C   UNL     1       3.077  14.863  18.326  0.00  0.00    +0.000 A 
ENDBRANCH   7  15
ENDBRANCH   1   9
BRANCH   6  18
ATOM     18  N   UNL     1      -1.367  11.506  21.270  0.00  0.00    +0.000 N 
ATOM     19  C   UNL     1      -0.330  10.699  21.755  0.00  0.00    +0.000 C 
ATOM     20  O   UNL     1       0.039  10.642  22.921  0.00  0.00    +0.000 OA
ATOM     21  H   UNL     1      -1.584  11.455  20.288  0.00  0.00    +0.000 HD
BRANCH  19  22
ATOM     22  C   UNL     1       0.356   9.786  20.792  0.00  0.00    +0.000 A 
ATOM     23  C   UNL     1       0.473  10.203  19.453  0.00  0.00    +0.000 A 
ATOM     24  C   UNL     1       1.246   9.478  18.539  0.00  0.00    +0.000 A 
ATOM     25  C   UNL     1       1.943   8.342  18.954  0.00  0.00    +0.000 A 
ATOM     26  C   UNL     1       2.875   7.621  18.024  0.00  0.00    +0.000 C 
ATOM     27  C   UNL     1       1.789   7.898  20.277  0.00  0.00    +0.000 A 
ATOM     28  C   UNL     1       0.995   8.608  21.188  0.00  0.00    +0.000 A 
ENDBRANCH  19  22
ENDBRANCH   6  18
BRANCH   4  29
ATOM     29  C   UNL     1      -4.577  12.478  24.918  0.00  0.00    +0.000 C 
ATOM     30  O   UNL     1      -5.633  11.916  24.685  0.00  0.00    +0.000 OA
BRANCH  29  31
ATOM     31  O   UNL     1      -4.127  12.687  26.180  0.00  0.00    +0.000 OA
ATOM     32  H   UNL     1      -4.773  12.579  26.904  0.00  0.00    +0.000 HD
ENDBRANCH  29  31
ENDBRANCH   4  29
TORSDOF 6
ENDMDL
MODEL 4
REMARK VINA RESULT:      -7.0      1.173      5.577
REMARK  Name = 
REMARK  8 active torsions:
REMARK  status: ('A' for Active; 'I' for Inactive)
REMARK    1  A    between atoms: C_1  and  C_2
REMARK    2  A    between atoms: C_5  and  C_6
REMARK    3  A    between atoms: N_8  and  C_9
REMARK    4  A    between atoms: C_12  and  C_13
REMARK    5  A    between atoms: C_13  and  O_15
REMARK    6  A    between atoms: C_17  and  N_18
REMARK    7  A    between atoms: C_19  and  C_21
REMARK    8  A    between atoms: C_24  and  C_25
REMARK                            x       y       z     vdW  Elec       q    Type
REMARK                         _______ _______ _______ _____ _____    ______ ____
ROOT
ATOM      1  C   UNL     1      -0.781  11.960  22.279  0.00  0.00    +0.000 A 
ATOM      2  C   UNL     1      -1.965  11.567  22.937  0.00  0.00    +0.000 A 
ATOM      3  C   UNL     1      -2.773  12.473  23.625  0.00  0.00    +0.000 A 
ATOM      4  C   UNL     1      -2.384  13.804  23.718  0.00  0.00    +0.000 A 
ATOM      5  C   UNL     1      -1.208  14.212  23.083  0.00  0.00    +0.000 A 
ATOM      6  C   UNL     1      -0.390  13.322  22.361  0.00  0.00    +0.000 A 
ENDROOT
BRANCH   1   9
ATOM      7  C   UNL     1      -0.235  10.571  20.266  0.00  0.00    +0.000 C 
ATOM      8  O   UNL     1      -1.109  10.993  19.515  0.00  0.00    +0.000 OA
ATOM      9  N   UNL     1       0.001  10.987  21.577  0.00  0.00    +0.000 N 
ATOM     10  H   UNL     1       0.838  10.655  22.028  0.00  0.00    +0.000 HD
BRANCH   7  15
ATOM     11  C   UNL     1       3.177   6.440  18.085  0.00  0.00    +0.000 C 
ATOM     12  C   UNL     1       2.390   7.583  18.656  0.00  0.00    +0.000 A 
ATOM     13  C   UNL     1       2.020   7.581  20.002  0.00  0.00    +0.000 A 
ATOM     14  C   UNL     1       1.209   8.596  20.502  0.00  0.00    +0.000 A 
ATOM     15  C   UNL     1       0.734   9.615  19.664  0.00  0.00    +0.000 A 
ATOM     16  C   UNL     1       1.161   9.668  18.336  0.00  0.00    +0.000 A 
ATOM     17  C   UNL     1       1.983   8.649  17.836  0.00  0.00    +0.000 A 
ENDBRANCH   7  15
ENDBRANCH   1   9
BRANCH   6  18
ATOM     18  N   UNL     1       0.754  13.833  21.667  0.00  0.00    +0.000 N 
ATOM     19  C   UNL     1       0.782  14.215  20.320  0.00  0.00    +0.000 C 
ATOM     20  O   UNL     1      -0.189  14.268  19.577  0.00  0.00    +0.000 OA
ATOM     21  H   UNL     1       1.622  13.841  22.178  0.00  0.00    +0.000 HD
BRANCH  19  22
ATOM     22  C   UNL     1       2.090  14.649  19.742  0.00  0.00    +0.000 A 
ATOM     23  C   UNL     1       3.217  14.653  20.586  0.00  0.00    +0.000 A 
ATOM     24  C   UNL     1       4.498  14.885  20.072  0.00  0.00    +0.000 A 
ATOM     25  C   UNL     1       4.680  15.086  18.703  0.00  0.00    +0.000 A 
ATOM     26  C   UNL     1       6.055  15.214  18.113  0.00  0.00    +0.000 C 
ATOM     27  C   UNL     1       3.552  15.130  17.868  0.00  0.00    +0.000 A 
ATOM     28  C   UNL     1       2.265  14.922  18.383  0.00  0.00    +0.000 A 
ENDBRANCH  19  22
ENDBRANCH   6  18
BRANCH   4  29
ATOM     29  C   UNL     1      -3.259  14.773  24.419  0.00  0.00    +0.000 C 
ATOM     30  O   UNL     1      -2.847  15.823  24.881  0.00  0.00    +0.000 OA
BRANCH  29  31
ATOM     31  O   UNL     1      -4.566  14.414  24.480  0.00  0.00    +0.000 OA
ATOM     32  H   UNL     1      -5.218  15.134  24.578  0.00  0.00    +0.000 HD
ENDBRANCH  29  31
ENDBRANCH   4  29
TORSDOF 6
ENDMDL
MODEL 5
REMARK VINA RESULT:      -7.0      1.316      1.411
REMARK  Name = 
REMARK  8 active torsions:
REMARK  status: ('A' for Active; 'I' for Inactive)
REMARK    1  A    between atoms: C_1  and  C_2
REMARK    2  A    between atoms: C_5  and  C_6
REMARK    3  A    between atoms: N_8  and  C_9
REMARK    4  A    between atoms: C_12  and  C_13
REMARK    5  A    between atoms: C_13  and  O_15
REMARK    6  A    between atoms: C_17  and  N_18
REMARK    7  A    between atoms: C_19  and  C_21
REMARK    8  A    between atoms: C_24  and  C_25
REMARK                            x       y       z     vdW  Elec       q    Type
REMARK                         _______ _______ _______ _____ _____    ______ ____
ROOT
ATOM      1  C   UNL     1      -0.191  13.570  22.075  0.00  0.00    +0.000 A 
ATOM      2  C   UNL     1      -0.747  14.534  22.940  0.00  0.00    +0.000 A 
ATOM      3  C   UNL     1      -1.907  14.296  23.678  0.00  0.00    +0.000 A 
ATOM      4  C   UNL     1      -2.578  13.089  23.528  0.00  0.00    +0.000 A 
ATOM      5  C   UNL     1      -2.050  12.123  22.667  0.00  0.00    +0.000 A 
ATOM      6  C   UNL     1      -0.868  12.330  21.931  0.00  0.00    +0.000 A 
ENDROOT
BRANCH   1   9
ATOM      7  C   UNL     1       1.055  14.504  20.111  0.00  0.00    +0.000 C 
ATOM      8  O   UNL     1       0.095  14.932  19.478  0.00  0.00    +0.000 OA
ATOM      9  N   UNL     1       1.010  13.866  21.352  0.00  0.00    +0.000 N 
ATOM     10  H   UNL     1       1.885  13.691  21.818  0.00  0.00    +0.000 HD
BRANCH   7  15
ATOM     11  C   UNL     1       6.483  15.588  18.431  0.00  0.00    +0.000 C 
ATOM     12  C   UNL     1       5.038  15.374  18.774  0.00  0.00    +0.000 A 
ATOM     13  C   UNL     1       4.451  16.080  19.825  0.00  0.00    +0.000 A 
ATOM     14  C   UNL     1       3.138  15.806  20.199  0.00  0.00    +0.000 A 
ATOM     15  C   UNL     1       2.397  14.810  19.546  0.00  0.00    +0.000 A 
ATOM     16  C   UNL     1       2.949  14.154  18.443  0.00  0.00    +0.000 A 
ATOM     17  C   UNL     1       4.269  14.435  18.065  0.00  0.00    +0.000 A 
ENDBRANCH   7  15
ENDBRANCH   1   9
BRANCH   6  18
ATOM     18  N   UNL     1      -0.345  11.259  21.135  0.00  0.00    +0.000 N 
ATOM     19  C   UNL     1       0.435  10.199  21.614  0.00  0.00    +0.000 C 
ATOM     20  O   UNL     1       0.688   9.978  22.791  0.00  0.00    +0.000 OA
ATOM     21  H   UNL     1      -0.491  11.328  20.141  0.00  0.00    +0.000 HD
BRANCH  19  22
ATOM     22  C   UNL     1       0.963   9.215  20.621  0.00  0.00    +0.000 A 
ATOM     23  C   UNL     1       1.092   9.630  19.282  0.00  0.00    +0.000 A 
ATOM     24  C   UNL     1       1.734   8.821  18.338  0.00  0.00    +0.000 A 
ATOM     25  C   UNL     1       2.284   7.597  18.720  0.00  0.00    +0.000 A 
ATOM     26  C   UNL     1       3.083   6.770  17.753  0.00  0.00    +0.000 C 
ATOM     27  C   UNL     1       2.114   7.160  20.043  0.00  0.00    +0.000 A 
ATOM     28  C   UNL     1       1.451   7.957  20.986  0.00  0.00    +0.000 A 
ENDBRANCH  19  22
ENDBRANCH   6  18
BRANCH   4  29
ATOM     29  C   UNL     1      -3.789  12.822  24.338  0.00  0.00    +0.000 C 
ATOM     30  O   UNL     1      -4.536  11.884  24.121  0.00  0.00    +0.000 OA
BRANCH  29  31
ATOM     31  O   UNL     1      -3.987  13.688  25.363  0.00  0.00    +0.000 OA
ATOM     32  H   UNL     1      -3.213  14.198  25.667  0.00  0.00    +0.000 HD
ENDBRANCH  29  31
ENDBRANCH   4  29
TORSDOF 6
ENDMDL
MODEL 6
REMARK VINA RESULT:      -6.9      2.288      7.324
REMARK  Name = 
REMARK  8 active torsions:
REMARK  status: ('A' for Active; 'I' for Inactive)
REMARK    1  A    between atoms: C_1  and  C_2
REMARK    2  A    between atoms: C_5  and  C_6
REMARK    3  A    between atoms: N_8  and  C_9
REMARK    4  A    between atoms: C_12  and  C_13
REMARK    5  A    between atoms: C_13  and  O_15
REMARK    6  A    between atoms: C_17  and  N_18
REMARK    7  A    between atoms: C_19  and  C_21
REMARK    8  A    between atoms: C_24  and  C_25
REMARK                            x       y       z     vdW  Elec       q    Type
REMARK                         _______ _______ _______ _____ _____    ______ ____
ROOT
ATOM      1  C   UNL     1       1.903  13.409  19.098  0.00  0.00    +0.000 A 
ATOM      2  C   UNL     1       2.885  13.894  18.211  0.00  0.00    +0.000 A 
ATOM      3  C   UNL     1       2.942  15.232  17.818  0.00  0.00    +0.000 A 
ATOM      4  C   UNL     1       1.974  16.120  18.269  0.00  0.00    +0.000 A 
ATOM      5  C   UNL     1       0.983  15.657  19.141  0.00  0.00    +0.000 A 
ATOM      6  C   UNL     1       0.920  14.318  19.571  0.00  0.00    +0.000 A 
ENDROOT
BRANCH   1   9
ATOM      7  C   UNL     1       0.962  11.086  19.050  0.00  0.00    +0.000 C 
ATOM      8  O   UNL     1       0.034  11.286  18.273  0.00  0.00    +0.000 OA
ATOM      9  N   UNL     1       1.901  12.027  19.476  0.00  0.00    +0.000 N 
ATOM     10  H   UNL     1       2.690  11.692  20.005  0.00  0.00    +0.000 HD
BRANCH   7  15
ATOM     11  C   UNL     1       2.305   5.667  20.564  0.00  0.00    +0.000 C 
ATOM     12  C   UNL     1       1.843   7.036  20.156  0.00  0.00    +0.000 A 
ATOM     13  C   UNL     1       2.111   7.516  18.873  0.00  0.00    +0.000 A 
ATOM     14  C   UNL     1       1.765   8.821  18.533  0.00  0.00    +0.000 A 
ATOM     15  C   UNL     1       1.166   9.674  19.472  0.00  0.00    +0.000 A 
ATOM     16  C   UNL     1       0.824   9.178  20.731  0.00  0.00    +0.000 A 
ATOM     17  C   UNL     1       1.169   7.862  21.070  0.00  0.00    +0.000 A 
ENDBRANCH   7  15
ENDBRANCH   1   9
BRANCH   6  18
ATOM     18  N   UNL     1      -0.074  13.940  20.532  0.00  0.00    +0.000 N 
ATOM     19  C   UNL     1       0.075  14.010  21.922  0.00  0.00    +0.000 C 
ATOM     20  O   UNL     1       1.028  14.503  22.511  0.00  0.00    +0.000 OA
ATOM     21  H   UNL     1      -0.913  13.520  20.166  0.00  0.00    +0.000 HD
BRANCH  19  22
ATOM     22  C   UNL     1      -1.041  13.494  22.772  0.00  0.00    +0.000 A 
ATOM     23  C   UNL     1      -1.774  14.422  23.535  0.00  0.00    +0.000 A 
ATOM     24  C   UNL     1      -2.932  14.034  24.219  0.00  0.00    +0.000 A 
ATOM     25  C   UNL     1      -3.396  12.721  24.128  0.00  0.00    +0.000 A 
ATOM     26  C   UNL     1      -4.700  12.312  24.750  0.00  0.00    +0.000 C 
ATOM     27  C   UNL     1      -2.639  11.784  23.406  0.00  0.00    +0.000 A 
ATOM     28  C   UNL     1      -1.465  12.163  22.740  0.00  0.00    +0.000 A 
ENDBRANCH  19  22
ENDBRANCH   6  18
BRANCH   4  29
ATOM     29  C   UNL     1       2.054  17.547  17.881  0.00  0.00    +0.000 C 
ATOM     30  O   UNL     1       2.361  17.912  16.759  0.00  0.00    +0.000 OA
BRANCH  29  31
ATOM     31  O   UNL     1       1.729  18.421  18.866  0.00  0.00    +0.000 OA
ATOM     32  H   UNL     1       1.133  18.095  19.568  0.00  0.00    +0.000 HD
ENDBRANCH  29  31
ENDBRANCH   4  29
TORSDOF 6
ENDMDL
MODEL 7
REMARK VINA RESULT:      -6.9      1.160      1.403
REMARK  Name = 
REMARK  8 active torsions:
REMARK  status: ('A' for Active; 'I' for Inactive)
REMARK    1  A    between atoms: C_1  and  C_2
REMARK    2  A    between atoms: C_5  and  C_6
REMARK    3  A    between atoms: N_8  and  C_9
REMARK    4  A    between atoms: C_12  and  C_13
REMARK    5  A    between atoms: C_13  and  O_15
REMARK    6  A    between atoms: C_17  and  N_18
REMARK    7  A    between atoms: C_19  and  C_21
REMARK    8  A    between atoms: C_24  and  C_25
REMARK                            x       y       z     vdW  Elec       q    Type
REMARK                         _______ _______ _______ _____ _____    ______ ____
ROOT
ATOM      1  C   UNL     1      -0.263  13.698  22.293  0.00  0.00    +0.000 A 
ATOM      2  C   UNL     1      -1.013  14.636  23.032  0.00  0.00    +0.000 A 
ATOM      3  C   UNL     1      -2.219  14.307  23.650  0.00  0.00    +0.000 A 
ATOM      4  C   UNL     1      -2.740  13.028  23.499  0.00  0.00    +0.000 A 
ATOM      5  C   UNL     1      -2.018  12.085  22.761  0.00  0.00    +0.000 A 
ATOM      6  C   UNL     1      -0.786  12.386  22.149  0.00  0.00    +0.000 A 
ENDROOT
BRANCH   1   9
ATOM      7  C   UNL     1       1.119  14.520  20.370  0.00  0.00    +0.000 C 
ATOM      8  O   UNL     1       0.217  14.659  19.549  0.00  0.00    +0.000 OA
ATOM      9  N   UNL     1       0.976  14.090  21.691  0.00  0.00    +0.000 N 
ATOM     10  H   UNL     1       1.782  14.155  22.291  0.00  0.00    +0.000 HD
BRANCH   7  15
ATOM     11  C   UNL     1       6.186  16.813  18.779  0.00  0.00    +0.000 C 
ATOM     12  C   UNL     1       4.901  16.119  19.128  0.00  0.00    +0.000 A 
ATOM     13  C   UNL     1       3.714  16.467  18.481  0.00  0.00    +0.000 A 
ATOM     14  C   UNL     1       2.511  15.889  18.877  0.00  0.00    +0.000 A 
ATOM     15  C   UNL     1       2.469  14.973  19.938  0.00  0.00    +0.000 A 
ATOM     16  C   UNL     1       3.660  14.561  20.539  0.00  0.00    +0.000 A 
ATOM     17  C   UNL     1       4.871  15.140  20.135  0.00  0.00    +0.000 A 
ENDBRANCH   7  15
ENDBRANCH   1   9
BRANCH   6  18
ATOM     18  N   UNL     1      -0.066  11.343  21.481  0.00  0.00    +0.000 N 
ATOM     19  C   UNL     1      -0.273  10.934  20.158  0.00  0.00    +0.000 C 
ATOM     20  O   UNL     1      -1.020  11.478  19.354  0.00  0.00    +0.000 OA
ATOM     21  H   UNL     1       0.585  10.818  22.042  0.00  0.00    +0.000 HD
BRANCH  19  22
ATOM     22  C   UNL     1       0.517   9.770  19.653  0.00  0.00    +0.000 A 
ATOM     23  C   UNL     1       0.876   9.755  18.292  0.00  0.00    +0.000 A 
ATOM     24  C   UNL     1       1.754   8.787  17.792  0.00  0.00    +0.000 A 
ATOM     25  C   UNL     1       2.314   7.836  18.647  0.00  0.00    +0.000 A 
ATOM     26  C   UNL     1       3.351   6.867  18.158  0.00  0.00    +0.000 C 
ATOM     27  C   UNL     1       1.920   7.821  19.994  0.00  0.00    +0.000 A 
ATOM     28  C   UNL     1       1.021   8.774  20.494  0.00  0.00    +0.000 A 
ENDBRANCH  19  22
ENDBRANCH   6  18
BRANCH   4  29
ATOM     29  C   UNL     1      -4.003  12.668  24.185  0.00  0.00    +0.000 C 
ATOM     30  O   UNL     1      -4.943  12.146  23.609  0.00  0.00    +0.000 OA
BRANCH  29  31
ATOM     31  O   UNL     1      -4.022  12.935  25.514  0.00  0.00    +0.000 OA
ATOM     32  H   UNL     1      -3.628  13.781  25.801  0.00  0.00    +0.000 HD
ENDBRANCH  29  31
ENDBRANCH   4  29
TORSDOF 6
ENDMDL
MODEL 8
REMARK VINA RESULT:      -6.9      1.260      5.515
REMARK  Name = 
REMARK  8 active torsions:
REMARK  status: ('A' for Active; 'I' for Inactive)
REMARK    1  A    between atoms: C_1  and  C_2
REMARK    2  A    between atoms: C_5  and  C_6
REMARK    3  A    between atoms: N_8  and  C_9
REMARK    4  A    between atoms: C_12  and  C_13
REMARK    5  A    between atoms: C_13  and  O_15
REMARK    6  A    between atoms: C_17  and  N_18
REMARK    7  A    between atoms: C_19  and  C_21
REMARK    8  A    between atoms: C_24  and  C_25
REMARK                            x       y       z     vdW  Elec       q    Type
REMARK                         _______ _______ _______ _____ _____    ______ ____
ROOT
ATOM      1  C   UNL     1      -0.851  12.037  22.309  0.00  0.00    +0.000 A 
ATOM      2  C   UNL     1      -2.041  11.698  22.987  0.00  0.00    +0.000 A 
ATOM      3  C   UNL     1      -2.805  12.642  23.673  0.00  0.00    +0.000 A 
ATOM      4  C   UNL     1      -2.365  13.957  23.745  0.00  0.00    +0.000 A 
ATOM      5  C   UNL     1      -1.182  14.314  23.091  0.00  0.00    +0.000 A 
ATOM      6  C   UNL     1      -0.408  13.385  22.370  0.00  0.00    +0.000 A 
ENDROOT
BRANCH   1   9
ATOM      7  C   UNL     1      -0.394  10.591  20.313  0.00  0.00    +0.000 C 
ATOM      8  O   UNL     1      -1.274  11.024  19.575  0.00  0.00    +0.000 OA
ATOM      9  N   UNL     1      -0.115  11.027  21.610  0.00  0.00    +0.000 N 
ATOM     10  H   UNL     1       0.722  10.679  22.048  0.00  0.00    +0.000 HD
BRANCH   7  15
ATOM     11  C   UNL     1       3.521   7.156  17.798  0.00  0.00    +0.000 C 
ATOM     12  C   UNL     1       2.426   7.957  18.440  0.00  0.00    +0.000 A 
ATOM     13  C   UNL     1       1.755   8.943  17.714  0.00  0.00    +0.000 A 
ATOM     14  C   UNL     1       0.808   9.746  18.343  0.00  0.00    +0.000 A 
ATOM     15  C   UNL     1       0.531   9.595  19.710  0.00  0.00    +0.000 A 
ATOM     16  C   UNL     1       1.140   8.562  20.425  0.00  0.00    +0.000 A 
ATOM     17  C   UNL     1       2.089   7.750  19.789  0.00  0.00    +0.000 A 
ENDBRANCH   7  15
ENDBRANCH   1   9
BRANCH   6  18
ATOM     18  N   UNL     1       0.746  13.844  21.655  0.00  0.00    +0.000 N 
ATOM     19  C   UNL     1       0.768  14.217  20.305  0.00  0.00    +0.000 C 
ATOM     20  O   UNL     1      -0.211  14.306  19.577  0.00  0.00    +0.000 OA
ATOM     21  H   UNL     1       1.621  13.818  22.153  0.00  0.00    +0.000 HD
BRANCH  19  22
ATOM     22  C   UNL     1       2.084  14.593  19.705  0.00  0.00    +0.000 A 
ATOM     23  C   UNL     1       3.211  14.624  20.548  0.00  0.00    +0.000 A 
ATOM     24  C   UNL     1       4.496  14.802  20.023  0.00  0.00    +0.000 A 
ATOM     25  C   UNL     1       4.682  14.922  18.645  0.00  0.00    +0.000 A 
ATOM     26  C   UNL     1       6.059  14.990  18.051  0.00  0.00    +0.000 C 
ATOM     27  C   UNL     1       3.555  14.938  17.808  0.00  0.00    +0.000 A 
ATOM     28  C   UNL     1       2.265  14.785  18.333  0.00  0.00    +0.000 A 
ENDBRANCH  19  22
ENDBRANCH   6  18
BRANCH   4  29
ATOM     29  C   UNL     1      -3.194  14.967  24.444  0.00  0.00    +0.000 C 
ATOM     30  O   UNL     1      -3.746  15.886  23.865  0.00  0.00    +0.000 OA
BRANCH  29  31
ATOM     31  O   UNL     1      -3.318  14.771  25.780  0.00  0.00    +0.000 OA
ATOM     32  H   UNL     1      -3.311  13.846  26.095  0.00  0.00    +0.000 HD
ENDBRANCH  29  31
ENDBRANCH   4  29
TORSDOF 6
ENDMDL
MODEL 9
REMARK VINA RESULT:      -6.9      3.195      6.813
REMARK  Name = 
REMARK  8 active torsions:
REMARK  status: ('A' for Active; 'I' for Inactive)
REMARK    1  A    between atoms: C_1  and  C_2
REMARK    2  A    between atoms: C_5  and  C_6
REMARK    3  A    between atoms: N_8  and  C_9
REMARK    4  A    between atoms: C_12  and  C_13
REMARK    5  A    between atoms: C_13  and  O_15
REMARK    6  A    between atoms: C_17  and  N_18
REMARK    7  A    between atoms: C_19  and  C_21
REMARK    8  A    between atoms: C_24  and  C_25
REMARK                            x       y       z     vdW  Elec       q    Type
REMARK                         _______ _______ _______ _____ _____    ______ ____
ROOT
ATOM      1  C   UNL     1       0.163  14.050  18.607  0.00  0.00    +0.000 A 
ATOM      2  C   UNL     1       0.158  15.457  18.689  0.00  0.00    +0.000 A 
ATOM      3  C   UNL     1       1.333  16.206  18.755  0.00  0.00    +0.000 A 
ATOM      4  C   UNL     1       2.559  15.554  18.794  0.00  0.00    +0.000 A 
ATOM      5  C   UNL     1       2.587  14.158  18.726  0.00  0.00    +0.000 A 
ATOM      6  C   UNL     1       1.416  13.382  18.633  0.00  0.00    +0.000 A 
ENDROOT
BRANCH   1   9
ATOM      7  C   UNL     1      -1.855  12.969  19.628  0.00  0.00    +0.000 C 
ATOM      8  O   UNL     1      -1.622  13.231  20.804  0.00  0.00    +0.000 OA
ATOM      9  N   UNL     1      -1.076  13.335  18.529  0.00  0.00    +0.000 N 
ATOM     10  H   UNL     1      -1.458  13.172  17.612  0.00  0.00    +0.000 HD
BRANCH   7  15
ATOM     11  C   UNL     1      -7.148  10.911  18.528  0.00  0.00    +0.000 C 
ATOM     12  C   UNL     1      -5.749  11.338  18.863  0.00  0.00    +0.000 A 
ATOM     13  C   UNL     1      -5.510  12.175  19.954  0.00  0.00    +0.000 A 
ATOM     14  C   UNL     1      -4.223  12.644  20.202  0.00  0.00    +0.000 A 
ATOM     15  C   UNL     1      -3.158  12.306  19.354  0.00  0.00    +0.000 A 
ATOM     16  C   UNL     1      -3.373  11.407  18.307  0.00  0.00    +0.000 A 
ATOM     17  C   UNL     1      -4.668  10.931  18.062  0.00  0.00    +0.000 A 
ENDBRANCH   7  15
ENDBRANCH   1   9
BRANCH   6  18
ATOM     18  N   UNL     1       1.530  11.962  18.482  0.00  0.00    +0.000 N 
ATOM     19  C   UNL     1       1.388  11.023  19.511  0.00  0.00    +0.000 C 
ATOM     20  O   UNL     1       1.041  11.272  20.658  0.00  0.00    +0.000 OA
ATOM     21  H   UNL     1       1.812  11.629  17.574  0.00  0.00    +0.000 HD
BRANCH  19  22
ATOM     22  C   UNL     1       1.623   9.584  19.183  0.00  0.00    +0.000 A 
ATOM     23  C   UNL     1       2.062   9.265  17.883  0.00  0.00    +0.000 A 
ATOM     24  C   UNL     1       2.462   7.963  17.560  0.00  0.00    +0.000 A 
ATOM     25  C   UNL     1       2.460   6.965  18.534  0.00  0.00    +0.000 A 
ATOM     26  C   UNL     1       2.999   5.594  18.242  0.00  0.00    +0.000 C 
ATOM     27  C   UNL     1       1.977   7.270  19.817  0.00  0.00    +0.000 A 
ATOM     28  C   UNL     1       1.553   8.567  20.138  0.00  0.00    +0.000 A 
ENDBRANCH  19  22
ENDBRANCH   6  18
BRANCH   4  29
ATOM     29  C   UNL     1       3.809  16.350  18.828  0.00  0.00    +0.000 C 
ATOM     30  O   UNL     1       3.835  17.526  19.146  0.00  0.00    +0.000 OA
BRANCH  29  31
ATOM     31  O   UNL     1       4.930  15.656  18.509  0.00  0.00    +0.000 OA
ATOM     32  H   UNL     1       4.862  14.682  18.504  0.00  0.00    +0.000 HD
ENDBRANCH  29  31
ENDBRANCH   4  29
TORSDOF 6
ENDMDL
