MODEL 1
REMARK VINA RESULT:      -8.0      0.000      0.000
REMARK  Name = 
REMARK  4 active torsions:
REMARK  status: ('A' for Active; 'I' for Inactive)
REMARK    1  A    between atoms: C_1  and  C_2
REMARK    2  A    between atoms: N_4  and  C_5
REMARK    3  A    between atoms: C_8  and  N_9
REMARK    4  A    between atoms: C_18  and  C_19
REMARK                            x       y       z     vdW  Elec       q    Type
REMARK                         _______ _______ _______ _____ _____    ______ ____
ROOT
ATOM      1  N   UNL     1       0.872  11.707  18.204  0.00  0.00    +0.000 N 
ATOM      2  C   UNL     1      -0.278  12.354  18.553  0.00  0.00    +0.000 A 
ATOM      3  N   UNL     1      -1.458  11.891  18.941  0.00  0.00    +0.000 NA
ATOM      4  C   UNL     1      -2.135  12.856  19.711  0.00  0.00    +0.000 A 
ATOM      5  C   UNL     1      -1.325  13.952  19.933  0.00  0.00    +0.000 A 
ATOM      6  S   UNL     1      -0.167  14.081  18.691  0.00  0.00    +0.000 S 
ATOM      7  C   UNL     1      -1.204  14.736  21.177  0.00  0.00    +0.000 C 
ATOM      8  C   UNL     1      -2.155  14.253  22.269  0.00  0.00    +0.000 C 
ATOM      9  C   UNL     1      -3.410  13.496  21.821  0.00  0.00    +0.000 C 
ATOM     10  C   UNL     1      -3.266  12.494  20.645  0.00  0.00    +0.000 C 
ATOM     11  H   UNL     1       1.660  12.338  18.103  0.00  0.00    +0.000 HD
ENDROOT
BRANCH   1  15
ATOM     12  C   UNL     1       1.984   7.796  19.503  0.00  0.00    +0.000 A 
ATOM     13  C   UNL     1       2.295   8.245  18.211  0.00  0.00    +0.000 A 
ATOM     14  C   UNL     1       1.932   9.542  17.794  0.00  0.00    +0.000 A 
ATOM     15  C   UNL     1       1.275  10.430  18.661  0.00  0.00    +0.000 A 
ATOM     16  C   UNL     1       1.024   9.991  19.960  0.00  0.00    +0.000 A 
ATOM     17  C   UNL     1       1.379   8.703  20.391  0.00  0.00    +0.000 A 
ATOM     18 CL   UNL     1       1.161   8.421  22.086  0.00  0.00    +0.000 Cl
BRANCH  12  22
ATOM     19  C   UNL     1       1.707   3.103  21.291  0.00  0.00    +0.000 C 
ATOM     20  C   UNL     1       2.112   4.387  20.668  0.00  0.00    +0.000 A 
ATOM     21  C   UNL     1       1.438   5.592  20.603  0.00  0.00    +0.000 A 
ATOM     22  N   UNL     1       2.241   6.438  19.848  0.00  0.00    +0.000 N 
ATOM     23  C   UNL     1       3.379   5.711  19.588  0.00  0.00    +0.000 A 
ATOM     24  N   UNL     1       3.318   4.476  20.039  0.00  0.00    +0.000 NA
ENDBRANCH  12  22
ENDBRANCH   1  15
BRANCH  10  25
ATOM     25  C   UNL     1      -4.622  12.285  19.960  0.00  0.00    +0.000 A 
ATOM     26  C   UNL     1      -4.840  11.929  18.624  0.00  0.00    +0.000 A 
ATOM     27  C   UNL     1      -6.116  11.518  18.196  0.00  0.00    +0.000 A 
ATOM     28  C   UNL     1      -7.195  11.491  19.080  0.00  0.00    +0.000 A 
ATOM     29  C   UNL     1      -7.032  11.973  20.369  0.00  0.00    +0.000 A 
ATOM     30  C   UNL     1      -5.767  12.380  20.792  0.00  0.00    +0.000 A 
ENDBRANCH  10  25
TORSDOF 3
ENDMDL
MODEL 2
REMARK VINA RESULT:      -7.9      4.106     10.371
REMARK  Name = 
REMARK  4 active torsions:
REMARK  status: ('A' for Active; 'I' for Inactive)
REMARK    1  A    between atoms: C_1  and  C_2
REMARK    2  A    between atoms: N_4  and  C_5
REMARK    3  A    between atoms: C_8  and  N_9
REMARK    4  A    between atoms: C_18  and  C_19
REMARK                            x       y       z     vdW  Elec       q    Type
REMARK                         _______ _______ _______ _____ _____    ______ ____
ROOT
ATOM      1  N   UNL     1       2.261   6.218  19.408  0.00  0.00    +0.000 N 
ATOM      2  C   UNL     1       3.332   5.639  18.791  0.00  0.00    +0.000 A 
ATOM      3  N   UNL     1       3.933   5.915  17.641  0.00  0.00    +0.000 NA
ATOM      4  C   UNL     1       5.269   5.471  17.668  0.00  0.00    +0.000 A 
ATOM      5  C   UNL     1       5.592   4.986  18.919  0.00  0.00    +0.000 A 
ATOM      6  S   UNL     1       4.188   4.445  19.715  0.00  0.00    +0.000 S 
ATOM      7  C   UNL     1       6.862   5.172  19.648  0.00  0.00    +0.000 C 
ATOM      8  C   UNL     1       7.897   5.944  18.834  0.00  0.00    +0.000 C 
ATOM      9  C   UNL     1       7.750   5.921  17.310  0.00  0.00    +0.000 C 
ATOM     10  C   UNL     1       6.316   6.011  16.722  0.00  0.00    +0.000 C 
ATOM     11  H   UNL     1       2.130   5.885  20.357  0.00  0.00    +0.000 HD
ENDROOT
BRANCH   1  15
ATOM     12  C   UNL     1       1.154  10.315  18.956  0.00  0.00    +0.000 A 
ATOM     13  C   UNL     1       1.651   9.577  17.872  0.00  0.00    +0.000 A 
ATOM     14  C   UNL     1       2.004   8.220  18.028  0.00  0.00    +0.000 A 
ATOM     15  C   UNL     1       1.848   7.564  19.260  0.00  0.00    +0.000 A 
ATOM     16  C   UNL     1       1.299   8.294  20.312  0.00  0.00    +0.000 A 
ATOM     17  C   UNL     1       0.941   9.645  20.173  0.00  0.00    +0.000 A 
ATOM     18 CL   UNL     1       0.100  10.315  21.531  0.00  0.00    +0.000 Cl
BRANCH  12  22
ATOM     19  C   UNL     1       1.648  15.317  18.767  0.00  0.00    +0.000 C 
ATOM     20  C   UNL     1       1.166  13.915  18.752  0.00  0.00    +0.000 A 
ATOM     21  C   UNL     1       1.842  12.742  19.033  0.00  0.00    +0.000 A 
ATOM     22  N   UNL     1       0.935  11.715  18.802  0.00  0.00    +0.000 N 
ATOM     23  C   UNL     1      -0.244  12.345  18.484  0.00  0.00    +0.000 A 
ATOM     24  N   UNL     1      -0.130  13.655  18.418  0.00  0.00    +0.000 NA
ENDBRANCH  12  22
ENDBRANCH   1  15
BRANCH  10  25
ATOM     25  C   UNL     1       6.284   5.405  15.314  0.00  0.00    +0.000 A 
ATOM     26  C   UNL     1       7.276   5.513  14.332  0.00  0.00    +0.000 A 
ATOM     27  C   UNL     1       7.236   4.698  13.186  0.00  0.00    +0.000 A 
ATOM     28  C   UNL     1       6.193   3.792  12.986  0.00  0.00    +0.000 A 
ATOM     29  C   UNL     1       5.131   3.770  13.876  0.00  0.00    +0.000 A 
ATOM     30  C   UNL     1       5.171   4.580  15.011  0.00  0.00    +0.000 A 
ENDBRANCH  10  25
TORSDOF 3
ENDMDL
MODEL 3
REMARK VINA RESULT:      -7.8      1.551      2.212
REMARK  Name = 
REMARK  4 active torsions:
REMARK  status: ('A' for Active; 'I' for Inactive)
REMARK    1  A    between atoms: C_1  and  C_2
REMARK    2  A    between atoms: N_4  and  C_5
REMARK    3  A    between atoms: C_8  and  N_9
REMARK    4  A    between atoms: C_18  and  C_19
REMARK                            x       y       z     vdW  Elec       q    Type
REMARK                         _______ _______ _______ _____ _____    ______ ____
ROOT
ATOM      1  N   UNL     1       0.229  11.274  18.218  0.00  0.00    +0.000 N 
ATOM      2  C   UNL     1      -0.490  12.110  19.022  0.00  0.00    +0.000 A 
ATOM      3  N   UNL     1      -1.180  11.877  20.131  0.00  0.00    +0.000 NA
ATOM      4  C   UNL     1      -1.278  13.050  20.903  0.00  0.00    +0.000 A 
ATOM      5  C   UNL     1      -0.530  14.064  20.338  0.00  0.00    +0.000 A 
ATOM      6  S   UNL     1      -0.368  13.803  18.663  0.00  0.00    +0.000 S 
ATOM      7  C   UNL     1       0.298  15.062  21.042  0.00  0.00    +0.000 C 
ATOM      8  C   UNL     1       0.217  14.923  22.560  0.00  0.00    +0.000 C 
ATOM      9  C   UNL     1      -1.030  14.246  23.137  0.00  0.00    +0.000 C 
ATOM     10  C   UNL     1      -1.601  13.019  22.378  0.00  0.00    +0.000 C 
ATOM     11  H   UNL     1       0.777  11.774  17.525  0.00  0.00    +0.000 HD
ENDROOT
BRANCH   1  15
ATOM     12  C   UNL     1       2.036   7.586  19.380  0.00  0.00    +0.000 A 
ATOM     13  C   UNL     1       2.108   8.041  18.055  0.00  0.00    +0.000 A 
ATOM     14  C   UNL     1       1.517   9.266  17.683  0.00  0.00    +0.000 A 
ATOM     15  C   UNL     1       0.863  10.076  18.625  0.00  0.00    +0.000 A 
ATOM     16  C   UNL     1       0.850   9.639  19.948  0.00  0.00    +0.000 A 
ATOM     17  C   UNL     1       1.435   8.423  20.336  0.00  0.00    +0.000 A 
ATOM     18 CL   UNL     1       1.484   8.156  22.047  0.00  0.00    +0.000 Cl
BRANCH  12  22
ATOM     19  C   UNL     1       2.593   2.896  21.109  0.00  0.00    +0.000 C 
ATOM     20  C   UNL     1       2.760   4.234  20.490  0.00  0.00    +0.000 A 
ATOM     21  C   UNL     1       1.897   5.313  20.467  0.00  0.00    +0.000 A 
ATOM     22  N   UNL     1       2.524   6.285  19.696  0.00  0.00    +0.000 N 
ATOM     23  C   UNL     1       3.753   5.755  19.384  0.00  0.00    +0.000 A 
ATOM     24  N   UNL     1       3.911   4.523  19.819  0.00  0.00    +0.000 NA
ENDBRANCH  12  22
ENDBRANCH   1  15
BRANCH  10  25
ATOM     25  C   UNL     1      -3.088  12.840  22.707  0.00  0.00    +0.000 A 
ATOM     26  C   UNL     1      -3.638  12.529  23.957  0.00  0.00    +0.000 A 
ATOM     27  C   UNL     1      -5.022  12.649  24.174  0.00  0.00    +0.000 A 
ATOM     28  C   UNL     1      -5.879  13.046  23.146  0.00  0.00    +0.000 A 
ATOM     29  C   UNL     1      -5.373  13.222  21.868  0.00  0.00    +0.000 A 
ATOM     30  C   UNL     1      -4.000  13.101  21.653  0.00  0.00    +0.000 A 
ENDBRANCH  10  25
TORSDOF 3
ENDMDL
MODEL 4
REMARK VINA RESULT:      -7.7      0.719      1.236
REMARK  Name = 
REMARK  4 active torsions:
REMARK  status: ('A' for Active; 'I' for Inactive)
REMARK    1  A    between atoms: C_1  and  C_2
REMARK    2  A    between atoms: N_4  and  C_5
REMARK    3  A    between atoms: C_8  and  N_9
REMARK    4  A    between atoms: C_18  and  C_19
REMARK                            x       y       z     vdW  Elec       q    Type
REMARK                         _______ _______ _______ _____ _____    ______ ____
ROOT
ATOM      1  N   UNL     1       0.680  11.623  18.159  0.00  0.00    +0.000 N 
ATOM      2  C   UNL     1      -0.315  12.371  18.721  0.00  0.00    +0.000 A 
ATOM      3  N   UNL     1      -1.370  12.020  19.444  0.00  0.00    +0.000 NA
ATOM      4  C   UNL     1      -1.786  13.093  20.255  0.00  0.00    +0.000 A 
ATOM      5  C   UNL     1      -0.907  14.151  20.146  0.00  0.00    +0.000 A 
ATOM      6  S   UNL     1      -0.109  14.092  18.643  0.00  0.00    +0.000 S 
ATOM      7  C   UNL     1      -0.437  15.037  21.229  0.00  0.00    +0.000 C 
ATOM      8  C   UNL     1      -1.089  14.718  22.571  0.00  0.00    +0.000 C 
ATOM      9  C   UNL     1      -2.443  14.003  22.541  0.00  0.00    +0.000 C 
ATOM     10  C   UNL     1      -2.648  12.890  21.480  0.00  0.00    +0.000 C 
ATOM     11  H   UNL     1       1.437  12.191  17.795  0.00  0.00    +0.000 HD
ENDROOT
BRANCH   1  15
ATOM     12  C   UNL     1       1.966   7.783  19.506  0.00  0.00    +0.000 A 
ATOM     13  C   UNL     1       2.205   8.205  18.190  0.00  0.00    +0.000 A 
ATOM     14  C   UNL     1       1.786   9.480  17.757  0.00  0.00    +0.000 A 
ATOM     15  C   UNL     1       1.141  10.371  18.631  0.00  0.00    +0.000 A 
ATOM     16  C   UNL     1       0.962   9.960  19.950  0.00  0.00    +0.000 A 
ATOM     17  C   UNL     1       1.374   8.694  20.398  0.00  0.00    +0.000 A 
ATOM     18 CL   UNL     1       1.240   8.452  22.107  0.00  0.00    +0.000 Cl
BRANCH  12  22
ATOM     19  C   UNL     1       1.945   3.157  21.481  0.00  0.00    +0.000 C 
ATOM     20  C   UNL     1       2.265   4.422  20.776  0.00  0.00    +0.000 A 
ATOM     21  C   UNL     1       1.567   5.614  20.733  0.00  0.00    +0.000 A 
ATOM     22  N   UNL     1       2.279   6.442  19.874  0.00  0.00    +0.000 N 
ATOM     23  C   UNL     1       3.398   5.722  19.531  0.00  0.00    +0.000 A 
ATOM     24  N   UNL     1       3.404   4.504  20.030  0.00  0.00    +0.000 NA
ENDBRANCH  12  22
ENDBRANCH   1  15
BRANCH  10  25
ATOM     25  C   UNL     1      -4.142  12.704  21.190  0.00  0.00    +0.000 A 
ATOM     26  C   UNL     1      -5.185  12.726  22.124  0.00  0.00    +0.000 A 
ATOM     27  C   UNL     1      -6.523  12.803  21.695  0.00  0.00    +0.000 A 
ATOM     28  C   UNL     1      -6.841  12.823  20.335  0.00  0.00    +0.000 A 
ATOM     29  C   UNL     1      -5.833  12.660  19.398  0.00  0.00    +0.000 A 
ATOM     30  C   UNL     1      -4.507  12.584  19.825  0.00  0.00    +0.000 A 
ENDBRANCH  10  25
TORSDOF 3
ENDMDL
MODEL 5
REMARK VINA RESULT:      -7.6      3.523      5.988
REMARK  Name = 
REMARK  4 active torsions:
REMARK  status: ('A' for Active; 'I' for Inactive)
REMARK    1  A    between atoms: C_1  and  C_2
REMARK    2  A    between atoms: N_4  and  C_5
REMARK    3  A    between atoms: C_8  and  N_9
REMARK    4  A    between atoms: C_18  and  C_19
REMARK                            x       y       z     vdW  Elec       q    Type
REMARK                         _______ _______ _______ _____ _____    ______ ____
ROOT
ATOM      1  N   UNL     1       1.642   7.401  20.486  0.00  0.00    +0.000 N 
ATOM      2  C   UNL     1       1.163   8.673  20.610  0.00  0.00    +0.000 A 
ATOM      3  N   UNL     1       1.716   9.846  20.331  0.00  0.00    +0.000 NA
ATOM      4  C   UNL     1       0.721  10.810  20.082  0.00  0.00    +0.000 A 
ATOM      5  C   UNL     1      -0.530  10.225  20.086  0.00  0.00    +0.000 A 
ATOM      6  S   UNL     1      -0.511   8.817  21.043  0.00  0.00    +0.000 S 
ATOM      7  C   UNL     1      -1.657  10.521  19.181  0.00  0.00    +0.000 C 
ATOM      8  C   UNL     1      -1.342  11.650  18.202  0.00  0.00    +0.000 C 
ATOM      9  C   UNL     1      -0.251  12.646  18.609  0.00  0.00    +0.000 C 
ATOM     10  C   UNL     1       1.006  12.086  19.325  0.00  0.00    +0.000 C 
ATOM     11  H   UNL     1       0.925   6.698  20.635  0.00  0.00    +0.000 HD
ENDROOT
BRANCH   1  15
ATOM     12  C   UNL     1       4.475   6.068  17.585  0.00  0.00    +0.000 A 
ATOM     13  C   UNL     1       3.791   7.282  17.424  0.00  0.00    +0.000 A 
ATOM     14  C   UNL     1       2.864   7.719  18.393  0.00  0.00    +0.000 A 
ATOM     15  C   UNL     1       2.617   6.970  19.554  0.00  0.00    +0.000 A 
ATOM     16  C   UNL     1       3.345   5.795  19.729  0.00  0.00    +0.000 A 
ATOM     17  C   UNL     1       4.273   5.346  18.775  0.00  0.00    +0.000 A 
ATOM     18 CL   UNL     1       5.212   3.977  19.266  0.00  0.00    +0.000 Cl
BRANCH  12  22
ATOM     19  C   UNL     1       6.276   3.770  13.490  0.00  0.00    +0.000 C 
ATOM     20  C   UNL     1       6.080   4.546  14.739  0.00  0.00    +0.000 A 
ATOM     21  C   UNL     1       4.945   4.712  15.510  0.00  0.00    +0.000 A 
ATOM     22  N   UNL     1       5.301   5.588  16.527  0.00  0.00    +0.000 N 
ATOM     23  C   UNL     1       6.644   5.818  16.348  0.00  0.00    +0.000 A 
ATOM     24  N   UNL     1       7.130   5.233  15.273  0.00  0.00    +0.000 NA
ENDBRANCH  12  22
ENDBRANCH   1  15
BRANCH  10  25
ATOM     25  C   UNL     1       1.677  13.188  20.154  0.00  0.00    +0.000 A 
ATOM     26  C   UNL     1       2.929  13.768  19.919  0.00  0.00    +0.000 A 
ATOM     27  C   UNL     1       3.308  14.942  20.597  0.00  0.00    +0.000 A 
ATOM     28  C   UNL     1       2.463  15.531  21.539  0.00  0.00    +0.000 A 
ATOM     29  C   UNL     1       1.282  14.895  21.886  0.00  0.00    +0.000 A 
ATOM     30  C   UNL     1       0.908  13.732  21.215  0.00  0.00    +0.000 A 
ENDBRANCH  10  25
TORSDOF 3
ENDMDL
MODEL 6
REMARK VINA RESULT:      -7.4      1.628      2.243
REMARK  Name = 
REMARK  4 active torsions:
REMARK  status: ('A' for Active; 'I' for Inactive)
REMARK    1  A    between atoms: C_1  and  C_2
REMARK    2  A    between atoms: N_4  and  C_5
REMARK    3  A    between atoms: C_8  and  N_9
REMARK    4  A    between atoms: C_18  and  C_19
REMARK                            x       y       z     vdW  Elec       q    Type
REMARK                         _______ _______ _______ _____ _____    ______ ____
ROOT
ATOM      1  N   UNL     1       0.464  12.373  20.438  0.00  0.00    +0.000 N 
ATOM      2  C   UNL     1      -0.784  12.919  20.525  0.00  0.00    +0.000 A 
ATOM      3  N   UNL     1      -1.960  12.486  20.090  0.00  0.00    +0.000 NA
ATOM      4  C   UNL     1      -3.001  13.046  20.855  0.00  0.00    +0.000 A 
ATOM      5  C   UNL     1      -2.489  13.786  21.901  0.00  0.00    +0.000 A 
ATOM      6  S   UNL     1      -0.926  14.339  21.512  0.00  0.00    +0.000 S 
ATOM      7  C   UNL     1      -3.005  13.858  23.282  0.00  0.00    +0.000 C 
ATOM      8  C   UNL     1      -4.281  13.042  23.473  0.00  0.00    +0.000 C 
ATOM      9  C   UNL     1      -5.128  12.762  22.227  0.00  0.00    +0.000 C 
ATOM     10  C   UNL     1      -4.381  12.434  20.907  0.00  0.00    +0.000 C 
ATOM     11  H   UNL     1       1.146  12.866  21.004  0.00  0.00    +0.000 HD
ENDROOT
BRANCH   1  15
ATOM     12  C   UNL     1       1.476   8.232  20.221  0.00  0.00    +0.000 A 
ATOM     13  C   UNL     1       1.054   8.811  21.426  0.00  0.00    +0.000 A 
ATOM     14  C   UNL     1       0.712  10.178  21.486  0.00  0.00    +0.000 A 
ATOM     15  C   UNL     1       0.759  10.991  20.343  0.00  0.00    +0.000 A 
ATOM     16  C   UNL     1       1.124  10.390  19.140  0.00  0.00    +0.000 A 
ATOM     17  C   UNL     1       1.467   9.030  19.063  0.00  0.00    +0.000 A 
ATOM     18 CL   UNL     1       1.700   8.432  17.454  0.00  0.00    +0.000 Cl
BRANCH  12  22
ATOM     19  C   UNL     1       2.110   3.310  21.041  0.00  0.00    +0.000 C 
ATOM     20  C   UNL     1       2.222   4.728  20.618  0.00  0.00    +0.000 A 
ATOM     21  C   UNL     1       1.434   5.815  20.945  0.00  0.00    +0.000 A 
ATOM     22  N   UNL     1       1.944   6.886  20.221  0.00  0.00    +0.000 N 
ATOM     23  C   UNL     1       3.054   6.388  19.581  0.00  0.00    +0.000 A 
ATOM     24  N   UNL     1       3.228   5.098  19.775  0.00  0.00    +0.000 NA
ENDBRANCH  12  22
ENDBRANCH   1  15
BRANCH  10  25
ATOM     25  C   UNL     1      -5.273  12.757  19.702  0.00  0.00    +0.000 A 
ATOM     26  C   UNL     1      -6.125  13.859  19.561  0.00  0.00    +0.000 A 
ATOM     27  C   UNL     1      -6.684  14.171  18.308  0.00  0.00    +0.000 A 
ATOM     28  C   UNL     1      -6.432  13.373  17.191  0.00  0.00    +0.000 A 
ATOM     29  C   UNL     1      -5.708  12.202  17.341  0.00  0.00    +0.000 A 
ATOM     30  C   UNL     1      -5.155  11.893  18.583  0.00  0.00    +0.000 A 
ENDBRANCH  10  25
TORSDOF 3
ENDMDL
MODEL 7
REMARK VINA RESULT:      -7.4      2.631      3.642
REMARK  Name = 
REMARK  4 active torsions:
REMARK  status: ('A' for Active; 'I' for Inactive)
REMARK    1  A    between atoms: C_1  and  C_2
REMARK    2  A    between atoms: N_4  and  C_5
REMARK    3  A    between atoms: C_8  and  N_9
REMARK    4  A    between atoms: C_18  and  C_19
REMARK                            x       y       z     vdW  Elec       q    Type
REMARK                         _______ _______ _______ _____ _____    ______ ____
ROOT
ATOM      1  N   UNL     1       2.957   9.396  17.601  0.00  0.00    +0.000 N 
ATOM      2  C   UNL     1       1.892  10.212  17.853  0.00  0.00    +0.000 A 
ATOM      3  N   UNL     1       0.597   9.949  17.969  0.00  0.00    +0.000 NA
ATOM      4  C   UNL     1      -0.034  10.932  18.755  0.00  0.00    +0.000 A 
ATOM      5  C   UNL     1       0.898  11.812  19.268  0.00  0.00    +0.000 A 
ATOM      6  S   UNL     1       2.273  11.855  18.264  0.00  0.00    +0.000 S 
ATOM      7  C   UNL     1       0.917  12.406  20.619  0.00  0.00    +0.000 C 
ATOM      8  C   UNL     1      -0.293  11.996  21.456  0.00  0.00    +0.000 C 
ATOM      9  C   UNL     1      -1.552  11.560  20.701  0.00  0.00    +0.000 C 
ATOM     10  C   UNL     1      -1.366  10.694  19.427  0.00  0.00    +0.000 C 
ATOM     11  H   UNL     1       3.847   9.866  17.726  0.00  0.00    +0.000 HD
ENDROOT
BRANCH   1  15
ATOM     12  C   UNL     1       3.283   5.280  18.681  0.00  0.00    +0.000 A 
ATOM     13  C   UNL     1       2.453   6.153  19.400  0.00  0.00    +0.000 A 
ATOM     14  C   UNL     1       2.343   7.509  19.029  0.00  0.00    +0.000 A 
ATOM     15  C   UNL     1       3.039   8.020  17.921  0.00  0.00    +0.000 A 
ATOM     16  C   UNL     1       3.815   7.129  17.183  0.00  0.00    +0.000 A 
ATOM     17  C   UNL     1       3.934   5.775  17.537  0.00  0.00    +0.000 A 
ATOM     18 CL   UNL     1       4.781   4.797  16.387  0.00  0.00    +0.000 Cl
BRANCH  12  22
ATOM     19  C   UNL     1       5.146   1.077  20.722  0.00  0.00    +0.000 C 
ATOM     20  C   UNL     1       4.327   2.107  20.037  0.00  0.00    +0.000 A 
ATOM     21  C   UNL     1       4.621   3.427  19.752  0.00  0.00    +0.000 A 
ATOM     22  N   UNL     1       3.478   3.952  19.161  0.00  0.00    +0.000 N 
ATOM     23  C   UNL     1       2.612   2.890  19.052  0.00  0.00    +0.000 A 
ATOM     24  N   UNL     1       3.079   1.784  19.592  0.00  0.00    +0.000 NA
ENDBRANCH  12  22
ENDBRANCH   1  15
BRANCH  10  25
ATOM     25  C   UNL     1      -2.584  10.839  18.507  0.00  0.00    +0.000 A 
ATOM     26  C   UNL     1      -3.677  11.695  18.692  0.00  0.00    +0.000 A 
ATOM     27  C   UNL     1      -4.593  11.916  17.648  0.00  0.00    +0.000 A 
ATOM     28  C   UNL     1      -4.454  11.264  16.421  0.00  0.00    +0.000 A 
ATOM     29  C   UNL     1      -3.462  10.309  16.266  0.00  0.00    +0.000 A 
ATOM     30  C   UNL     1      -2.555  10.090  17.303  0.00  0.00    +0.000 A 
ENDBRANCH  10  25
TORSDOF 3
ENDMDL
MODEL 8
REMARK VINA RESULT:      -7.3      1.333      1.673
REMARK  Name = 
REMARK  4 active torsions:
REMARK  status: ('A' for Active; 'I' for Inactive)
REMARK    1  A    between atoms: C_1  and  C_2
REMARK    2  A    between atoms: N_4  and  C_5
REMARK    3  A    between atoms: C_8  and  N_9
REMARK    4  A    between atoms: C_18  and  C_19
REMARK                            x       y       z     vdW  Elec       q    Type
REMARK                         _______ _______ _______ _____ _____    ______ ____
ROOT
ATOM      1  N   UNL     1       0.839  12.034  19.575  0.00  0.00    +0.000 N 
ATOM      2  C   UNL     1      -0.382  12.623  19.734  0.00  0.00    +0.000 A 
ATOM      3  N   UNL     1      -1.608  12.168  19.512  0.00  0.00    +0.000 NA
ATOM      4  C   UNL     1      -2.540  12.860  20.308  0.00  0.00    +0.000 A 
ATOM      5  C   UNL     1      -1.892  13.725  21.168  0.00  0.00    +0.000 A 
ATOM      6  S   UNL     1      -0.384  14.172  20.517  0.00  0.00    +0.000 S 
ATOM      7  C   UNL     1      -2.233  14.006  22.576  0.00  0.00    +0.000 C 
ATOM      8  C   UNL     1      -3.484  13.263  23.036  0.00  0.00    +0.000 C 
ATOM      9  C   UNL     1      -4.482  12.835  21.955  0.00  0.00    +0.000 C 
ATOM     10  C   UNL     1      -3.910  12.302  20.615  0.00  0.00    +0.000 C 
ATOM     11  H   UNL     1       1.592  12.582  19.978  0.00  0.00    +0.000 HD
ENDROOT
BRANCH   1  15
ATOM     12  C   UNL     1       1.744   7.874  19.875  0.00  0.00    +0.000 A 
ATOM     13  C   UNL     1       1.102   8.552  20.922  0.00  0.00    +0.000 A 
ATOM     14  C   UNL     1       0.797   9.924  20.809  0.00  0.00    +0.000 A 
ATOM     15  C   UNL     1       1.103  10.646  19.644  0.00  0.00    +0.000 A 
ATOM     16  C   UNL     1       1.689   9.946  18.591  0.00  0.00    +0.000 A 
ATOM     17  C   UNL     1       1.997   8.580  18.686  0.00  0.00    +0.000 A 
ATOM     18 CL   UNL     1       2.537   7.855  17.208  0.00  0.00    +0.000 Cl
BRANCH  12  22
ATOM     19  C   UNL     1       2.112   3.062  21.291  0.00  0.00    +0.000 C 
ATOM     20  C   UNL     1       2.317   4.419  20.729  0.00  0.00    +0.000 A 
ATOM     21  C   UNL     1       1.542   5.556  20.852  0.00  0.00    +0.000 A 
ATOM     22  N   UNL     1       2.160   6.525  20.071  0.00  0.00    +0.000 N 
ATOM     23  C   UNL     1       3.307   5.929  19.605  0.00  0.00    +0.000 A 
ATOM     24  N   UNL     1       3.414   4.665  19.957  0.00  0.00    +0.000 NA
ENDBRANCH  12  22
ENDBRANCH   1  15
BRANCH  10  25
ATOM     25  C   UNL     1      -4.941  12.478  19.493  0.00  0.00    +0.000 A 
ATOM     26  C   UNL     1      -4.914  11.875  18.230  0.00  0.00    +0.000 A 
ATOM     27  C   UNL     1      -6.048  11.916  17.398  0.00  0.00    +0.000 A 
ATOM     28  C   UNL     1      -7.207  12.585  17.797  0.00  0.00    +0.000 A 
ATOM     29  C   UNL     1      -7.204  13.304  18.981  0.00  0.00    +0.000 A 
ATOM     30  C   UNL     1      -6.079  13.264  19.804  0.00  0.00    +0.000 A 
ENDBRANCH  10  25
TORSDOF 3
ENDMDL
MODEL 9
REMARK VINA RESULT:      -7.3      4.612      8.216
REMARK  Name = 
REMARK  4 active torsions:
REMARK  status: ('A' for Active; 'I' for Inactive)
REMARK    1  A    between atoms: C_1  and  C_2
REMARK    2  A    between atoms: N_4  and  C_5
REMARK    3  A    between atoms: C_8  and  N_9
REMARK    4  A    between atoms: C_18  and  C_19
REMARK                            x       y       z     vdW  Elec       q    Type
REMARK                         _______ _______ _______ _____ _____    ______ ____
ROOT
ATOM      1  N   UNL     1       0.713  13.248  18.716  0.00  0.00    +0.000 N 
ATOM      2  C   UNL     1       0.452  11.973  19.128  0.00  0.00    +0.000 A 
ATOM      3  N   UNL     1       1.241  10.914  19.244  0.00  0.00    +0.000 NA
ATOM      4  C   UNL     1       0.719  10.016  20.195  0.00  0.00    +0.000 A 
ATOM      5  C   UNL     1      -0.393  10.556  20.809  0.00  0.00    +0.000 A 
ATOM      6  S   UNL     1      -1.132  11.693  19.779  0.00  0.00    +0.000 S 
ATOM      7  C   UNL     1      -0.761  10.461  22.235  0.00  0.00    +0.000 C 
ATOM      8  C   UNL     1       0.218   9.607  23.036  0.00  0.00    +0.000 C 
ATOM      9  C   UNL     1       1.036   8.567  22.265  0.00  0.00    +0.000 C 
ATOM     10  C   UNL     1       1.573   8.966  20.865  0.00  0.00    +0.000 C 
ATOM     11  H   UNL     1      -0.064  13.879  18.883  0.00  0.00    +0.000 HD
ENDROOT
BRANCH   1  15
ATOM     12  C   UNL     1       4.534  15.139  18.933  0.00  0.00    +0.000 A 
ATOM     13  C   UNL     1       3.796  15.133  17.740  0.00  0.00    +0.000 A 
ATOM     14  C   UNL     1       2.530  14.515  17.681  0.00  0.00    +0.000 A 
ATOM     15  C   UNL     1       1.960  13.911  18.813  0.00  0.00    +0.000 A 
ATOM     16  C   UNL     1       2.679  13.974  20.005  0.00  0.00    +0.000 A 
ATOM     17  C   UNL     1       3.940  14.587  20.081  0.00  0.00    +0.000 A 
ATOM     18 CL   UNL     1       4.578  14.733  21.685  0.00  0.00    +0.000 Cl
BRANCH  12  22
ATOM     19  C   UNL     1       9.520  15.700  18.586  0.00  0.00    +0.000 C 
ATOM     20  C   UNL     1       8.061  15.869  18.796  0.00  0.00    +0.000 A 
ATOM     21  C   UNL     1       7.038  14.946  18.688  0.00  0.00    +0.000 A 
ATOM     22  N   UNL     1       5.864  15.650  18.926  0.00  0.00    +0.000 N 
ATOM     23  C   UNL     1       6.270  16.924  19.246  0.00  0.00    +0.000 A 
ATOM     24  N   UNL     1       7.572  17.092  19.149  0.00  0.00    +0.000 NA
ENDBRANCH  12  22
ENDBRANCH   1  15
BRANCH  10  25
ATOM     25  C   UNL     1       1.829   7.711  20.020  0.00  0.00    +0.000 A 
ATOM     26  C   UNL     1       2.349   7.668  18.721  0.00  0.00    +0.000 A 
ATOM     27  C   UNL     1       2.774   6.448  18.164  0.00  0.00    +0.000 A 
ATOM     28  C   UNL     1       2.656   5.254  18.878  0.00  0.00    +0.000 A 
ATOM     29  C   UNL     1       2.017   5.256  20.107  0.00  0.00    +0.000 A 
ATOM     30  C   UNL     1       1.595   6.466  20.658  0.00  0.00    +0.000 A 
ENDBRANCH  10  25
TORSDOF 3
ENDMDL
