MODEL 1
REMARK VINA RESULT:      -5.0      0.000      0.000
REMARK  Name = 
REMARK  4 active torsions:
REMARK  status: ('A' for Active; 'I' for Inactive)
REMARK    1  A    between atoms: C_1  and  C_2
REMARK    2  A    between atoms: N_4  and  C_5
REMARK    3  A    between atoms: C_5  and  C_6
REMARK    4  A    between atoms: C_6  and  N_7
REMARK                            x       y       z     vdW  Elec       q    Type
REMARK                         _______ _______ _______ _____ _____    ______ ____
ROOT
ATOM      1  C   UNL     1       6.017   4.369  18.046  0.00  0.00    +0.000 C 
ENDROOT
BRANCH   1   5
ATOM      2  C   UNL     1       6.692   4.348  14.320  0.00  0.00    +0.000 C 
ATOM      3  C   UNL     1       6.763   4.841  15.739  0.00  0.00    +0.000 C 
ATOM      4  O   UNL     1       7.343   5.875  16.050  0.00  0.00    +0.000 OA
ATOM      5  N   UNL     1       6.108   4.027  16.636  0.00  0.00    +0.000 N 
ATOM      6  H   UNL     1       5.729   3.144  16.326  0.00  0.00    +0.000 HD
ENDBRANCH   1   5
BRANCH   1   7
ATOM      7  C   UNL     1       4.650   4.000  18.660  0.00  0.00    +0.000 C 
BRANCH   7   8
ATOM      8  N   UNL     1       3.839   3.108  17.808  0.00  0.00    +0.000 NA
ATOM      9  C   UNL     1       2.580   3.731  17.362  0.00  0.00    +0.000 C 
ATOM     10  C   UNL     1       1.583   3.463  18.471  0.00  0.00    +0.000 C 
ATOM     11  C   UNL     1       1.963   2.077  18.951  0.00  0.00    +0.000 C 
ATOM     12  C   UNL     1       3.426   1.902  18.552  0.00  0.00    +0.000 C 
ENDBRANCH   7   8
ENDBRANCH   1   7
TORSDOF 3
ENDMDL
MODEL 2
REMARK VINA RESULT:      -5.0      1.522      1.623
REMARK  Name = 
REMARK  4 active torsions:
REMARK  status: ('A' for Active; 'I' for Inactive)
REMARK    1  A    between atoms: C_1  and  C_2
REMARK    2  A    between atoms: N_4  and  C_5
REMARK    3  A    between atoms: C_5  and  C_6
REMARK    4  A    between atoms: C_6  and  N_7
REMARK                            x       y       z     vdW  Elec       q    Type
REMARK                         _______ _______ _______ _____ _____    ______ ____
ROOT
ATOM      1  C   UNL     1       5.458   4.291  18.699  0.00  0.00    +0.000 C 
ENDROOT
BRANCH   1   5
ATOM      2  C   UNL     1       6.162   3.964  14.993  0.00  0.00    +0.000 C 
ATOM      3  C   UNL     1       6.461   4.227  16.443  0.00  0.00    +0.000 C 
ATOM      4  O   UNL     1       7.564   4.593  16.833  0.00  0.00    +0.000 OA
ATOM      5  N   UNL     1       5.380   4.030  17.272  0.00  0.00    +0.000 N 
ATOM      6  H   UNL     1       4.526   3.641  16.896  0.00  0.00    +0.000 HD
ENDBRANCH   1   5
BRANCH   1   7
ATOM      7  C   UNL     1       4.082   4.603  19.323  0.00  0.00    +0.000 C 
BRANCH   7   8
ATOM      8  N   UNL     1       3.132   3.476  19.258  0.00  0.00    +0.000 NA
ATOM      9  C   UNL     1       1.744   3.908  19.018  0.00  0.00    +0.000 C 
ATOM     10  C   UNL     1       1.176   4.215  20.389  0.00  0.00    +0.000 C 
ATOM     11  C   UNL     1       1.816   3.165  21.272  0.00  0.00    +0.000 C 
ATOM     12  C   UNL     1       3.089   2.748  20.542  0.00  0.00    +0.000 C 
ENDBRANCH   7   8
ENDBRANCH   1   7
TORSDOF 3
ENDMDL
MODEL 3
REMARK VINA RESULT:      -5.0      1.271      1.455
REMARK  Name = 
REMARK  4 active torsions:
REMARK  status: ('A' for Active; 'I' for Inactive)
REMARK    1  A    between atoms: C_1  and  C_2
REMARK    2  A    between atoms: N_4  and  C_5
REMARK    3  A    between atoms: C_5  and  C_6
REMARK    4  A    between atoms: C_6  and  N_7
REMARK                            x       y       z     vdW  Elec       q    Type
REMARK                         _______ _______ _______ _____ _____    ______ ____
ROOT
ATOM      1  C   UNL     1       5.400   4.080  18.466  0.00  0.00    +0.000 C 
ENDROOT
BRANCH   1   5
ATOM      2  C   UNL     1       6.486   4.163  14.839  0.00  0.00    +0.000 C 
ATOM      3  C   UNL     1       6.632   4.259  16.333  0.00  0.00    +0.000 C 
ATOM      4  O   UNL     1       7.689   4.567  16.874  0.00  0.00    +0.000 OA
ATOM      5  N   UNL     1       5.471   3.981  17.018  0.00  0.00    +0.000 N 
ATOM      6  H   UNL     1       4.661   3.646  16.514  0.00  0.00    +0.000 HD
ENDBRANCH   1   5
BRANCH   1   7
ATOM      7  C   UNL     1       3.949   4.151  18.987  0.00  0.00    +0.000 C 
BRANCH   7   8
ATOM      8  N   UNL     1       3.443   2.866  19.508  0.00  0.00    +0.000 NA
ATOM      9  C   UNL     1       2.530   2.187  18.571  0.00  0.00    +0.000 C 
ATOM     10  C   UNL     1       1.158   2.763  18.857  0.00  0.00    +0.000 C 
ATOM     11  C   UNL     1       1.172   2.963  20.358  0.00  0.00    +0.000 C 
ATOM     12  C   UNL     1       2.647   3.072  20.734  0.00  0.00    +0.000 C 
ENDBRANCH   7   8
ENDBRANCH   1   7
TORSDOF 3
ENDMDL
MODEL 4
REMARK VINA RESULT:      -4.9      1.783      2.258
REMARK  Name = 
REMARK  4 active torsions:
REMARK  status: ('A' for Active; 'I' for Inactive)
REMARK    1  A    between atoms: C_1  and  C_2
REMARK    2  A    between atoms: N_4  and  C_5
REMARK    3  A    between atoms: C_5  and  C_6
REMARK    4  A    between atoms: C_6  and  N_7
REMARK                            x       y       z     vdW  Elec       q    Type
REMARK                         _______ _______ _______ _____ _____    ______ ____
ROOT
ATOM      1  C   UNL     1       4.626   4.051  19.371  0.00  0.00    +0.000 C 
ENDROOT
BRANCH   1   5
ATOM      2  C   UNL     1       7.655   4.564  17.157  0.00  0.00    +0.000 C 
ATOM      3  C   UNL     1       6.342   4.899  17.810  0.00  0.00    +0.000 C 
ATOM      4  O   UNL     1       5.728   5.931  17.565  0.00  0.00    +0.000 OA
ATOM      5  N   UNL     1       5.903   3.933  18.687  0.00  0.00    +0.000 N 
ATOM      6  H   UNL     1       6.502   3.150  18.910  0.00  0.00    +0.000 HD
ENDBRANCH   1   5
BRANCH   1   7
ATOM      7  C   UNL     1       3.480   3.346  18.615  0.00  0.00    +0.000 C 
BRANCH   7   8
ATOM      8  N   UNL     1       2.783   2.321  19.416  0.00  0.00    +0.000 NA
ATOM      9  C   UNL     1       1.331   2.289  19.169  0.00  0.00    +0.000 C 
ATOM     10  C   UNL     1       0.740   3.323  20.106  0.00  0.00    +0.000 C 
ATOM     11  C   UNL     1       1.603   3.200  21.345  0.00  0.00    +0.000 C 
ATOM     12  C   UNL     1       2.919   2.600  20.860  0.00  0.00    +0.000 C 
ENDBRANCH   7   8
ENDBRANCH   1   7
TORSDOF 3
ENDMDL
MODEL 5
REMARK VINA RESULT:      -4.9      1.643      2.259
REMARK  Name = 
REMARK  4 active torsions:
REMARK  status: ('A' for Active; 'I' for Inactive)
REMARK    1  A    between atoms: C_1  and  C_2
REMARK    2  A    between atoms: N_4  and  C_5
REMARK    3  A    between atoms: C_5  and  C_6
REMARK    4  A    between atoms: C_6  and  N_7
REMARK                            x       y       z     vdW  Elec       q    Type
REMARK                         _______ _______ _______ _____ _____    ______ ____
ROOT
ATOM      1  C   UNL     1       5.177   4.065  17.017  0.00  0.00    +0.000 C 
ENDROOT
BRANCH   1   5
ATOM      2  C   UNL     1       7.853   5.965  18.906  0.00  0.00    +0.000 C 
ATOM      3  C   UNL     1       7.284   5.015  17.889  0.00  0.00    +0.000 C 
ATOM      4  O   UNL     1       7.990   4.345  17.143  0.00  0.00    +0.000 OA
ATOM      5  N   UNL     1       5.908   4.968  17.890  0.00  0.00    +0.000 N 
ATOM      6  H   UNL     1       5.386   5.613  18.468  0.00  0.00    +0.000 HD
ENDBRANCH   1   5
BRANCH   1   7
ATOM      7  C   UNL     1       3.685   3.949  17.396  0.00  0.00    +0.000 C 
BRANCH   7   8
ATOM      8  N   UNL     1       3.446   3.184  18.635  0.00  0.00    +0.000 NA
ATOM      9  C   UNL     1       2.521   2.053  18.440  0.00  0.00    +0.000 C 
ATOM     10  C   UNL     1       1.133   2.633  18.613  0.00  0.00    +0.000 C 
ATOM     11  C   UNL     1       1.323   3.665  19.706  0.00  0.00    +0.000 C 
ATOM     12  C   UNL     1       2.804   4.030  19.660  0.00  0.00    +0.000 C 
ENDBRANCH   7   8
ENDBRANCH   1   7
TORSDOF 3
ENDMDL
MODEL 6
REMARK VINA RESULT:      -4.9      2.493      5.252
REMARK  Name = 
REMARK  4 active torsions:
REMARK  status: ('A' for Active; 'I' for Inactive)
REMARK    1  A    between atoms: C_1  and  C_2
REMARK    2  A    between atoms: N_4  and  C_5
REMARK    3  A    between atoms: C_5  and  C_6
REMARK    4  A    between atoms: C_6  and  N_7
REMARK                            x       y       z     vdW  Elec       q    Type
REMARK                         _______ _______ _______ _____ _____    ______ ____
ROOT
ATOM      1  C   UNL     1       3.962   4.632  18.188  0.00  0.00    +0.000 C 
ENDROOT
BRANCH   1   5
ATOM      2  C   UNL     1       0.904   2.585  19.083  0.00  0.00    +0.000 C 
ATOM      3  C   UNL     1       1.744   3.551  18.293  0.00  0.00    +0.000 C 
ATOM      4  O   UNL     1       1.313   4.153  17.315  0.00  0.00    +0.000 OA
ATOM      5  N   UNL     1       3.022   3.697  18.783  0.00  0.00    +0.000 N 
ATOM      6  H   UNL     1       3.339   3.104  19.537  0.00  0.00    +0.000 HD
ENDBRANCH   1   5
BRANCH   1   7
ATOM      7  C   UNL     1       5.103   5.022  19.151  0.00  0.00    +0.000 C 
BRANCH   7   8
ATOM      8  N   UNL     1       6.446   4.669  18.653  0.00  0.00    +0.000 NA
ATOM      9  C   UNL     1       7.469   5.671  19.002  0.00  0.00    +0.000 C 
ATOM     10  C   UNL     1       7.410   6.708  17.900  0.00  0.00    +0.000 C 
ATOM     11  C   UNL     1       7.120   5.883  16.663  0.00  0.00    +0.000 C 
ATOM     12  C   UNL     1       6.461   4.606  17.178  0.00  0.00    +0.000 C 
ENDBRANCH   7   8
ENDBRANCH   1   7
TORSDOF 3
ENDMDL
MODEL 7
REMARK VINA RESULT:      -4.9      1.386      1.966
REMARK  Name = 
REMARK  4 active torsions:
REMARK  status: ('A' for Active; 'I' for Inactive)
REMARK    1  A    between atoms: C_1  and  C_2
REMARK    2  A    between atoms: N_4  and  C_5
REMARK    3  A    between atoms: C_5  and  C_6
REMARK    4  A    between atoms: C_6  and  N_7
REMARK                            x       y       z     vdW  Elec       q    Type
REMARK                         _______ _______ _______ _____ _____    ______ ____
ROOT
ATOM      1  C   UNL     1       6.151   4.354  16.737  0.00  0.00    +0.000 C 
ENDROOT
BRANCH   1   5
ATOM      2  C   UNL     1       6.300   3.768  12.999  0.00  0.00    +0.000 C 
ATOM      3  C   UNL     1       6.663   4.386  14.321  0.00  0.00    +0.000 C 
ATOM      4  O   UNL     1       7.483   5.292  14.424  0.00  0.00    +0.000 OA
ATOM      5  N   UNL     1       5.979   3.846  15.387  0.00  0.00    +0.000 N 
ATOM      6  H   UNL     1       5.384   3.041  15.243  0.00  0.00    +0.000 HD
ENDBRANCH   1   5
BRANCH   1   7
ATOM      7  C   UNL     1       4.996   5.277  17.178  0.00  0.00    +0.000 C 
BRANCH   7   8
ATOM      8  N   UNL     1       4.194   4.735  18.292  0.00  0.00    +0.000 NA
ATOM      9  C   UNL     1       3.862   3.310  18.119  0.00  0.00    +0.000 C 
ATOM     10  C   UNL     1       2.594   3.290  17.290  0.00  0.00    +0.000 C 
ATOM     11  C   UNL     1       1.832   4.497  17.794  0.00  0.00    +0.000 C 
ATOM     12  C   UNL     1       2.891   5.422  18.387  0.00  0.00    +0.000 C 
ENDBRANCH   7   8
ENDBRANCH   1   7
TORSDOF 3
ENDMDL
MODEL 8
REMARK VINA RESULT:      -4.9      1.803      2.373
REMARK  Name = 
REMARK  4 active torsions:
REMARK  status: ('A' for Active; 'I' for Inactive)
REMARK    1  A    between atoms: C_1  and  C_2
REMARK    2  A    between atoms: N_4  and  C_5
REMARK    3  A    between atoms: C_5  and  C_6
REMARK    4  A    between atoms: C_6  and  N_7
REMARK                            x       y       z     vdW  Elec       q    Type
REMARK                         _______ _______ _______ _____ _____    ______ ____
ROOT
ATOM      1  C   UNL     1       4.371   3.394  19.045  0.00  0.00    +0.000 C 
ENDROOT
BRANCH   1   5
ATOM      2  C   UNL     1       7.406   4.675  17.176  0.00  0.00    +0.000 C 
ATOM      3  C   UNL     1       5.948   4.418  17.442  0.00  0.00    +0.000 C 
ATOM      4  O   UNL     1       5.066   4.740  16.654  0.00  0.00    +0.000 OA
ATOM      5  N   UNL     1       5.713   3.780  18.640  0.00  0.00    +0.000 N 
ATOM      6  H   UNL     1       6.477   3.625  19.282  0.00  0.00    +0.000 HD
ENDBRANCH   1   5
BRANCH   1   7
ATOM      7  C   UNL     1       3.629   4.521  19.795  0.00  0.00    +0.000 C 
BRANCH   7   8
ATOM      8  N   UNL     1       2.239   4.719  19.341  0.00  0.00    +0.000 NA
ATOM      9  C   UNL     1       1.255   4.578  20.429  0.00  0.00    +0.000 C 
ATOM     10  C   UNL     1       0.946   3.096  20.503  0.00  0.00    +0.000 C 
ATOM     11  C   UNL     1       0.984   2.662  19.052  0.00  0.00    +0.000 C 
ATOM     12  C   UNL     1       1.859   3.695  18.347  0.00  0.00    +0.000 C 
ENDBRANCH   7   8
ENDBRANCH   1   7
TORSDOF 3
ENDMDL
MODEL 9
REMARK VINA RESULT:      -4.9      3.022      5.670
REMARK  Name = 
REMARK  4 active torsions:
REMARK  status: ('A' for Active; 'I' for Inactive)
REMARK    1  A    between atoms: C_1  and  C_2
REMARK    2  A    between atoms: N_4  and  C_5
REMARK    3  A    between atoms: C_5  and  C_6
REMARK    4  A    between atoms: C_6  and  N_7
REMARK                            x       y       z     vdW  Elec       q    Type
REMARK                         _______ _______ _______ _____ _____    ______ ____
ROOT
ATOM      1  C   UNL     1       4.636   3.620  19.283  0.00  0.00    +0.000 C 
ENDROOT
BRANCH   1   5
ATOM      2  C   UNL     1       1.029   3.677  20.435  0.00  0.00    +0.000 C 
ATOM      3  C   UNL     1       2.491   3.327  20.473  0.00  0.00    +0.000 C 
ATOM      4  O   UNL     1       2.973   2.598  21.333  0.00  0.00    +0.000 OA
ATOM      5  N   UNL     1       3.217   3.891  19.448  0.00  0.00    +0.000 N 
ATOM      6  H   UNL     1       2.775   4.553  18.826  0.00  0.00    +0.000 HD
ENDBRANCH   1   5
BRANCH   1   7
ATOM      7  C   UNL     1       5.491   4.904  19.289  0.00  0.00    +0.000 C 
BRANCH   7   8
ATOM      8  N   UNL     1       6.836   4.723  18.709  0.00  0.00    +0.000 NA
ATOM      9  C   UNL     1       7.733   5.862  18.974  0.00  0.00    +0.000 C 
ATOM     10  C   UNL     1       7.464   6.853  17.860  0.00  0.00    +0.000 C 
ATOM     11  C   UNL     1       7.213   5.965  16.660  0.00  0.00    +0.000 C 
ATOM     12  C   UNL     1       6.767   4.625  17.238  0.00  0.00    +0.000 C 
ENDBRANCH   7   8
ENDBRANCH   1   7
TORSDOF 3
ENDMDL
