MODEL 1
REMARK VINA RESULT:      -8.8      0.000      0.000
REMARK  Name = 
REMARK  9 active torsions:
REMARK  status: ('A' for Active; 'I' for Inactive)
REMARK    1  A    between atoms: C_1  and  C_2
REMARK    2  A    between atoms: C_4  and  C_5
REMARK    3  A    between atoms: C_10  and  N_11
REMARK    4  A    between atoms: C_12  and  C_13
REMARK    5  A    between atoms: C_13  and  C_14
REMARK    6  A    between atoms: C_14  and  C_15
REMARK    7  A    between atoms: C_15  and  O_17
REMARK    8  A    between atoms: C_20  and  C_21
REMARK    9  A    between atoms: C_24  and  C_25
REMARK                            x       y       z     vdW  Elec       q    Type
REMARK                         _______ _______ _______ _____ _____    ______ ____
ROOT
ATOM      1  N   UNL     1       3.475   4.821  19.295  0.00  0.00    +0.000 N 
ATOM      2  C   UNL     1       3.361   3.634  20.108  0.00  0.00    +0.000 A 
ATOM      3  C   UNL     1       2.293   3.767  20.970  0.00  0.00    +0.000 A 
ATOM      4  C   UNL     1       1.804   5.060  20.859  0.00  0.00    +0.000 A 
ATOM      5  C   UNL     1       2.543   5.781  19.925  0.00  0.00    +0.000 A 
ENDROOT
BRANCH   1  12
ATOM      6  C   UNL     1       6.566   5.437  19.315  0.00  0.00    +0.000 C 
ATOM      7  C   UNL     1       5.768   5.177  18.119  0.00  0.00    +0.000 A 
ATOM      8  C   UNL     1       6.599   5.077  16.982  0.00  0.00    +0.000 A 
ATOM      9  C   UNL     1       6.106   4.891  15.711  0.00  0.00    +0.000 A 
ATOM     10  C   UNL     1       4.739   4.756  15.590  0.00  0.00    +0.000 A 
ATOM     11  C   UNL     1       3.911   4.769  16.744  0.00  0.00    +0.000 A 
ATOM     12  C   UNL     1       4.376   4.918  18.074  0.00  0.00    +0.000 A 
BRANCH   9  13
ATOM     13  C   UNL     1       7.029   4.767  14.558  0.00  0.00    +0.000 C 
ATOM     14  N   UNL     1       6.761   3.771  13.641  0.00  0.00    +0.000 N 
ATOM     15  O   UNL     1       7.999   5.509  14.419  0.00  0.00    +0.000 OA
ATOM     16  H   UNL     1       6.130   3.004  13.828  0.00  0.00    +0.000 HD
ATOM     17  H   UNL     1       7.408   3.667  12.876  0.00  0.00    +0.000 HD
ENDBRANCH   9  13
ENDBRANCH   1  12
BRANCH   5  18
ATOM     18  C   UNL     1       2.192   7.234  19.699  0.00  0.00    +0.000 A 
ATOM     19  C   UNL     1       2.396   7.931  18.501  0.00  0.00    +0.000 A 
ATOM     20  C   UNL     1       1.654   9.116  18.235  0.00  0.00    +0.000 A 
ATOM     21  C   UNL     1       0.904   9.752  19.231  0.00  0.00    +0.000 A 
ATOM     22  C   UNL     1       0.976   9.225  20.522  0.00  0.00    +0.000 A 
ATOM     23  C   UNL     1       1.599   7.977  20.744  0.00  0.00    +0.000 A 
BRANCH  21  24
ATOM     24  C   UNL     1       0.102  10.935  18.906  0.00  0.00    +0.000 A 
ATOM     25  C   UNL     1       0.543  12.299  18.753  0.00  0.00    +0.000 A 
ATOM     26  C   UNL     1      -0.506  13.183  18.590  0.00  0.00    +0.000 A 
ATOM     27  S   UNL     1      -2.014  12.382  18.557  0.00  0.00    +0.000 S 
ATOM     28  C   UNL     1      -1.271  10.856  18.786  0.00  0.00    +0.000 A 
ENDBRANCH  21  24
ENDBRANCH   5  18
BRANCH   2  29
ATOM     29  C   UNL     1       4.230   2.398  20.022  0.00  0.00    +0.000 C 
BRANCH  29  30
ATOM     30  C   UNL     1       4.025   1.465  18.822  0.00  0.00    +0.000 C 
BRANCH  30  31
ATOM     31  C   UNL     1       2.601   1.632  18.316  0.00  0.00    +0.000 C 
ATOM     32  O   UNL     1       2.281   2.179  17.265  0.00  0.00    +0.000 OA
BRANCH  31  33
ATOM     33  O   UNL     1       1.676   1.101  19.150  0.00  0.00    +0.000 OA
ATOM     34  H   UNL     1       0.883   0.756  18.697  0.00  0.00    +0.000 HD
ENDBRANCH  31  33
ENDBRANCH  30  31
ENDBRANCH  29  30
ENDBRANCH   2  29
TORSDOF 8
ENDMDL
MODEL 2
REMARK VINA RESULT:      -8.5      4.163      6.806
REMARK  Name = 
REMARK  9 active torsions:
REMARK  status: ('A' for Active; 'I' for Inactive)
REMARK    1  A    between atoms: C_1  and  C_2
REMARK    2  A    between atoms: C_4  and  C_5
REMARK    3  A    between atoms: C_10  and  N_11
REMARK    4  A    between atoms: C_12  and  C_13
REMARK    5  A    between atoms: C_13  and  C_14
REMARK    6  A    between atoms: C_14  and  C_15
REMARK    7  A    between atoms: C_15  and  O_17
REMARK    8  A    between atoms: C_20  and  C_21
REMARK    9  A    between atoms: C_24  and  C_25
REMARK                            x       y       z     vdW  Elec       q    Type
REMARK                         _______ _______ _______ _____ _____    ______ ____
ROOT
ATOM      1  N   UNL     1       3.952   5.731  18.018  0.00  0.00    +0.000 N 
ATOM      2  C   UNL     1       3.511   4.375  17.794  0.00  0.00    +0.000 A 
ATOM      3  C   UNL     1       4.604   3.535  17.765  0.00  0.00    +0.000 A 
ATOM      4  C   UNL     1       5.751   4.313  17.803  0.00  0.00    +0.000 A 
ATOM      5  C   UNL     1       5.420   5.664  17.859  0.00  0.00    +0.000 A 
ENDROOT
BRANCH   1  12
ATOM      6  C   UNL     1       2.268   6.030  20.666  0.00  0.00    +0.000 C 
ATOM      7  C   UNL     1       2.280   6.989  19.565  0.00  0.00    +0.000 A 
ATOM      8  C   UNL     1       1.561   8.152  19.915  0.00  0.00    +0.000 A 
ATOM      9  C   UNL     1       1.364   9.199  19.043  0.00  0.00    +0.000 A 
ATOM     10  C   UNL     1       1.948   9.088  17.800  0.00  0.00    +0.000 A 
ATOM     11  C   UNL     1       2.745   7.956  17.478  0.00  0.00    +0.000 A 
ATOM     12  C   UNL     1       3.008   6.875  18.355  0.00  0.00    +0.000 A 
BRANCH   9  13
ATOM     13  C   UNL     1       0.622  10.406  19.475  0.00  0.00    +0.000 C 
ATOM     14  N   UNL     1       0.256  11.306  18.494  0.00  0.00    +0.000 N 
ATOM     15  O   UNL     1       0.346  10.614  20.655  0.00  0.00    +0.000 OA
ATOM     16  H   UNL     1       0.654  11.300  17.565  0.00  0.00    +0.000 HD
ATOM     17  H   UNL     1      -0.218  12.142  18.794  0.00  0.00    +0.000 HD
ENDBRANCH   9  13
ENDBRANCH   1  12
BRANCH   5  18
ATOM     18  C   UNL     1       6.541   6.678  17.856  0.00  0.00    +0.000 A 
ATOM     19  C   UNL     1       6.573   7.837  17.071  0.00  0.00    +0.000 A 
ATOM     20  C   UNL     1       7.412   8.925  17.443  0.00  0.00    +0.000 A 
ATOM     21  C   UNL     1       8.394   8.788  18.430  0.00  0.00    +0.000 A 
ATOM     22  C   UNL     1       8.578   7.519  18.981  0.00  0.00    +0.000 A 
ATOM     23  C   UNL     1       7.654   6.487  18.707  0.00  0.00    +0.000 A 
BRANCH  21  24
ATOM     24  C   UNL     1       9.199   9.947  18.833  0.00  0.00    +0.000 A 
ATOM     25  C   UNL     1       9.459  10.433  20.164  0.00  0.00    +0.000 A 
ATOM     26  C   UNL     1      10.138  11.636  20.169  0.00  0.00    +0.000 A 
ATOM     27  S   UNL     1      10.522  12.156  18.588  0.00  0.00    +0.000 S 
ATOM     28  C   UNL     1       9.759  10.789  17.894  0.00  0.00    +0.000 A 
ENDBRANCH  21  24
ENDBRANCH   5  18
BRANCH   2  29
ATOM     29  C   UNL     1       2.079   3.905  17.657  0.00  0.00    +0.000 C 
BRANCH  29  30
ATOM     30  C   UNL     1       1.722   2.528  18.232  0.00  0.00    +0.000 C 
BRANCH  30  31
ATOM     31  C   UNL     1       1.528   2.665  19.733  0.00  0.00    +0.000 C 
ATOM     32  O   UNL     1       2.377   2.413  20.584  0.00  0.00    +0.000 OA
BRANCH  31  33
ATOM     33  O   UNL     1       0.296   3.110  20.071  0.00  0.00    +0.000 OA
ATOM     34  H   UNL     1       0.294   3.982  20.512  0.00  0.00    +0.000 HD
ENDBRANCH  31  33
ENDBRANCH  30  31
ENDBRANCH  29  30
ENDBRANCH   2  29
TORSDOF 8
ENDMDL
MODEL 3
REMARK VINA RESULT:      -8.4      1.515      1.848
REMARK  Name = 
REMARK  9 active torsions:
REMARK  status: ('A' for Active; 'I' for Inactive)
REMARK    1  A    between atoms: C_1  and  C_2
REMARK    2  A    between atoms: C_4  and  C_5
REMARK    3  A    between atoms: C_10  and  N_11
REMARK    4  A    between atoms: C_12  and  C_13
REMARK    5  A    between atoms: C_13  and  C_14
REMARK    6  A    between atoms: C_14  and  C_15
REMARK    7  A    between atoms: C_15  and  O_17
REMARK    8  A    between atoms: C_20  and  C_21
REMARK    9  A    between atoms: C_24  and  C_25
REMARK                            x       y       z     vdW  Elec       q    Type
REMARK                         _______ _______ _______ _____ _____    ______ ____
ROOT
ATOM      1  N   UNL     1       3.451   4.709  19.399  0.00  0.00    +0.000 N 
ATOM      2  C   UNL     1       3.361   3.547  20.251  0.00  0.00    +0.000 A 
ATOM      3  C   UNL     1       2.312   3.702  21.131  0.00  0.00    +0.000 A 
ATOM      4  C   UNL     1       1.813   4.989  20.991  0.00  0.00    +0.000 A 
ATOM      5  C   UNL     1       2.529   5.684  20.020  0.00  0.00    +0.000 A 
ENDROOT
BRANCH   1  12
ATOM      6  C   UNL     1       6.511   5.463  19.318  0.00  0.00    +0.000 C 
ATOM      7  C   UNL     1       5.704   5.096  18.157  0.00  0.00    +0.000 A 
ATOM      8  C   UNL     1       6.519   4.965  17.011  0.00  0.00    +0.000 A 
ATOM      9  C   UNL     1       6.012   4.680  15.764  0.00  0.00    +0.000 A 
ATOM     10  C   UNL     1       4.651   4.477  15.679  0.00  0.00    +0.000 A 
ATOM     11  C   UNL     1       3.844   4.522  16.847  0.00  0.00    +0.000 A 
ATOM     12  C   UNL     1       4.325   4.772  18.156  0.00  0.00    +0.000 A 
BRANCH   9  13
ATOM     13  C   UNL     1       6.919   4.528  14.602  0.00  0.00    +0.000 C 
ATOM     14  N   UNL     1       6.584   3.574  13.662  0.00  0.00    +0.000 N 
ATOM     15  O   UNL     1       7.933   5.211  14.474  0.00  0.00    +0.000 OA
ATOM     16  H   UNL     1       5.908   2.844  13.834  0.00  0.00    +0.000 HD
ATOM     17  H   UNL     1       7.220   3.450  12.890  0.00  0.00    +0.000 HD
ENDBRANCH   9  13
ENDBRANCH   1  12
BRANCH   5  18
ATOM     18  C   UNL     1       2.166   7.128  19.756  0.00  0.00    +0.000 A 
ATOM     19  C   UNL     1       2.383   7.802  18.548  0.00  0.00    +0.000 A 
ATOM     20  C   UNL     1       1.633   8.973  18.244  0.00  0.00    +0.000 A 
ATOM     21  C   UNL     1       0.858   9.620  19.212  0.00  0.00    +0.000 A 
ATOM     22  C   UNL     1       0.913   9.121  20.515  0.00  0.00    +0.000 A 
ATOM     23  C   UNL     1       1.545   7.886  20.775  0.00  0.00    +0.000 A 
BRANCH  21  24
ATOM     24  C   UNL     1       0.048  10.787  18.849  0.00  0.00    +0.000 A 
ATOM     25  C   UNL     1      -1.265  10.813  18.257  0.00  0.00    +0.000 A 
ATOM     26  C   UNL     1      -1.669  12.088  17.913  0.00  0.00    +0.000 A 
ATOM     27  S   UNL     1      -0.511  13.263  18.351  0.00  0.00    +0.000 S 
ATOM     28  C   UNL     1       0.545  12.069  18.978  0.00  0.00    +0.000 A 
ENDBRANCH  21  24
ENDBRANCH   5  18
BRANCH   2  29
ATOM     29  C   UNL     1       4.234   2.313  20.184  0.00  0.00    +0.000 C 
BRANCH  29  30
ATOM     30  C   UNL     1       4.372   1.468  21.457  0.00  0.00    +0.000 C 
BRANCH  30  31
ATOM     31  C   UNL     1       5.632   0.626  21.345  0.00  0.00    +0.000 C 
ATOM     32  O   UNL     1       5.901  -0.129  20.415  0.00  0.00    +0.000 OA
BRANCH  31  33
ATOM     33  O   UNL     1       6.473   0.786  22.395  0.00  0.00    +0.000 OA
ATOM     34  H   UNL     1       7.377   0.453  22.235  0.00  0.00    +0.000 HD
ENDBRANCH  31  33
ENDBRANCH  30  31
ENDBRANCH  29  30
ENDBRANCH   2  29
TORSDOF 8
ENDMDL
MODEL 4
REMARK VINA RESULT:      -8.3      1.605      2.230
REMARK  Name = 
REMARK  9 active torsions:
REMARK  status: ('A' for Active; 'I' for Inactive)
REMARK    1  A    between atoms: C_1  and  C_2
REMARK    2  A    between atoms: C_4  and  C_5
REMARK    3  A    between atoms: C_10  and  N_11
REMARK    4  A    between atoms: C_12  and  C_13
REMARK    5  A    between atoms: C_13  and  C_14
REMARK    6  A    between atoms: C_14  and  C_15
REMARK    7  A    between atoms: C_15  and  O_17
REMARK    8  A    between atoms: C_20  and  C_21
REMARK    9  A    between atoms: C_24  and  C_25
REMARK                            x       y       z     vdW  Elec       q    Type
REMARK                         _______ _______ _______ _____ _____    ______ ____
ROOT
ATOM      1  N   UNL     1       3.610   4.425  19.427  0.00  0.00    +0.000 N 
ATOM      2  C   UNL     1       3.493   3.295  20.318  0.00  0.00    +0.000 A 
ATOM      3  C   UNL     1       2.433   3.494  21.177  0.00  0.00    +0.000 A 
ATOM      4  C   UNL     1       1.952   4.781  20.983  0.00  0.00    +0.000 A 
ATOM      5  C   UNL     1       2.690   5.432  19.998  0.00  0.00    +0.000 A 
ENDROOT
BRANCH   1  12
ATOM      6  C   UNL     1       2.882   3.243  16.596  0.00  0.00    +0.000 C 
ATOM      7  C   UNL     1       4.138   3.911  16.932  0.00  0.00    +0.000 A 
ATOM      8  C   UNL     1       4.920   4.102  15.772  0.00  0.00    +0.000 A 
ATOM      9  C   UNL     1       6.179   4.658  15.805  0.00  0.00    +0.000 A 
ATOM     10  C   UNL     1       6.641   5.074  17.035  0.00  0.00    +0.000 A 
ATOM     11  C   UNL     1       5.818   4.962  18.188  0.00  0.00    +0.000 A 
ATOM     12  C   UNL     1       4.503   4.433  18.197  0.00  0.00    +0.000 A 
BRANCH   9  13
ATOM     13  C   UNL     1       6.944   4.858  14.552  0.00  0.00    +0.000 C 
ATOM     14  N   UNL     1       6.541   4.138  13.446  0.00  0.00    +0.000 N 
ATOM     15  O   UNL     1       7.904   5.624  14.490  0.00  0.00    +0.000 OA
ATOM     16  H   UNL     1       5.923   3.340  13.503  0.00  0.00    +0.000 HD
ATOM     17  H   UNL     1       7.083   4.250  12.604  0.00  0.00    +0.000 HD
ENDBRANCH   9  13
ENDBRANCH   1  12
BRANCH   5  18
ATOM     18  C   UNL     1       2.349   6.869  19.678  0.00  0.00    +0.000 A 
ATOM     19  C   UNL     1       2.556   7.486  18.438  0.00  0.00    +0.000 A 
ATOM     20  C   UNL     1       1.822   8.656  18.095  0.00  0.00    +0.000 A 
ATOM     21  C   UNL     1       1.077   9.359  19.048  0.00  0.00    +0.000 A 
ATOM     22  C   UNL     1       1.146   8.917  20.370  0.00  0.00    +0.000 A 
ATOM     23  C   UNL     1       1.760   7.683  20.673  0.00  0.00    +0.000 A 
BRANCH  21  24
ATOM     24  C   UNL     1       0.281  10.525  18.647  0.00  0.00    +0.000 A 
ATOM     25  C   UNL     1       0.598  11.921  18.810  0.00  0.00    +0.000 A 
ATOM     26  C   UNL     1      -0.446  12.750  18.449  0.00  0.00    +0.000 A 
ATOM     27  S   UNL     1      -1.783  11.868  17.856  0.00  0.00    +0.000 S 
ATOM     28  C   UNL     1      -0.980  10.376  18.104  0.00  0.00    +0.000 A 
ENDBRANCH  21  24
ENDBRANCH   5  18
BRANCH   2  29
ATOM     29  C   UNL     1       4.352   2.050  20.309  0.00  0.00    +0.000 C 
BRANCH  29  30
ATOM     30  C   UNL     1       4.519   1.289  21.631  0.00  0.00    +0.000 C 
BRANCH  30  31
ATOM     31  C   UNL     1       5.807   0.486  21.569  0.00  0.00    +0.000 C 
ATOM     32  O   UNL     1       6.660   0.442  22.452  0.00  0.00    +0.000 OA
BRANCH  31  33
ATOM     33  O   UNL     1       5.945  -0.210  20.416  0.00  0.00    +0.000 OA
ATOM     34  H   UNL     1       5.245  -0.874  20.266  0.00  0.00    +0.000 HD
ENDBRANCH  31  33
ENDBRANCH  30  31
ENDBRANCH  29  30
ENDBRANCH   2  29
TORSDOF 8
ENDMDL
MODEL 5
REMARK VINA RESULT:      -8.3      4.095      6.758
REMARK  Name = 
REMARK  9 active torsions:
REMARK  status: ('A' for Active; 'I' for Inactive)
REMARK    1  A    between atoms: C_1  and  C_2
REMARK    2  A    between atoms: C_4  and  C_5
REMARK    3  A    between atoms: C_10  and  N_11
REMARK    4  A    between atoms: C_12  and  C_13
REMARK    5  A    between atoms: C_13  and  C_14
REMARK    6  A    between atoms: C_14  and  C_15
REMARK    7  A    between atoms: C_15  and  O_17
REMARK    8  A    between atoms: C_20  and  C_21
REMARK    9  A    between atoms: C_24  and  C_25
REMARK                            x       y       z     vdW  Elec       q    Type
REMARK                         _______ _______ _______ _____ _____    ______ ____
ROOT
ATOM      1  N   UNL     1       4.309   5.635  17.828  0.00  0.00    +0.000 N 
ATOM      2  C   UNL     1       3.953   4.291  17.439  0.00  0.00    +0.000 A 
ATOM      3  C   UNL     1       5.097   3.540  17.279  0.00  0.00    +0.000 A 
ATOM      4  C   UNL     1       6.192   4.384  17.394  0.00  0.00    +0.000 A 
ATOM      5  C   UNL     1       5.774   5.691  17.632  0.00  0.00    +0.000 A 
ENDROOT
BRANCH   1  12
ATOM      6  C   UNL     1       2.671   5.462  20.516  0.00  0.00    +0.000 C 
ATOM      7  C   UNL     1       2.597   6.560  19.555  0.00  0.00    +0.000 A 
ATOM      8  C   UNL     1       1.813   7.614  20.070  0.00  0.00    +0.000 A 
ATOM      9  C   UNL     1       1.529   8.753  19.351  0.00  0.00    +0.000 A 
ATOM     10  C   UNL     1       2.090   8.849  18.096  0.00  0.00    +0.000 A 
ATOM     11  C   UNL     1       2.950   7.827  17.613  0.00  0.00    +0.000 A 
ATOM     12  C   UNL     1       3.302   6.658  18.331  0.00  0.00    +0.000 A 
BRANCH   9  13
ATOM     13  C   UNL     1       0.721   9.840  19.953  0.00  0.00    +0.000 C 
ATOM     14  N   UNL     1       0.612   9.855  21.329  0.00  0.00    +0.000 N 
ATOM     15  O   UNL     1       0.160  10.691  19.266  0.00  0.00    +0.000 OA
ATOM     16  H   UNL     1       0.851   9.063  21.910  0.00  0.00    +0.000 HD
ATOM     17  H   UNL     1       0.035  10.574  21.734  0.00  0.00    +0.000 HD
ENDBRANCH   9  13
ENDBRANCH   1  12
BRANCH   5  18
ATOM     18  C   UNL     1       6.825   6.772  17.739  0.00  0.00    +0.000 A 
ATOM     19  C   UNL     1       6.856   7.940  16.966  0.00  0.00    +0.000 A 
ATOM     20  C   UNL     1       7.587   9.073  17.420  0.00  0.00    +0.000 A 
ATOM     21  C   UNL     1       8.482   8.986  18.493  0.00  0.00    +0.000 A 
ATOM     22  C   UNL     1       8.693   7.725  19.051  0.00  0.00    +0.000 A 
ATOM     23  C   UNL     1       7.865   6.641  18.687  0.00  0.00    +0.000 A 
BRANCH  21  24
ATOM     24  C   UNL     1       9.171  10.188  18.975  0.00  0.00    +0.000 A 
ATOM     25  C   UNL     1       9.403  10.598  20.336  0.00  0.00    +0.000 A 
ATOM     26  C   UNL     1       9.957  11.860  20.425  0.00  0.00    +0.000 A 
ATOM     27  S   UNL     1      10.261  12.532  18.885  0.00  0.00    +0.000 S 
ATOM     28  C   UNL     1       9.629  11.149  18.096  0.00  0.00    +0.000 A 
ENDBRANCH  21  24
ENDBRANCH   5  18
BRANCH   2  29
ATOM     29  C   UNL     1       2.552   3.745  17.272  0.00  0.00    +0.000 C 
BRANCH  29  30
ATOM     30  C   UNL     1       2.302   2.287  17.679  0.00  0.00    +0.000 C 
BRANCH  30  31
ATOM     31  C   UNL     1       1.336   2.271  18.852  0.00  0.00    +0.000 C 
ATOM     32  O   UNL     1       0.117   2.399  18.770  0.00  0.00    +0.000 OA
BRANCH  31  33
ATOM     33  O   UNL     1       1.951   2.092  20.044  0.00  0.00    +0.000 OA
ATOM     34  H   UNL     1       1.746   2.780  20.706  0.00  0.00    +0.000 HD
ENDBRANCH  31  33
ENDBRANCH  30  31
ENDBRANCH  29  30
ENDBRANCH   2  29
TORSDOF 8
ENDMDL
MODEL 6
REMARK VINA RESULT:      -8.1      1.895      2.521
REMARK  Name = 
REMARK  9 active torsions:
REMARK  status: ('A' for Active; 'I' for Inactive)
REMARK    1  A    between atoms: C_1  and  C_2
REMARK    2  A    between atoms: C_4  and  C_5
REMARK    3  A    between atoms: C_10  and  N_11
REMARK    4  A    between atoms: C_12  and  C_13
REMARK    5  A    between atoms: C_13  and  C_14
REMARK    6  A    between atoms: C_14  and  C_15
REMARK    7  A    between atoms: C_15  and  O_17
REMARK    8  A    between atoms: C_20  and  C_21
REMARK    9  A    between atoms: C_24  and  C_25
REMARK                            x       y       z     vdW  Elec       q    Type
REMARK                         _______ _______ _______ _____ _____    ______ ____
ROOT
ATOM      1  N   UNL     1       3.695   4.233  19.574  0.00  0.00    +0.000 N 
ATOM      2  C   UNL     1       3.642   3.116  20.487  0.00  0.00    +0.000 A 
ATOM      3  C   UNL     1       2.620   3.309  21.392  0.00  0.00    +0.000 A 
ATOM      4  C   UNL     1       2.107   4.584  21.203  0.00  0.00    +0.000 A 
ATOM      5  C   UNL     1       2.785   5.232  20.174  0.00  0.00    +0.000 A 
ENDROOT
BRANCH   1  12
ATOM      6  C   UNL     1       2.826   3.059  16.781  0.00  0.00    +0.000 C 
ATOM      7  C   UNL     1       4.100   3.720  17.056  0.00  0.00    +0.000 A 
ATOM      8  C   UNL     1       4.827   3.908  15.861  0.00  0.00    +0.000 A 
ATOM      9  C   UNL     1       6.088   4.458  15.833  0.00  0.00    +0.000 A 
ATOM     10  C   UNL     1       6.611   4.870  17.040  0.00  0.00    +0.000 A 
ATOM     11  C   UNL     1       5.843   4.760  18.231  0.00  0.00    +0.000 A 
ATOM     12  C   UNL     1       4.528   4.239  18.302  0.00  0.00    +0.000 A 
BRANCH   9  13
ATOM     13  C   UNL     1       6.794   4.656  14.545  0.00  0.00    +0.000 C 
ATOM     14  N   UNL     1       7.853   5.540  14.536  0.00  0.00    +0.000 N 
ATOM     15  O   UNL     1       6.453   4.069  13.520  0.00  0.00    +0.000 OA
ATOM     16  H   UNL     1       8.020   6.208  15.276  0.00  0.00    +0.000 HD
ATOM     17  H   UNL     1       8.310   5.699  13.653  0.00  0.00    +0.000 HD
ENDBRANCH   9  13
ENDBRANCH   1  12
BRANCH   5  18
ATOM     18  C   UNL     1       2.401   6.658  19.849  0.00  0.00    +0.000 A 
ATOM     19  C   UNL     1       2.568   7.269  18.600  0.00  0.00    +0.000 A 
ATOM     20  C   UNL     1       1.798   8.418  18.262  0.00  0.00    +0.000 A 
ATOM     21  C   UNL     1       1.055   9.111  19.224  0.00  0.00    +0.000 A 
ATOM     22  C   UNL     1       1.162   8.682  20.548  0.00  0.00    +0.000 A 
ATOM     23  C   UNL     1       1.812   7.465  20.849  0.00  0.00    +0.000 A 
BRANCH  21  24
ATOM     24  C   UNL     1       0.223  10.252  18.830  0.00  0.00    +0.000 A 
ATOM     25  C   UNL     1      -1.048  10.239  18.152  0.00  0.00    +0.000 A 
ATOM     26  C   UNL     1      -1.481  11.505  17.807  0.00  0.00    +0.000 A 
ATOM     27  S   UNL     1      -0.404  12.715  18.345  0.00  0.00    +0.000 S 
ATOM     28  C   UNL     1       0.656  11.550  19.018  0.00  0.00    +0.000 A 
ENDBRANCH  21  24
ENDBRANCH   5  18
BRANCH   2  29
ATOM     29  C   UNL     1       4.523   1.886  20.455  0.00  0.00    +0.000 C 
BRANCH  29  30
ATOM     30  C   UNL     1       4.576   1.015  21.717  0.00  0.00    +0.000 C 
BRANCH  30  31
ATOM     31  C   UNL     1       5.956   0.385  21.812  0.00  0.00    +0.000 C 
ATOM     32  O   UNL     1       6.312  -0.636  21.230  0.00  0.00    +0.000 OA
BRANCH  31  33
ATOM     33  O   UNL     1       6.799   1.071  22.620  0.00  0.00    +0.000 OA
ATOM     34  H   UNL     1       7.732   0.793  22.549  0.00  0.00    +0.000 HD
ENDBRANCH  31  33
ENDBRANCH  30  31
ENDBRANCH  29  30
ENDBRANCH   2  29
TORSDOF 8
ENDMDL
MODEL 7
REMARK VINA RESULT:      -8.1      1.057      1.536
REMARK  Name = 
REMARK  9 active torsions:
REMARK  status: ('A' for Active; 'I' for Inactive)
REMARK    1  A    between atoms: C_1  and  C_2
REMARK    2  A    between atoms: C_4  and  C_5
REMARK    3  A    between atoms: C_10  and  N_11
REMARK    4  A    between atoms: C_12  and  C_13
REMARK    5  A    between atoms: C_13  and  C_14
REMARK    6  A    between atoms: C_14  and  C_15
REMARK    7  A    between atoms: C_15  and  O_17
REMARK    8  A    between atoms: C_20  and  C_21
REMARK    9  A    between atoms: C_24  and  C_25
REMARK                            x       y       z     vdW  Elec       q    Type
REMARK                         _______ _______ _______ _____ _____    ______ ____
ROOT
ATOM      1  N   UNL     1       3.460   5.026  19.307  0.00  0.00    +0.000 N 
ATOM      2  C   UNL     1       3.460   3.930  20.247  0.00  0.00    +0.000 A 
ATOM      3  C   UNL     1       2.383   4.053  21.098  0.00  0.00    +0.000 A 
ATOM      4  C   UNL     1       1.770   5.273  20.850  0.00  0.00    +0.000 A 
ATOM      5  C   UNL     1       2.439   5.955  19.837  0.00  0.00    +0.000 A 
ENDROOT
BRANCH   1  12
ATOM      6  C   UNL     1       6.554   5.631  19.277  0.00  0.00    +0.000 C 
ATOM      7  C   UNL     1       5.744   5.331  18.099  0.00  0.00    +0.000 A 
ATOM      8  C   UNL     1       6.565   5.186  16.960  0.00  0.00    +0.000 A 
ATOM      9  C   UNL     1       6.059   4.956  15.700  0.00  0.00    +0.000 A 
ATOM     10  C   UNL     1       4.691   4.822  15.596  0.00  0.00    +0.000 A 
ATOM     11  C   UNL     1       3.874   4.880  16.757  0.00  0.00    +0.000 A 
ATOM     12  C   UNL     1       4.351   5.075  18.076  0.00  0.00    +0.000 A 
BRANCH   9  13
ATOM     13  C   UNL     1       6.971   4.787  14.544  0.00  0.00    +0.000 C 
ATOM     14  N   UNL     1       6.653   3.804  13.629  0.00  0.00    +0.000 N 
ATOM     15  O   UNL     1       7.976   5.481  14.401  0.00  0.00    +0.000 OA
ATOM     16  H   UNL     1       5.987   3.068  13.820  0.00  0.00    +0.000 HD
ATOM     17  H   UNL     1       7.292   3.668  12.863  0.00  0.00    +0.000 HD
ENDBRANCH   9  13
ENDBRANCH   1  12
BRANCH   5  18
ATOM     18  C   UNL     1       1.950   7.334  19.456  0.00  0.00    +0.000 A 
ATOM     19  C   UNL     1       1.198   8.176  20.285  0.00  0.00    +0.000 A 
ATOM     20  C   UNL     1       1.166   9.576  20.034  0.00  0.00    +0.000 A 
ATOM     21  C   UNL     1       1.658  10.118  18.842  0.00  0.00    +0.000 A 
ATOM     22  C   UNL     1       2.109   9.225  17.869  0.00  0.00    +0.000 A 
ATOM     23  C   UNL     1       2.266   7.857  18.181  0.00  0.00    +0.000 A 
BRANCH  21  24
ATOM     24  C   UNL     1       1.667  11.571  18.642  0.00  0.00    +0.000 A 
ATOM     25  C   UNL     1       2.679  12.380  18.012  0.00  0.00    +0.000 A 
ATOM     26  C   UNL     1       2.429  13.733  18.128  0.00  0.00    +0.000 A 
ATOM     27  S   UNL     1       0.955  14.041  18.933  0.00  0.00    +0.000 S 
ATOM     28  C   UNL     1       0.661  12.368  19.151  0.00  0.00    +0.000 A 
ENDBRANCH  21  24
ENDBRANCH   5  18
BRANCH   2  29
ATOM     29  C   UNL     1       4.444   2.781  20.289  0.00  0.00    +0.000 C 
BRANCH  29  30
ATOM     30  C   UNL     1       3.979   1.424  19.747  0.00  0.00    +0.000 C 
BRANCH  30  31
ATOM     31  C   UNL     1       3.383   1.632  18.365  0.00  0.00    +0.000 C 
ATOM     32  O   UNL     1       2.195   1.838  18.128  0.00  0.00    +0.000 OA
BRANCH  31  33
ATOM     33  O   UNL     1       4.303   1.575  17.375  0.00  0.00    +0.000 OA
ATOM     34  H   UNL     1       4.882   2.360  17.323  0.00  0.00    +0.000 HD
ENDBRANCH  31  33
ENDBRANCH  30  31
ENDBRANCH  29  30
ENDBRANCH   2  29
TORSDOF 8
ENDMDL
MODEL 8
REMARK VINA RESULT:      -8.0      3.962      6.888
REMARK  Name = 
REMARK  9 active torsions:
REMARK  status: ('A' for Active; 'I' for Inactive)
REMARK    1  A    between atoms: C_1  and  C_2
REMARK    2  A    between atoms: C_4  and  C_5
REMARK    3  A    between atoms: C_10  and  N_11
REMARK    4  A    between atoms: C_12  and  C_13
REMARK    5  A    between atoms: C_13  and  C_14
REMARK    6  A    between atoms: C_14  and  C_15
REMARK    7  A    between atoms: C_15  and  O_17
REMARK    8  A    between atoms: C_20  and  C_21
REMARK    9  A    between atoms: C_24  and  C_25
REMARK                            x       y       z     vdW  Elec       q    Type
REMARK                         _______ _______ _______ _____ _____    ______ ____
ROOT
ATOM      1  N   UNL     1       3.949   5.287  18.141  0.00  0.00    +0.000 N 
ATOM      2  C   UNL     1       3.476   4.018  17.642  0.00  0.00    +0.000 A 
ATOM      3  C   UNL     1       4.529   3.315  17.098  0.00  0.00    +0.000 A 
ATOM      4  C   UNL     1       5.642   4.144  17.081  0.00  0.00    +0.000 A 
ATOM      5  C   UNL     1       5.326   5.391  17.615  0.00  0.00    +0.000 A 
ENDROOT
BRANCH   1  12
ATOM      6  C   UNL     1       2.964   8.187  17.394  0.00  0.00    +0.000 C 
ATOM      7  C   UNL     1       2.672   7.497  18.648  0.00  0.00    +0.000 A 
ATOM      8  C   UNL     1       1.752   8.240  19.418  0.00  0.00    +0.000 A 
ATOM      9  C   UNL     1       1.343   7.851  20.674  0.00  0.00    +0.000 A 
ATOM     10  C   UNL     1       1.843   6.655  21.145  0.00  0.00    +0.000 A 
ATOM     11  C   UNL     1       2.701   5.865  20.334  0.00  0.00    +0.000 A 
ATOM     12  C   UNL     1       3.116   6.205  19.023  0.00  0.00    +0.000 A 
BRANCH   9  13
ATOM     13  C   UNL     1       0.354   8.658  21.425  0.00  0.00    +0.000 C 
ATOM     14  N   UNL     1       0.710   9.953  21.744  0.00  0.00    +0.000 N 
ATOM     15  O   UNL     1      -0.736   8.202  21.764  0.00  0.00    +0.000 OA
ATOM     16  H   UNL     1       1.661  10.291  21.697  0.00  0.00    +0.000 HD
ATOM     17  H   UNL     1       0.049  10.489  22.284  0.00  0.00    +0.000 HD
ENDBRANCH   9  13
ENDBRANCH   1  12
BRANCH   5  18
ATOM     18  C   UNL     1       6.401   6.454  17.637  0.00  0.00    +0.000 A 
ATOM     19  C   UNL     1       6.394   7.618  16.858  0.00  0.00    +0.000 A 
ATOM     20  C   UNL     1       7.177   8.740  17.251  0.00  0.00    +0.000 A 
ATOM     21  C   UNL     1       8.147   8.642  18.254  0.00  0.00    +0.000 A 
ATOM     22  C   UNL     1       8.379   7.379  18.801  0.00  0.00    +0.000 A 
ATOM     23  C   UNL     1       7.506   6.308  18.506  0.00  0.00    +0.000 A 
BRANCH  21  24
ATOM     24  C   UNL     1       8.892   9.832  18.677  0.00  0.00    +0.000 A 
ATOM     25  C   UNL     1       9.492  10.850  17.853  0.00  0.00    +0.000 A 
ATOM     26  C   UNL     1      10.243  11.752  18.581  0.00  0.00    +0.000 A 
ATOM     27  S   UNL     1      10.183  11.424  20.256  0.00  0.00    +0.000 S 
ATOM     28  C   UNL     1       9.175  10.061  20.009  0.00  0.00    +0.000 A 
ENDBRANCH  21  24
ENDBRANCH   5  18
BRANCH   2  29
ATOM     29  C   UNL     1       2.060   3.489  17.728  0.00  0.00    +0.000 C 
BRANCH  29  30
ATOM     30  C   UNL     1       1.827   2.209  18.541  0.00  0.00    +0.000 C 
BRANCH  30  31
ATOM     31  C   UNL     1       1.463   2.598  19.964  0.00  0.00    +0.000 C 
ATOM     32  O   UNL     1       2.137   2.354  20.961  0.00  0.00    +0.000 OA
BRANCH  31  33
ATOM     33  O   UNL     1       0.289   3.267  20.048  0.00  0.00    +0.000 OA
ATOM     34  H   UNL     1      -0.444   2.848  19.557  0.00  0.00    +0.000 HD
ENDBRANCH  31  33
ENDBRANCH  30  31
ENDBRANCH  29  30
ENDBRANCH   2  29
TORSDOF 8
ENDMDL
MODEL 9
REMARK VINA RESULT:      -7.9      5.808      9.523
REMARK  Name = 
REMARK  9 active torsions:
REMARK  status: ('A' for Active; 'I' for Inactive)
REMARK    1  A    between atoms: C_1  and  C_2
REMARK    2  A    between atoms: C_4  and  C_5
REMARK    3  A    between atoms: C_10  and  N_11
REMARK    4  A    between atoms: C_12  and  C_13
REMARK    5  A    between atoms: C_13  and  C_14
REMARK    6  A    between atoms: C_14  and  C_15
REMARK    7  A    between atoms: C_15  and  O_17
REMARK    8  A    between atoms: C_20  and  C_21
REMARK    9  A    between atoms: C_24  and  C_25
REMARK                            x       y       z     vdW  Elec       q    Type
REMARK                         _______ _______ _______ _____ _____    ______ ____
ROOT
ATOM      1  N   UNL     1       0.264  11.311  21.256  0.00  0.00    +0.000 N 
ATOM      2  C   UNL     1      -0.569  11.515  22.417  0.00  0.00    +0.000 A 
ATOM      3  C   UNL     1      -0.710  10.325  23.098  0.00  0.00    +0.000 A 
ATOM      4  C   UNL     1      -0.129   9.319  22.339  0.00  0.00    +0.000 A 
ATOM      5  C   UNL     1       0.395   9.842  21.160  0.00  0.00    +0.000 A 
ENDROOT
BRANCH   1  12
ATOM      6  C   UNL     1      -1.072  12.582  18.699  0.00  0.00    +0.000 C 
ATOM      7  C   UNL     1       0.195  13.010  19.287  0.00  0.00    +0.000 A 
ATOM      8  C   UNL     1       0.663  14.180  18.651  0.00  0.00    +0.000 A 
ATOM      9  C   UNL     1       1.865  14.772  18.968  0.00  0.00    +0.000 A 
ATOM     10  C   UNL     1       2.592  14.192  19.986  0.00  0.00    +0.000 A 
ATOM     11  C   UNL     1       2.078  13.066  20.684  0.00  0.00    +0.000 A 
ATOM     12  C   UNL     1       0.831  12.448  20.420  0.00  0.00    +0.000 A 
BRANCH   9  13
ATOM     13  C   UNL     1       2.294  16.014  18.285  0.00  0.00    +0.000 C 
ATOM     14  N   UNL     1       3.502  15.982  17.618  0.00  0.00    +0.000 N 
ATOM     15  O   UNL     1       1.615  17.039  18.311  0.00  0.00    +0.000 OA
ATOM     16  H   UNL     1       4.191  15.257  17.761  0.00  0.00    +0.000 HD
ATOM     17  H   UNL     1       3.807  16.838  17.183  0.00  0.00    +0.000 HD
ENDBRANCH   9  13
ENDBRANCH   1  12
BRANCH   5  18
ATOM     18  C   UNL     1       1.028   8.888  20.172  0.00  0.00    +0.000 A 
ATOM     19  C   UNL     1       1.263   9.172  18.821  0.00  0.00    +0.000 A 
ATOM     20  C   UNL     1       2.234   8.425  18.096  0.00  0.00    +0.000 A 
ATOM     21  C   UNL     1       2.791   7.251  18.614  0.00  0.00    +0.000 A 
ATOM     22  C   UNL     1       2.298   6.792  19.837  0.00  0.00    +0.000 A 
ATOM     23  C   UNL     1       1.442   7.608  20.607  0.00  0.00    +0.000 A 
BRANCH  21  24
ATOM     24  C   UNL     1       3.835   6.540  17.868  0.00  0.00    +0.000 A 
ATOM     25  C   UNL     1       4.599   7.005  16.739  0.00  0.00    +0.000 A 
ATOM     26  C   UNL     1       5.396   6.018  16.192  0.00  0.00    +0.000 A 
ATOM     27  S   UNL     1       5.283   4.553  17.062  0.00  0.00    +0.000 S 
ATOM     28  C   UNL     1       4.149   5.226  18.156  0.00  0.00    +0.000 A 
ENDBRANCH  21  24
ENDBRANCH   5  18
BRANCH   2  29
ATOM     29  C   UNL     1      -1.172  12.826  22.872  0.00  0.00    +0.000 C 
BRANCH  29  30
ATOM     30  C   UNL     1      -2.657  13.070  22.572  0.00  0.00    +0.000 C 
BRANCH  30  31
ATOM     31  C   UNL     1      -3.449  12.874  23.854  0.00  0.00    +0.000 C 
ATOM     32  O   UNL     1      -4.046  11.848  24.170  0.00  0.00    +0.000 OA
BRANCH  31  33
ATOM     33  O   UNL     1      -3.439  13.964  24.657  0.00  0.00    +0.000 OA
ATOM     34  H   UNL     1      -4.313  14.386  24.766  0.00  0.00    +0.000 HD
ENDBRANCH  31  33
ENDBRANCH  30  31
ENDBRANCH  29  30
ENDBRANCH   2  29
TORSDOF 8
ENDMDL
