MODEL 1
REMARK VINA RESULT:      -8.7      0.000      0.000
REMARK  Name = 
REMARK  8 active torsions:
REMARK  status: ('A' for Active; 'I' for Inactive)
REMARK    1  A    between atoms: C_1  and  C_2
REMARK    2  A    between atoms: C_2  and  O_3
REMARK    3  A    between atoms: O_3  and  C_4
REMARK    4  A    between atoms: N_9  and  C_10
REMARK    5  A    between atoms: C_10  and  C_11
REMARK    6  A    between atoms: C_13  and  N_14
REMARK    7  A    between atoms: N_14  and  C_15
REMARK    8  A    between atoms: C_28  and  O_29
REMARK                            x       y       z     vdW  Elec       q    Type
REMARK                         _______ _______ _______ _____ _____    ______ ____
ROOT
ATOM      1  C   UNL     1       3.976   4.607  19.348  0.00  0.00    +0.000 A 
ATOM      2  C   UNL     1       3.438   5.758  19.957  0.00  0.00    +0.000 A 
ATOM      3  C   UNL     1       2.157   5.751  20.526  0.00  0.00    +0.000 A 
ATOM      4  C   UNL     1       1.385   4.585  20.398  0.00  0.00    +0.000 A 
ATOM      5  C   UNL     1       1.907   3.430  19.819  0.00  0.00    +0.000 A 
ATOM      6  C   UNL     1       3.203   3.439  19.321  0.00  0.00    +0.000 A 
ENDROOT
BRANCH   3   7
ATOM      7  N   UNL     1       1.650   6.910  21.149  0.00  0.00    +0.000 N 
ATOM      8  H   UNL     1       1.440   6.822  22.136  0.00  0.00    +0.000 HD
BRANCH   7   9
ATOM      9  C   UNL     1       1.345   8.156  20.556  0.00  0.00    +0.000 A 
ATOM     10  C   UNL     1       1.707   8.353  19.224  0.00  0.00    +0.000 A 
ATOM     11  C   UNL     1       1.358   9.536  18.608  0.00  0.00    +0.000 A 
ATOM     12  N   UNL     1       0.660  10.514  19.211  0.00  0.00    +0.000 NA
ATOM     13  C   UNL     1       0.294  10.337  20.489  0.00  0.00    +0.000 A 
ATOM     14  C   UNL     1      -0.456  11.340  21.077  0.00  0.00    +0.000 A 
ATOM     15  C   UNL     1      -0.901  11.239  22.389  0.00  0.00    +0.000 A 
ATOM     16 CL   UNL     1      -1.861  12.497  23.065  0.00  0.00    +0.000 Cl
ATOM     17  C   UNL     1      -0.585  10.118  23.147  0.00  0.00    +0.000 A 
ATOM     18  C   UNL     1       0.170   9.092  22.575  0.00  0.00    +0.000 A 
ATOM     19  C   UNL     1       0.620   9.172  21.231  0.00  0.00    +0.000 A 
ENDBRANCH   7   9
ENDBRANCH   3   7
BRANCH   6  20
ATOM     20  O   UNL     1       3.737   2.291  18.806  0.00  0.00    +0.000 OA
ATOM     21  H   UNL     1       4.692   2.416  18.682  0.00  0.00    +0.000 HD
ENDBRANCH   6  20
BRANCH   1  22
ATOM     22  C   UNL     1       5.353   4.646  18.720  0.00  0.00    +0.000 C 
BRANCH  22  28
ATOM     23  C   UNL     1       6.336   4.044  13.890  0.00  0.00    +0.000 C 
ATOM     24  O   UNL     1       7.469   3.997  13.425  0.00  0.00    +0.000 OA
ATOM     25  N   UNL     1       6.052   4.242  15.222  0.00  0.00    +0.000 N 
ATOM     26  C   UNL     1       7.137   4.442  16.182  0.00  0.00    +0.000 C 
ATOM     27  C   UNL     1       6.879   5.665  17.088  0.00  0.00    +0.000 C 
ATOM     28  N   UNL     1       5.534   5.715  17.715  0.00  0.00    +0.000 NA
ATOM     29  C   UNL     1       4.523   5.581  16.637  0.00  0.00    +0.000 C 
ATOM     30  C   UNL     1       4.693   4.324  15.758  0.00  0.00    +0.000 C 
BRANCH  23  31
ATOM     31  O   UNL     1       5.207   3.996  13.137  0.00  0.00    +0.000 OA
BRANCH  31  33
ATOM     32  C   UNL     1       3.959   3.281  11.231  0.00  0.00    +0.000 C 
ATOM     33  C   UNL     1       5.278   3.162  11.977  0.00  0.00    +0.000 C 
ENDBRANCH  31  33
ENDBRANCH  23  31
ENDBRANCH  22  28
ENDBRANCH   1  22
TORSDOF 7
ENDMDL
MODEL 2
REMARK VINA RESULT:      -8.5      0.955      1.010
REMARK  Name = 
REMARK  8 active torsions:
REMARK  status: ('A' for Active; 'I' for Inactive)
REMARK    1  A    between atoms: C_1  and  C_2
REMARK    2  A    between atoms: C_2  and  O_3
REMARK    3  A    between atoms: O_3  and  C_4
REMARK    4  A    between atoms: N_9  and  C_10
REMARK    5  A    between atoms: C_10  and  C_11
REMARK    6  A    between atoms: C_13  and  N_14
REMARK    7  A    between atoms: N_14  and  C_15
REMARK    8  A    between atoms: C_28  and  O_29
REMARK                            x       y       z     vdW  Elec       q    Type
REMARK                         _______ _______ _______ _____ _____    ______ ____
ROOT
ATOM      1  C   UNL     1       4.272   4.149  19.513  0.00  0.00    +0.000 A 
ATOM      2  C   UNL     1       3.453   5.246  19.853  0.00  0.00    +0.000 A 
ATOM      3  C   UNL     1       2.381   5.107  20.745  0.00  0.00    +0.000 A 
ATOM      4  C   UNL     1       2.089   3.823  21.230  0.00  0.00    +0.000 A 
ATOM      5  C   UNL     1       2.899   2.730  20.924  0.00  0.00    +0.000 A 
ATOM      6  C   UNL     1       3.996   2.903  20.090  0.00  0.00    +0.000 A 
ENDROOT
BRANCH   3   7
ATOM      7  N   UNL     1       1.591   6.224  21.084  0.00  0.00    +0.000 N 
ATOM      8  H   UNL     1       0.956   6.093  21.862  0.00  0.00    +0.000 HD
BRANCH   7   9
ATOM      9  C   UNL     1       1.534   7.480  20.440  0.00  0.00    +0.000 A 
ATOM     10  C   UNL     1       2.012   7.567  19.133  0.00  0.00    +0.000 A 
ATOM     11  C   UNL     1       1.902   8.767  18.463  0.00  0.00    +0.000 A 
ATOM     12  N   UNL     1       1.333   9.866  18.989  0.00  0.00    +0.000 NA
ATOM     13  C   UNL     1       0.858   9.797  20.241  0.00  0.00    +0.000 A 
ATOM     14  C   UNL     1       0.244  10.929  20.748  0.00  0.00    +0.000 A 
ATOM     15  C   UNL     1      -0.298  10.949  22.026  0.00  0.00    +0.000 A 
ATOM     16 CL   UNL     1      -1.085  12.369  22.599  0.00  0.00    +0.000 Cl
ATOM     17  C   UNL     1      -0.221   9.821  22.834  0.00  0.00    +0.000 A 
ATOM     18  C   UNL     1       0.393   8.666  22.343  0.00  0.00    +0.000 A 
ATOM     19  C   UNL     1       0.940   8.624  21.034  0.00  0.00    +0.000 A 
ENDBRANCH   7   9
ENDBRANCH   3   7
BRANCH   6  20
ATOM     20  O   UNL     1       4.824   1.847  19.837  0.00  0.00    +0.000 OA
ATOM     21  H   UNL     1       5.301   1.618  20.652  0.00  0.00    +0.000 HD
ENDBRANCH   6  20
BRANCH   1  22
ATOM     22  C   UNL     1       5.409   4.319  18.529  0.00  0.00    +0.000 C 
BRANCH  22  28
ATOM     23  C   UNL     1       7.270   4.972  13.972  0.00  0.00    +0.000 C 
ATOM     24  O   UNL     1       8.394   5.406  13.750  0.00  0.00    +0.000 OA
ATOM     25  N   UNL     1       6.733   4.817  15.229  0.00  0.00    +0.000 N 
ATOM     26  C   UNL     1       7.503   5.208  16.410  0.00  0.00    +0.000 C 
ATOM     27  C   UNL     1       6.669   6.081  17.372  0.00  0.00    +0.000 C 
ATOM     28  N   UNL     1       5.326   5.545  17.708  0.00  0.00    +0.000 NA
ATOM     29  C   UNL     1       4.616   5.262  16.435  0.00  0.00    +0.000 C 
ATOM     30  C   UNL     1       5.379   4.323  15.477  0.00  0.00    +0.000 C 
BRANCH  23  31
ATOM     31  O   UNL     1       6.371   4.669  13.000  0.00  0.00    +0.000 OA
BRANCH  31  33
ATOM     32  C   UNL     1       5.459   2.718  11.969  0.00  0.00    +0.000 C 
ATOM     33  C   UNL     1       6.713   3.552  12.174  0.00  0.00    +0.000 C 
ENDBRANCH  31  33
ENDBRANCH  23  31
ENDBRANCH  22  28
ENDBRANCH   1  22
TORSDOF 7
ENDMDL
MODEL 3
REMARK VINA RESULT:      -8.3      5.473     10.860
REMARK  Name = 
REMARK  8 active torsions:
REMARK  status: ('A' for Active; 'I' for Inactive)
REMARK    1  A    between atoms: C_1  and  C_2
REMARK    2  A    between atoms: C_2  and  O_3
REMARK    3  A    between atoms: O_3  and  C_4
REMARK    4  A    between atoms: N_9  and  C_10
REMARK    5  A    between atoms: C_10  and  C_11
REMARK    6  A    between atoms: C_13  and  N_14
REMARK    7  A    between atoms: N_14  and  C_15
REMARK    8  A    between atoms: C_28  and  O_29
REMARK                            x       y       z     vdW  Elec       q    Type
REMARK                         _______ _______ _______ _____ _____    ______ ____
ROOT
ATOM      1  C   UNL     1       0.261   9.958  20.004  0.00  0.00    +0.000 A 
ATOM      2  C   UNL     1       0.899   8.810  20.517  0.00  0.00    +0.000 A 
ATOM      3  C   UNL     1       1.836   8.096  19.757  0.00  0.00    +0.000 A 
ATOM      4  C   UNL     1       2.062   8.506  18.434  0.00  0.00    +0.000 A 
ATOM      5  C   UNL     1       1.458   9.651  17.917  0.00  0.00    +0.000 A 
ATOM      6  C   UNL     1       0.583  10.381  18.709  0.00  0.00    +0.000 A 
ENDROOT
BRANCH   3   7
ATOM      7  N   UNL     1       2.476   6.964  20.301  0.00  0.00    +0.000 N 
ATOM      8  H   UNL     1       3.039   7.132  21.127  0.00  0.00    +0.000 HD
BRANCH   7   9
ATOM      9  C   UNL     1       2.476   5.640  19.807  0.00  0.00    +0.000 A 
ATOM     10  C   UNL     1       1.500   4.764  20.282  0.00  0.00    +0.000 A 
ATOM     11  C   UNL     1       1.441   3.489  19.762  0.00  0.00    +0.000 A 
ATOM     12  N   UNL     1       2.260   3.039  18.795  0.00  0.00    +0.000 NA
ATOM     13  C   UNL     1       3.197   3.871  18.318  0.00  0.00    +0.000 A 
ATOM     14  C   UNL     1       4.003   3.398  17.298  0.00  0.00    +0.000 A 
ATOM     15  C   UNL     1       4.987   4.192  16.724  0.00  0.00    +0.000 A 
ATOM     16 CL   UNL     1       5.941   3.572  15.433  0.00  0.00    +0.000 Cl
ATOM     17  C   UNL     1       5.190   5.489  17.180  0.00  0.00    +0.000 A 
ATOM     18  C   UNL     1       4.388   5.989  18.209  0.00  0.00    +0.000 A 
ATOM     19  C   UNL     1       3.368   5.196  18.797  0.00  0.00    +0.000 A 
ENDBRANCH   7   9
ENDBRANCH   3   7
BRANCH   6  20
ATOM     20  O   UNL     1       0.036  11.536  18.223  0.00  0.00    +0.000 OA
ATOM     21  H   UNL     1       0.666  12.263  18.357  0.00  0.00    +0.000 HD
ENDBRANCH   6  20
BRANCH   1  22
ATOM     22  C   UNL     1      -0.765  10.698  20.835  0.00  0.00    +0.000 C 
BRANCH  22  28
ATOM     23  C   UNL     1      -2.594  14.930  22.679  0.00  0.00    +0.000 C 
ATOM     24  O   UNL     1      -2.285  16.042  22.270  0.00  0.00    +0.000 OA
ATOM     25  N   UNL     1      -2.070  13.753  22.197  0.00  0.00    +0.000 N 
ATOM     26  C   UNL     1      -1.053  13.778  21.146  0.00  0.00    +0.000 C 
ATOM     27  C   UNL     1       0.152  12.879  21.495  0.00  0.00    +0.000 C 
ATOM     28  N   UNL     1      -0.193  11.503  21.935  0.00  0.00    +0.000 NA
ATOM     29  C   UNL     1      -1.166  11.611  23.050  0.00  0.00    +0.000 C 
ATOM     30  C   UNL     1      -2.428  12.433  22.716  0.00  0.00    +0.000 C 
BRANCH  23  31
ATOM     31  O   UNL     1      -3.431  14.715  23.728  0.00  0.00    +0.000 OA
BRANCH  31  33
ATOM     32  C   UNL     1      -2.213  15.273  25.704  0.00  0.00    +0.000 C 
ATOM     33  C   UNL     1      -3.352  15.679  24.783  0.00  0.00    +0.000 C 
ENDBRANCH  31  33
ENDBRANCH  23  31
ENDBRANCH  22  28
ENDBRANCH   1  22
TORSDOF 7
ENDMDL
MODEL 4
REMARK VINA RESULT:      -8.2      4.142      8.922
REMARK  Name = 
REMARK  8 active torsions:
REMARK  status: ('A' for Active; 'I' for Inactive)
REMARK    1  A    between atoms: C_1  and  C_2
REMARK    2  A    between atoms: C_2  and  O_3
REMARK    3  A    between atoms: O_3  and  C_4
REMARK    4  A    between atoms: N_9  and  C_10
REMARK    5  A    between atoms: C_10  and  C_11
REMARK    6  A    between atoms: C_13  and  N_14
REMARK    7  A    between atoms: N_14  and  C_15
REMARK    8  A    between atoms: C_28  and  O_29
REMARK                            x       y       z     vdW  Elec       q    Type
REMARK                         _______ _______ _______ _____ _____    ______ ____
ROOT
ATOM      1  C   UNL     1       2.210   5.031  19.833  0.00  0.00    +0.000 A 
ATOM      2  C   UNL     1       3.570   5.077  19.464  0.00  0.00    +0.000 A 
ATOM      3  C   UNL     1       4.365   3.923  19.465  0.00  0.00    +0.000 A 
ATOM      4  C   UNL     1       3.792   2.728  19.926  0.00  0.00    +0.000 A 
ATOM      5  C   UNL     1       2.444   2.657  20.275  0.00  0.00    +0.000 A 
ATOM      6  C   UNL     1       1.658   3.799  20.204  0.00  0.00    +0.000 A 
ENDROOT
BRANCH   3   7
ATOM      7  N   UNL     1       5.717   3.992  19.070  0.00  0.00    +0.000 N 
ATOM      8  H   UNL     1       6.347   3.361  19.550  0.00  0.00    +0.000 HD
BRANCH   7   9
ATOM      9  C   UNL     1       6.308   4.868  18.132  0.00  0.00    +0.000 A 
ATOM     10  C   UNL     1       7.000   5.977  18.619  0.00  0.00    +0.000 A 
ATOM     11  C   UNL     1       7.641   6.806  17.724  0.00  0.00    +0.000 A 
ATOM     12  N   UNL     1       7.664   6.596  16.396  0.00  0.00    +0.000 NA
ATOM     13  C   UNL     1       7.013   5.528  15.911  0.00  0.00    +0.000 A 
ATOM     14  C   UNL     1       7.082   5.312  14.546  0.00  0.00    +0.000 A 
ATOM     15  C   UNL     1       6.460   4.222  13.953  0.00  0.00    +0.000 A 
ATOM     16 CL   UNL     1       6.603   3.974  12.256  0.00  0.00    +0.000 Cl
ATOM     17  C   UNL     1       5.737   3.323  14.730  0.00  0.00    +0.000 A 
ATOM     18  C   UNL     1       5.655   3.521  16.110  0.00  0.00    +0.000 A 
ATOM     19  C   UNL     1       6.297   4.622  16.735  0.00  0.00    +0.000 A 
ENDBRANCH   7   9
ENDBRANCH   3   7
BRANCH   6  20
ATOM     20  O   UNL     1       0.324   3.719  20.488  0.00  0.00    +0.000 OA
ATOM     21  H   UNL     1       0.184   3.970  21.416  0.00  0.00    +0.000 HD
ENDBRANCH   6  20
BRANCH   1  22
ATOM     22  C   UNL     1       1.379   6.296  19.847  0.00  0.00    +0.000 C 
BRANCH  22  28
ATOM     23  C   UNL     1      -0.308  10.963  19.661  0.00  0.00    +0.000 C 
ATOM     24  O   UNL     1      -0.237  11.675  18.667  0.00  0.00    +0.000 OA
ATOM     25  N   UNL     1       0.184   9.680  19.733  0.00  0.00    +0.000 N 
ATOM     26  C   UNL     1       0.871   9.091  18.583  0.00  0.00    +0.000 C 
ATOM     27  C   UNL     1       2.211   8.441  18.990  0.00  0.00    +0.000 C 
ATOM     28  N   UNL     1       2.141   7.524  20.155  0.00  0.00    +0.000 NA
ATOM     29  C   UNL     1       1.500   8.257  21.275  0.00  0.00    +0.000 C 
ATOM     30  C   UNL     1       0.117   8.852  20.938  0.00  0.00    +0.000 C 
BRANCH  23  31
ATOM     31  O   UNL     1      -0.804  11.379  20.856  0.00  0.00    +0.000 OA
BRANCH  31  33
ATOM     32  C   UNL     1      -0.935  12.975  22.626  0.00  0.00    +0.000 C 
ATOM     33  C   UNL     1      -0.092  12.455  21.474  0.00  0.00    +0.000 C 
ENDBRANCH  31  33
ENDBRANCH  23  31
ENDBRANCH  22  28
ENDBRANCH   1  22
TORSDOF 7
ENDMDL
MODEL 5
REMARK VINA RESULT:      -7.9      3.653      8.339
REMARK  Name = 
REMARK  8 active torsions:
REMARK  status: ('A' for Active; 'I' for Inactive)
REMARK    1  A    between atoms: C_1  and  C_2
REMARK    2  A    between atoms: C_2  and  O_3
REMARK    3  A    between atoms: O_3  and  C_4
REMARK    4  A    between atoms: N_9  and  C_10
REMARK    5  A    between atoms: C_10  and  C_11
REMARK    6  A    between atoms: C_13  and  N_14
REMARK    7  A    between atoms: N_14  and  C_15
REMARK    8  A    between atoms: C_28  and  O_29
REMARK                            x       y       z     vdW  Elec       q    Type
REMARK                         _______ _______ _______ _____ _____    ______ ____
ROOT
ATOM      1  C   UNL     1       1.962   4.524  18.814  0.00  0.00    +0.000 A 
ATOM      2  C   UNL     1       3.102   4.276  18.023  0.00  0.00    +0.000 A 
ATOM      3  C   UNL     1       3.615   2.981  17.869  0.00  0.00    +0.000 A 
ATOM      4  C   UNL     1       3.013   1.942  18.595  0.00  0.00    +0.000 A 
ATOM      5  C   UNL     1       1.872   2.163  19.365  0.00  0.00    +0.000 A 
ATOM      6  C   UNL     1       1.340   3.443  19.451  0.00  0.00    +0.000 A 
ENDROOT
BRANCH   3   7
ATOM      7  N   UNL     1       4.744   2.757  17.055  0.00  0.00    +0.000 N 
ATOM      8  H   UNL     1       5.065   1.798  17.002  0.00  0.00    +0.000 HD
BRANCH   7   9
ATOM      9  C   UNL     1       5.516   3.710  16.352  0.00  0.00    +0.000 A 
ATOM     10  C   UNL     1       5.456   3.701  14.958  0.00  0.00    +0.000 A 
ATOM     11  C   UNL     1       6.147   4.666  14.257  0.00  0.00    +0.000 A 
ATOM     12  N   UNL     1       6.865   5.642  14.840  0.00  0.00    +0.000 NA
ATOM     13  C   UNL     1       6.924   5.672  16.180  0.00  0.00    +0.000 A 
ATOM     14  C   UNL     1       7.638   6.707  16.757  0.00  0.00    +0.000 A 
ATOM     15  C   UNL     1       7.740   6.837  18.136  0.00  0.00    +0.000 A 
ATOM     16 CL   UNL     1       8.608   8.162  18.809  0.00  0.00    +0.000 Cl
ATOM     17  C   UNL     1       7.129   5.908  18.970  0.00  0.00    +0.000 A 
ATOM     18  C   UNL     1       6.402   4.855  18.409  0.00  0.00    +0.000 A 
ATOM     19  C   UNL     1       6.275   4.716  17.002  0.00  0.00    +0.000 A 
ENDBRANCH   7   9
ENDBRANCH   3   7
BRANCH   6  20
ATOM     20  O   UNL     1       0.189   3.649  20.157  0.00  0.00    +0.000 OA
ATOM     21  H   UNL     1      -0.479   4.035  19.565  0.00  0.00    +0.000 HD
ENDBRANCH   6  20
BRANCH   1  22
ATOM     22  C   UNL     1       1.440   5.934  18.983  0.00  0.00    +0.000 C 
BRANCH  22  28
ATOM     23  C   UNL     1       0.687  10.681  20.232  0.00  0.00    +0.000 C 
ATOM     24  O   UNL     1       0.686  11.606  19.429  0.00  0.00    +0.000 OA
ATOM     25  N   UNL     1       0.926   9.367  19.901  0.00  0.00    +0.000 N 
ATOM     26  C   UNL     1       1.231   9.002  18.518  0.00  0.00    +0.000 C 
ATOM     27  C   UNL     1       2.475   8.092  18.429  0.00  0.00    +0.000 C 
ATOM     28  N   UNL     1       2.473   6.926  19.350  0.00  0.00    +0.000 NA
ATOM     29  C   UNL     1       2.233   7.431  20.725  0.00  0.00    +0.000 C 
ATOM     30  C   UNL     1       0.952   8.277  20.877  0.00  0.00    +0.000 C 
BRANCH  23  31
ATOM     31  O   UNL     1       0.541  10.844  21.573  0.00  0.00    +0.000 OA
BRANCH  31  33
ATOM     32  C   UNL     1      -1.296  11.169  23.062  0.00  0.00    +0.000 C 
ATOM     33  C   UNL     1      -0.447  11.799  21.971  0.00  0.00    +0.000 C 
ENDBRANCH  31  33
ENDBRANCH  23  31
ENDBRANCH  22  28
ENDBRANCH   1  22
TORSDOF 7
ENDMDL
MODEL 6
REMARK VINA RESULT:      -7.8      2.622      3.810
REMARK  Name = 
REMARK  8 active torsions:
REMARK  status: ('A' for Active; 'I' for Inactive)
REMARK    1  A    between atoms: C_1  and  C_2
REMARK    2  A    between atoms: C_2  and  O_3
REMARK    3  A    between atoms: O_3  and  C_4
REMARK    4  A    between atoms: N_9  and  C_10
REMARK    5  A    between atoms: C_10  and  C_11
REMARK    6  A    between atoms: C_13  and  N_14
REMARK    7  A    between atoms: N_14  and  C_15
REMARK    8  A    between atoms: C_28  and  O_29
REMARK                            x       y       z     vdW  Elec       q    Type
REMARK                         _______ _______ _______ _____ _____    ______ ____
ROOT
ATOM      1  C   UNL     1       2.437   6.992  18.724  0.00  0.00    +0.000 A 
ATOM      2  C   UNL     1       2.035   8.233  18.190  0.00  0.00    +0.000 A 
ATOM      3  C   UNL     1       1.432   9.211  18.992  0.00  0.00    +0.000 A 
ATOM      4  C   UNL     1       1.161   8.892  20.331  0.00  0.00    +0.000 A 
ATOM      5  C   UNL     1       1.570   7.679  20.884  0.00  0.00    +0.000 A 
ATOM      6  C   UNL     1       2.225   6.749  20.087  0.00  0.00    +0.000 A 
ENDROOT
BRANCH   3   7
ATOM      7  N   UNL     1       1.059  10.453  18.437  0.00  0.00    +0.000 N 
ATOM      8  H   UNL     1       1.592  10.751  17.629  0.00  0.00    +0.000 HD
BRANCH   7   9
ATOM      9  C   UNL     1       0.076  11.355  18.901  0.00  0.00    +0.000 A 
ATOM     10  C   UNL     1       0.504  12.493  19.586  0.00  0.00    +0.000 A 
ATOM     11  C   UNL     1      -0.435  13.419  19.987  0.00  0.00    +0.000 A 
ATOM     12  N   UNL     1      -1.751  13.307  19.734  0.00  0.00    +0.000 NA
ATOM     13  C   UNL     1      -2.178  12.225  19.067  0.00  0.00    +0.000 A 
ATOM     14  C   UNL     1      -3.531  12.149  18.786  0.00  0.00    +0.000 A 
ATOM     15  C   UNL     1      -4.066  11.080  18.081  0.00  0.00    +0.000 A 
ATOM     16 CL   UNL     1      -5.750  11.047  17.724  0.00  0.00    +0.000 Cl
ATOM     17  C   UNL     1      -3.243  10.046  17.651  0.00  0.00    +0.000 A 
ATOM     18  C   UNL     1      -1.873  10.101  17.922  0.00  0.00    +0.000 A 
ATOM     19  C   UNL     1      -1.307  11.195  18.629  0.00  0.00    +0.000 A 
ENDBRANCH   7   9
ENDBRANCH   3   7
BRANCH   6  20
ATOM     20  O   UNL     1       2.679   5.586  20.642  0.00  0.00    +0.000 OA
ATOM     21  H   UNL     1       3.282   5.800  21.373  0.00  0.00    +0.000 HD
ENDBRANCH   6  20
BRANCH   1  22
ATOM     22  C   UNL     1       3.064   5.942  17.833  0.00  0.00    +0.000 C 
BRANCH  22  28
ATOM     23  C   UNL     1       6.341   4.536  14.377  0.00  0.00    +0.000 C 
ATOM     24  O   UNL     1       6.665   3.372  14.178  0.00  0.00    +0.000 OA
ATOM     25  N   UNL     1       5.458   4.940  15.352  0.00  0.00    +0.000 N 
ATOM     26  C   UNL     1       4.862   3.955  16.255  0.00  0.00    +0.000 C 
ATOM     27  C   UNL     1       4.969   4.396  17.731  0.00  0.00    +0.000 C 
ATOM     28  N   UNL     1       4.523   5.784  18.010  0.00  0.00    +0.000 NA
ATOM     29  C   UNL     1       5.252   6.692  17.090  0.00  0.00    +0.000 C 
ATOM     30  C   UNL     1       5.102   6.337  15.596  0.00  0.00    +0.000 C 
BRANCH  23  31
ATOM     31  O   UNL     1       6.879   5.595  13.717  0.00  0.00    +0.000 OA
BRANCH  31  33
ATOM     32  C   UNL     1       9.077   5.998  12.875  0.00  0.00    +0.000 C 
ATOM     33  C   UNL     1       7.767   5.262  12.645  0.00  0.00    +0.000 C 
ENDBRANCH  31  33
ENDBRANCH  23  31
ENDBRANCH  22  28
ENDBRANCH   1  22
TORSDOF 7
ENDMDL
MODEL 7
REMARK VINA RESULT:      -7.7      2.623      4.173
REMARK  Name = 
REMARK  8 active torsions:
REMARK  status: ('A' for Active; 'I' for Inactive)
REMARK    1  A    between atoms: C_1  and  C_2
REMARK    2  A    between atoms: C_2  and  O_3
REMARK    3  A    between atoms: O_3  and  C_4
REMARK    4  A    between atoms: N_9  and  C_10
REMARK    5  A    between atoms: C_10  and  C_11
REMARK    6  A    between atoms: C_13  and  N_14
REMARK    7  A    between atoms: N_14  and  C_15
REMARK    8  A    between atoms: C_28  and  O_29
REMARK                            x       y       z     vdW  Elec       q    Type
REMARK                         _______ _______ _______ _____ _____    ______ ____
ROOT
ATOM      1  C   UNL     1       2.133   5.869  19.037  0.00  0.00    +0.000 A 
ATOM      2  C   UNL     1       2.059   7.202  18.584  0.00  0.00    +0.000 A 
ATOM      3  C   UNL     1       1.681   8.244  19.443  0.00  0.00    +0.000 A 
ATOM      4  C   UNL     1       1.294   7.913  20.751  0.00  0.00    +0.000 A 
ATOM      5  C   UNL     1       1.382   6.605  21.223  0.00  0.00    +0.000 A 
ATOM      6  C   UNL     1       1.822   5.598  20.375  0.00  0.00    +0.000 A 
ENDROOT
BRANCH   3   7
ATOM      7  N   UNL     1       1.636   9.572  18.971  0.00  0.00    +0.000 N 
ATOM      8  H   UNL     1       2.404   9.852  18.372  0.00  0.00    +0.000 HD
BRANCH   7   9
ATOM      9  C   UNL     1       0.686  10.573  19.273  0.00  0.00    +0.000 A 
ATOM     10  C   UNL     1       1.046  11.561  20.190  0.00  0.00    +0.000 A 
ATOM     11  C   UNL     1       0.160  12.584  20.447  0.00  0.00    +0.000 A 
ATOM     12  N   UNL     1      -1.036  12.706  19.844  0.00  0.00    +0.000 NA
ATOM     13  C   UNL     1      -1.394  11.771  18.951  0.00  0.00    +0.000 A 
ATOM     14  C   UNL     1      -2.612  11.937  18.317  0.00  0.00    +0.000 A 
ATOM     15  C   UNL     1      -3.061  11.035  17.362  0.00  0.00    +0.000 A 
ATOM     16 CL   UNL     1      -4.567  11.303  16.573  0.00  0.00    +0.000 Cl
ATOM     17  C   UNL     1      -2.289   9.927  17.033  0.00  0.00    +0.000 A 
ATOM     18  C   UNL     1      -1.055   9.739  17.660  0.00  0.00    +0.000 A 
ATOM     19  C   UNL     1      -0.574  10.659  18.628  0.00  0.00    +0.000 A 
ENDBRANCH   7   9
ENDBRANCH   3   7
BRANCH   6  20
ATOM     20  O   UNL     1       1.965   4.326  20.854  0.00  0.00    +0.000 OA
ATOM     21  H   UNL     1       1.336   4.191  21.582  0.00  0.00    +0.000 HD
ENDBRANCH   6  20
BRANCH   1  22
ATOM     22  C   UNL     1       2.521   4.759  18.085  0.00  0.00    +0.000 C 
BRANCH  22  28
ATOM     23  C   UNL     1       7.178   5.553  16.553  0.00  0.00    +0.000 C 
ATOM     24  O   UNL     1       7.678   5.006  15.578  0.00  0.00    +0.000 OA
ATOM     25  N   UNL     1       5.900   5.317  17.005  0.00  0.00    +0.000 N 
ATOM     26  C   UNL     1       5.051   4.337  16.327  0.00  0.00    +0.000 C 
ATOM     27  C   UNL     1       4.394   3.362  17.327  0.00  0.00    +0.000 C 
ATOM     28  N   UNL     1       3.726   4.003  18.488  0.00  0.00    +0.000 NA
ATOM     29  C   UNL     1       4.706   4.909  19.136  0.00  0.00    +0.000 C 
ATOM     30  C   UNL     1       5.327   5.957  18.189  0.00  0.00    +0.000 C 
BRANCH  23  31
ATOM     31  O   UNL     1       7.852   6.401  17.374  0.00  0.00    +0.000 OA
BRANCH  31  33
ATOM     32  C   UNL     1       8.383   8.581  18.189  0.00  0.00    +0.000 C 
ATOM     33  C   UNL     1       7.652   7.793  17.114  0.00  0.00    +0.000 C 
ENDBRANCH  31  33
ENDBRANCH  23  31
ENDBRANCH  22  28
ENDBRANCH   1  22
TORSDOF 7
ENDMDL
MODEL 8
REMARK VINA RESULT:      -7.7      5.378     10.872
REMARK  Name = 
REMARK  8 active torsions:
REMARK  status: ('A' for Active; 'I' for Inactive)
REMARK    1  A    between atoms: C_1  and  C_2
REMARK    2  A    between atoms: C_2  and  O_3
REMARK    3  A    between atoms: O_3  and  C_4
REMARK    4  A    between atoms: N_9  and  C_10
REMARK    5  A    between atoms: C_10  and  C_11
REMARK    6  A    between atoms: C_13  and  N_14
REMARK    7  A    between atoms: N_14  and  C_15
REMARK    8  A    between atoms: C_28  and  O_29
REMARK                            x       y       z     vdW  Elec       q    Type
REMARK                         _______ _______ _______ _____ _____    ______ ____
ROOT
ATOM      1  C   UNL     1       1.094  10.319  20.194  0.00  0.00    +0.000 A 
ATOM      2  C   UNL     1       1.459   9.064  20.721  0.00  0.00    +0.000 A 
ATOM      3  C   UNL     1       1.835   8.003  19.885  0.00  0.00    +0.000 A 
ATOM      4  C   UNL     1       1.757   8.198  18.497  0.00  0.00    +0.000 A 
ATOM      5  C   UNL     1       1.420   9.438  17.957  0.00  0.00    +0.000 A 
ATOM      6  C   UNL     1       1.115  10.495  18.805  0.00  0.00    +0.000 A 
ENDROOT
BRANCH   3   7
ATOM      7  N   UNL     1       2.216   6.764  20.439  0.00  0.00    +0.000 N 
ATOM      8  H   UNL     1       2.576   6.798  21.385  0.00  0.00    +0.000 HD
BRANCH   7   9
ATOM      9  C   UNL     1       2.213   5.494  19.820  0.00  0.00    +0.000 A 
ATOM     10  C   UNL     1       1.173   4.618  20.129  0.00  0.00    +0.000 A 
ATOM     11  C   UNL     1       1.114   3.401  19.484  0.00  0.00    +0.000 A 
ATOM     12  N   UNL     1       1.994   3.011  18.545  0.00  0.00    +0.000 NA
ATOM     13  C   UNL     1       2.995   3.845  18.227  0.00  0.00    +0.000 A 
ATOM     14  C   UNL     1       3.866   3.437  17.232  0.00  0.00    +0.000 A 
ATOM     15  C   UNL     1       4.920   4.241  16.818  0.00  0.00    +0.000 A 
ATOM     16 CL   UNL     1       5.955   3.707  15.551  0.00  0.00    +0.000 Cl
ATOM     17  C   UNL     1       5.128   5.480  17.413  0.00  0.00    +0.000 A 
ATOM     18  C   UNL     1       4.260   5.913  18.419  0.00  0.00    +0.000 A 
ATOM     19  C   UNL     1       3.169   5.110  18.844  0.00  0.00    +0.000 A 
ENDBRANCH   7   9
ENDBRANCH   3   7
BRANCH   6  20
ATOM     20  O   UNL     1       0.843  11.725  18.278  0.00  0.00    +0.000 OA
ATOM     21  H   UNL     1       1.639  12.279  18.341  0.00  0.00    +0.000 HD
ENDBRANCH   6  20
BRANCH   1  22
ATOM     22  C   UNL     1       0.670  11.442  21.116  0.00  0.00    +0.000 C 
BRANCH  22  28
ATOM     23  C   UNL     1      -2.611  13.808  23.996  0.00  0.00    +0.000 C 
ATOM     24  O   UNL     1      -3.621  13.285  24.450  0.00  0.00    +0.000 OA
ATOM     25  N   UNL     1      -1.712  13.171  23.172  0.00  0.00    +0.000 N 
ATOM     26  C   UNL     1      -1.947  11.787  22.760  0.00  0.00    +0.000 C 
ATOM     27  C   UNL     1      -1.777  11.609  21.236  0.00  0.00    +0.000 C 
ATOM     28  N   UNL     1      -0.530  12.179  20.667  0.00  0.00    +0.000 NA
ATOM     29  C   UNL     1      -0.445  13.600  21.087  0.00  0.00    +0.000 C 
ATOM     30  C   UNL     1      -0.525  13.818  22.613  0.00  0.00    +0.000 C 
BRANCH  23  31
ATOM     31  O   UNL     1      -2.291  15.116  24.173  0.00  0.00    +0.000 OA
BRANCH  31  33
ATOM     32  C   UNL     1      -0.930  16.086  25.878  0.00  0.00    +0.000 C 
ATOM     33  C   UNL     1      -2.318  15.576  25.527  0.00  0.00    +0.000 C 
ENDBRANCH  31  33
ENDBRANCH  23  31
ENDBRANCH  22  28
ENDBRANCH   1  22
TORSDOF 7
ENDMDL
MODEL 9
REMARK VINA RESULT:      -7.7      2.489      3.693
REMARK  Name = 
REMARK  8 active torsions:
REMARK  status: ('A' for Active; 'I' for Inactive)
REMARK    1  A    between atoms: C_1  and  C_2
REMARK    2  A    between atoms: C_2  and  O_3
REMARK    3  A    between atoms: O_3  and  C_4
REMARK    4  A    between atoms: N_9  and  C_10
REMARK    5  A    between atoms: C_10  and  C_11
REMARK    6  A    between atoms: C_13  and  N_14
REMARK    7  A    between atoms: N_14  and  C_15
REMARK    8  A    between atoms: C_28  and  O_29
REMARK                            x       y       z     vdW  Elec       q    Type
REMARK                         _______ _______ _______ _____ _____    ______ ____
ROOT
ATOM      1  C   UNL     1       2.159   7.526  18.720  0.00  0.00    +0.000 A 
ATOM      2  C   UNL     1       1.530   8.705  18.270  0.00  0.00    +0.000 A 
ATOM      3  C   UNL     1       0.877   9.568  19.161  0.00  0.00    +0.000 A 
ATOM      4  C   UNL     1       0.791   9.184  20.508  0.00  0.00    +0.000 A 
ATOM      5  C   UNL     1       1.424   8.034  20.976  0.00  0.00    +0.000 A 
ATOM      6  C   UNL     1       2.123   7.227  20.087  0.00  0.00    +0.000 A 
ENDROOT
BRANCH   3   7
ATOM      7  N   UNL     1       0.274  10.752  18.689  0.00  0.00    +0.000 N 
ATOM      8  H   UNL     1       0.900  11.536  18.545  0.00  0.00    +0.000 HD
BRANCH   7   9
ATOM      9  C   UNL     1      -1.096  10.998  18.449  0.00  0.00    +0.000 A 
ATOM     10  C   UNL     1      -1.686  10.388  17.342  0.00  0.00    +0.000 A 
ATOM     11  C   UNL     1      -3.036  10.560  17.129  0.00  0.00    +0.000 A 
ATOM     12  N   UNL     1      -3.837  11.267  17.945  0.00  0.00    +0.000 NA
ATOM     13  C   UNL     1      -3.289  11.852  19.021  0.00  0.00    +0.000 A 
ATOM     14  C   UNL     1      -4.139  12.544  19.866  0.00  0.00    +0.000 A 
ATOM     15  C   UNL     1      -3.670  13.164  21.016  0.00  0.00    +0.000 A 
ATOM     16 CL   UNL     1      -4.771  13.982  22.056  0.00  0.00    +0.000 Cl
ATOM     17  C   UNL     1      -2.318  13.111  21.335  0.00  0.00    +0.000 A 
ATOM     18  C   UNL     1      -1.441  12.417  20.497  0.00  0.00    +0.000 A 
ATOM     19  C   UNL     1      -1.906  11.765  19.325  0.00  0.00    +0.000 A 
ENDBRANCH   7   9
ENDBRANCH   3   7
BRANCH   6  20
ATOM     20  O   UNL     1       2.793   6.132  20.554  0.00  0.00    +0.000 OA
ATOM     21  H   UNL     1       3.717   6.378  20.727  0.00  0.00    +0.000 HD
ENDBRANCH   6  20
BRANCH   1  22
ATOM     22  C   UNL     1       2.837   6.599  17.735  0.00  0.00    +0.000 C 
BRANCH  22  28
ATOM     23  C   UNL     1       6.274   4.567  14.783  0.00  0.00    +0.000 C 
ATOM     24  O   UNL     1       6.418   3.360  14.633  0.00  0.00    +0.000 OA
ATOM     25  N   UNL     1       5.346   5.140  15.622  0.00  0.00    +0.000 N 
ATOM     26  C   UNL     1       4.469   4.295  16.432  0.00  0.00    +0.000 C 
ATOM     27  C   UNL     1       4.442   4.748  17.907  0.00  0.00    +0.000 C 
ATOM     28  N   UNL     1       4.208   6.199  18.119  0.00  0.00    +0.000 NA
ATOM     29  C   UNL     1       5.204   6.945  17.311  0.00  0.00    +0.000 C 
ATOM     30  C   UNL     1       5.206   6.584  15.811  0.00  0.00    +0.000 C 
BRANCH  23  31
ATOM     31  O   UNL     1       7.075   5.501  14.206  0.00  0.00    +0.000 OA
BRANCH  31  33
ATOM     32  C   UNL     1       7.915   6.018  12.032  0.00  0.00    +0.000 C 
ATOM     33  C   UNL     1       7.939   5.016  13.174  0.00  0.00    +0.000 C 
ENDBRANCH  31  33
ENDBRANCH  23  31
ENDBRANCH  22  28
ENDBRANCH   1  22
TORSDOF 7
ENDMDL
