MODEL 1
REMARK VINA RESULT:      -8.1      0.000      0.000
REMARK  Name = 
REMARK  6 active torsions:
REMARK  status: ('A' for Active; 'I' for Inactive)
REMARK    1  A    between atoms: C_2  and  O_3
REMARK    2  A    between atoms: C_2  and  C_4
REMARK    3  A    between atoms: C_4  and  C_5
REMARK    4  A    between atoms: N_7  and  C_8
REMARK    5  A    between atoms: C_8  and  C_9
REMARK    6  A    between atoms: C_23  and  N_24
REMARK                            x       y       z     vdW  Elec       q    Type
REMARK                         _______ _______ _______ _____ _____    ______ ____
ROOT
ATOM      1  C   UNL     1       6.493   5.603  17.966  0.00  0.00    +0.000 A 
ATOM      2  N   UNL     1       5.621   5.460  18.919  0.00  0.00    +0.000 NA
ATOM      3  N   UNL     1       4.392   4.899  18.639  0.00  0.00    +0.000 N 
ATOM      4  C   UNL     1       3.987   4.522  17.367  0.00  0.00    +0.000 A 
ATOM      5  O   UNL     1       2.869   4.093  17.097  0.00  0.00    +0.000 OA
ATOM      6  C   UNL     1       4.981   4.652  16.288  0.00  0.00    +0.000 A 
ATOM      7  C   UNL     1       4.639   4.280  14.978  0.00  0.00    +0.000 A 
ATOM      8  C   UNL     1       5.569   4.404  13.947  0.00  0.00    +0.000 A 
ATOM      9  C   UNL     1       6.852   4.877  14.238  0.00  0.00    +0.000 A 
ATOM     10  C   UNL     1       7.207   5.237  15.549  0.00  0.00    +0.000 A 
ATOM     11  C   UNL     1       6.250   5.151  16.574  0.00  0.00    +0.000 A 
ENDROOT
BRANCH   9  12
ATOM     12  N   UNL     1       7.840   5.010  13.155  0.00  0.00    +0.000 N 
ATOM     13  O   UNL     1       8.831   5.722  13.363  0.00  0.00    +0.000 OA
ATOM     14  O   UNL     1       7.608   4.411  12.094  0.00  0.00    +0.000 OA
ENDBRANCH   9  12
BRANCH   1  15
ATOM     15  C   UNL     1       7.809   6.273  18.332  0.00  0.00    +0.000 C 
BRANCH  15  17
ATOM     16  O   UNL     1       7.229   8.315  17.165  0.00  0.00    +0.000 OA
ATOM     17  C   UNL     1       7.851   7.752  18.051  0.00  0.00    +0.000 C 
BRANCH  17  18
ATOM     18  O   UNL     1       8.709   8.419  18.856  0.00  0.00    +0.000 OA
ATOM     19  H   UNL     1       8.357   8.649  19.738  0.00  0.00    +0.000 HD
ENDBRANCH  17  18
ENDBRANCH  15  17
ENDBRANCH   1  15
BRANCH   3  20
ATOM     20  C   UNL     1       3.410   4.868  19.731  0.00  0.00    +0.000 C 
BRANCH  20  21
ATOM     21  C   UNL     1       2.644   6.157  19.845  0.00  0.00    +0.000 A 
ATOM     22  N   UNL     1       1.944   6.501  20.908  0.00  0.00    +0.000 NA
ATOM     23  C   UNL     1       1.339   7.729  20.706  0.00  0.00    +0.000 A 
ATOM     24  C   UNL     1       0.458   8.367  21.602  0.00  0.00    +0.000 A 
ATOM     25  C   UNL     1      -0.138   9.581  21.248  0.00  0.00    +0.000 A 
ATOM     26  C   UNL     1       0.169  10.186  20.033  0.00  0.00    +0.000 A 
ATOM     27  C   UNL     1       1.074   9.595  19.145  0.00  0.00    +0.000 A 
ATOM     28  C   UNL     1       1.632   8.352  19.492  0.00  0.00    +0.000 A 
ATOM     29  S   UNL     1       2.712   7.348  18.602  0.00  0.00    +0.000 S 
ENDBRANCH  20  21
ENDBRANCH   3  20
TORSDOF 6
ENDMDL
MODEL 2
REMARK VINA RESULT:      -7.8      1.272      1.712
REMARK  Name = 
REMARK  6 active torsions:
REMARK  status: ('A' for Active; 'I' for Inactive)
REMARK    1  A    between atoms: C_2  and  O_3
REMARK    2  A    between atoms: C_2  and  C_4
REMARK    3  A    between atoms: C_4  and  C_5
REMARK    4  A    between atoms: N_7  and  C_8
REMARK    5  A    between atoms: C_8  and  C_9
REMARK    6  A    between atoms: C_23  and  N_24
REMARK                            x       y       z     vdW  Elec       q    Type
REMARK                         _______ _______ _______ _____ _____    ______ ____
ROOT
ATOM      1  C   UNL     1       6.692   4.495  17.733  0.00  0.00    +0.000 A 
ATOM      2  N   UNL     1       5.841   4.205  18.672  0.00  0.00    +0.000 NA
ATOM      3  N   UNL     1       4.550   3.852  18.337  0.00  0.00    +0.000 N 
ATOM      4  C   UNL     1       4.066   3.842  17.037  0.00  0.00    +0.000 A 
ATOM      5  O   UNL     1       2.900   3.603  16.735  0.00  0.00    +0.000 OA
ATOM      6  C   UNL     1       5.033   4.138  15.966  0.00  0.00    +0.000 A 
ATOM      7  C   UNL     1       4.610   4.135  14.626  0.00  0.00    +0.000 A 
ATOM      8  C   UNL     1       5.514   4.420  13.604  0.00  0.00    +0.000 A 
ATOM      9  C   UNL     1       6.849   4.681  13.926  0.00  0.00    +0.000 A 
ATOM     10  C   UNL     1       7.283   4.670  15.263  0.00  0.00    +0.000 A 
ATOM     11  C   UNL     1       6.356   4.426  16.290  0.00  0.00    +0.000 A 
ENDROOT
BRANCH   9  12
ATOM     12  N   UNL     1       7.810   4.981  12.853  0.00  0.00    +0.000 N 
ATOM     13  O   UNL     1       8.738   5.758  13.110  0.00  0.00    +0.000 OA
ATOM     14  O   UNL     1       7.619   4.447  11.750  0.00  0.00    +0.000 OA
ENDBRANCH   9  12
BRANCH   1  15
ATOM     15  C   UNL     1       8.083   4.924  18.174  0.00  0.00    +0.000 C 
BRANCH  15  17
ATOM     16  O   UNL     1       8.298   7.236  18.864  0.00  0.00    +0.000 OA
ATOM     17  C   UNL     1       8.098   6.067  19.153  0.00  0.00    +0.000 C 
BRANCH  17  18
ATOM     18  O   UNL     1       7.920   5.669  20.434  0.00  0.00    +0.000 OA
ATOM     19  H   UNL     1       7.096   5.172  20.604  0.00  0.00    +0.000 HD
ENDBRANCH  17  18
ENDBRANCH  15  17
ENDBRANCH   1  15
BRANCH   3  20
ATOM     20  C   UNL     1       3.606   3.647  19.443  0.00  0.00    +0.000 C 
BRANCH  20  21
ATOM     21  C   UNL     1       2.855   4.903  19.790  0.00  0.00    +0.000 A 
ATOM     22  N   UNL     1       2.898   6.006  19.069  0.00  0.00    +0.000 NA
ATOM     23  C   UNL     1       2.120   6.991  19.652  0.00  0.00    +0.000 A 
ATOM     24  C   UNL     1       1.994   8.316  19.192  0.00  0.00    +0.000 A 
ATOM     25  C   UNL     1       1.225   9.234  19.913  0.00  0.00    +0.000 A 
ATOM     26  C   UNL     1       0.545   8.834  21.059  0.00  0.00    +0.000 A 
ATOM     27  C   UNL     1       0.618   7.512  21.513  0.00  0.00    +0.000 A 
ATOM     28  C   UNL     1       1.432   6.609  20.805  0.00  0.00    +0.000 A 
ATOM     29  S   UNL     1       1.780   4.956  21.136  0.00  0.00    +0.000 S 
ENDBRANCH  20  21
ENDBRANCH   3  20
TORSDOF 6
ENDMDL
MODEL 3
REMARK VINA RESULT:      -7.8      0.812      1.218
REMARK  Name = 
REMARK  6 active torsions:
REMARK  status: ('A' for Active; 'I' for Inactive)
REMARK    1  A    between atoms: C_2  and  O_3
REMARK    2  A    between atoms: C_2  and  C_4
REMARK    3  A    between atoms: C_4  and  C_5
REMARK    4  A    between atoms: N_7  and  C_8
REMARK    5  A    between atoms: C_8  and  C_9
REMARK    6  A    between atoms: C_23  and  N_24
REMARK                            x       y       z     vdW  Elec       q    Type
REMARK                         _______ _______ _______ _____ _____    ______ ____
ROOT
ATOM      1  C   UNL     1       6.584   5.597  17.784  0.00  0.00    +0.000 A 
ATOM      2  N   UNL     1       5.743   5.358  18.745  0.00  0.00    +0.000 NA
ATOM      3  N   UNL     1       4.580   4.665  18.478  0.00  0.00    +0.000 N 
ATOM      4  C   UNL     1       4.206   4.245  17.209  0.00  0.00    +0.000 A 
ATOM      5  O   UNL     1       3.140   3.696  16.949  0.00  0.00    +0.000 OA
ATOM      6  C   UNL     1       5.169   4.485  16.120  0.00  0.00    +0.000 A 
ATOM      7  C   UNL     1       4.857   4.077  14.813  0.00  0.00    +0.000 A 
ATOM      8  C   UNL     1       5.757   4.303  13.773  0.00  0.00    +0.000 A 
ATOM      9  C   UNL     1       6.983   4.915  14.051  0.00  0.00    +0.000 A 
ATOM     10  C   UNL     1       7.309   5.312  15.359  0.00  0.00    +0.000 A 
ATOM     11  C   UNL     1       6.378   5.120  16.393  0.00  0.00    +0.000 A 
ENDROOT
BRANCH   9  12
ATOM     12  N   UNL     1       7.939   5.155  12.959  0.00  0.00    +0.000 N 
ATOM     13  O   UNL     1       8.925   5.864  13.202  0.00  0.00    +0.000 OA
ATOM     14  O   UNL     1       7.687   4.646  11.857  0.00  0.00    +0.000 OA
ENDBRANCH   9  12
BRANCH   1  15
ATOM     15  C   UNL     1       7.821   6.408  18.137  0.00  0.00    +0.000 C 
BRANCH  15  17
ATOM     16  O   UNL     1       6.927   8.371  17.035  0.00  0.00    +0.000 OA
ATOM     17  C   UNL     1       7.706   7.878  17.835  0.00  0.00    +0.000 C 
BRANCH  17  18
ATOM     18  O   UNL     1       8.607   8.629  18.509  0.00  0.00    +0.000 OA
ATOM     19  H   UNL     1       8.252   9.449  18.903  0.00  0.00    +0.000 HD
ENDBRANCH  17  18
ENDBRANCH  15  17
ENDBRANCH   1  15
BRANCH   3  20
ATOM     20  C   UNL     1       3.619   4.525  19.578  0.00  0.00    +0.000 C 
BRANCH  20  21
ATOM     21  C   UNL     1       2.807   5.775  19.788  0.00  0.00    +0.000 A 
ATOM     22  N   UNL     1       2.765   6.773  18.928  0.00  0.00    +0.000 NA
ATOM     23  C   UNL     1       1.950   7.784  19.407  0.00  0.00    +0.000 A 
ATOM     24  C   UNL     1       1.734   9.029  18.784  0.00  0.00    +0.000 A 
ATOM     25  C   UNL     1       0.937   9.992  19.408  0.00  0.00    +0.000 A 
ATOM     26  C   UNL     1       0.317   9.711  20.622  0.00  0.00    +0.000 A 
ATOM     27  C   UNL     1       0.480   8.467  21.240  0.00  0.00    +0.000 A 
ATOM     28  C   UNL     1       1.321   7.523  20.625  0.00  0.00    +0.000 A 
ATOM     29  S   UNL     1       1.774   5.948  21.156  0.00  0.00    +0.000 S 
ENDBRANCH  20  21
ENDBRANCH   3  20
TORSDOF 6
ENDMDL
MODEL 4
REMARK VINA RESULT:      -7.8      1.090      1.524
REMARK  Name = 
REMARK  6 active torsions:
REMARK  status: ('A' for Active; 'I' for Inactive)
REMARK    1  A    between atoms: C_2  and  O_3
REMARK    2  A    between atoms: C_2  and  C_4
REMARK    3  A    between atoms: C_4  and  C_5
REMARK    4  A    between atoms: N_7  and  C_8
REMARK    5  A    between atoms: C_8  and  C_9
REMARK    6  A    between atoms: C_23  and  N_24
REMARK                            x       y       z     vdW  Elec       q    Type
REMARK                         _______ _______ _______ _____ _____    ______ ____
ROOT
ATOM      1  C   UNL     1       6.201   6.565  17.313  0.00  0.00    +0.000 A 
ATOM      2  N   UNL     1       5.404   6.430  18.331  0.00  0.00    +0.000 NA
ATOM      3  N   UNL     1       4.456   5.428  18.325  0.00  0.00    +0.000 N 
ATOM      4  C   UNL     1       4.248   4.567  17.257  0.00  0.00    +0.000 A 
ATOM      5  O   UNL     1       3.358   3.723  17.212  0.00  0.00    +0.000 OA
ATOM      6  C   UNL     1       5.169   4.694  16.115  0.00  0.00    +0.000 A 
ATOM      7  C   UNL     1       5.019   3.848  15.003  0.00  0.00    +0.000 A 
ATOM      8  C   UNL     1       5.881   3.961  13.913  0.00  0.00    +0.000 A 
ATOM      9  C   UNL     1       6.910   4.907  13.951  0.00  0.00    +0.000 A 
ATOM     10  C   UNL     1       7.075   5.747  15.065  0.00  0.00    +0.000 A 
ATOM     11  C   UNL     1       6.175   5.656  16.141  0.00  0.00    +0.000 A 
ENDROOT
BRANCH   9  12
ATOM     12  N   UNL     1       7.824   5.033  12.805  0.00  0.00    +0.000 N 
ATOM     13  O   UNL     1       8.796   5.790  12.922  0.00  0.00    +0.000 OA
ATOM     14  O   UNL     1       7.552   4.382  11.785  0.00  0.00    +0.000 OA
ENDBRANCH   9  12
BRANCH   1  15
ATOM     15  C   UNL     1       7.190   7.720  17.362  0.00  0.00    +0.000 C 
BRANCH  15  17
ATOM     16  O   UNL     1       8.845   8.590  18.902  0.00  0.00    +0.000 OA
ATOM     17  C   UNL     1       8.156   7.661  18.515  0.00  0.00    +0.000 C 
BRANCH  17  18
ATOM     18  O   UNL     1       8.240   6.430  19.072  0.00  0.00    +0.000 OA
ATOM     19  H   UNL     1       9.099   5.980  18.956  0.00  0.00    +0.000 HD
ENDBRANCH  17  18
ENDBRANCH  15  17
ENDBRANCH   1  15
BRANCH   3  20
ATOM     20  C   UNL     1       3.511   5.398  19.450  0.00  0.00    +0.000 C 
BRANCH  20  21
ATOM     21  C   UNL     1       2.678   6.647  19.527  0.00  0.00    +0.000 A 
ATOM     22  N   UNL     1       2.543   7.501  18.531  0.00  0.00    +0.000 NA
ATOM     23  C   UNL     1       1.733   8.556  18.911  0.00  0.00    +0.000 A 
ATOM     24  C   UNL     1       1.434   9.686  18.124  0.00  0.00    +0.000 A 
ATOM     25  C   UNL     1       0.652  10.717  18.653  0.00  0.00    +0.000 A 
ATOM     26  C   UNL     1       0.129  10.613  19.938  0.00  0.00    +0.000 A 
ATOM     27  C   UNL     1       0.374   9.482  20.724  0.00  0.00    +0.000 A 
ATOM     28  C   UNL     1       1.199   8.472  20.198  0.00  0.00    +0.000 A 
ATOM     29  S   UNL     1       1.738   7.007  20.926  0.00  0.00    +0.000 S 
ENDBRANCH  20  21
ENDBRANCH   3  20
TORSDOF 6
ENDMDL
MODEL 5
REMARK VINA RESULT:      -7.7      5.821     10.400
REMARK  Name = 
REMARK  6 active torsions:
REMARK  status: ('A' for Active; 'I' for Inactive)
REMARK    1  A    between atoms: C_2  and  O_3
REMARK    2  A    between atoms: C_2  and  C_4
REMARK    3  A    between atoms: C_4  and  C_5
REMARK    4  A    between atoms: N_7  and  C_8
REMARK    5  A    between atoms: C_8  and  C_9
REMARK    6  A    between atoms: C_23  and  N_24
REMARK                            x       y       z     vdW  Elec       q    Type
REMARK                         _______ _______ _______ _____ _____    ______ ____
ROOT
ATOM      1  C   UNL     1      -2.085  10.273  17.613  0.00  0.00    +0.000 A 
ATOM      2  N   UNL     1      -0.813  10.006  17.627  0.00  0.00    +0.000 NA
ATOM      3  N   UNL     1      -0.003  10.596  18.575  0.00  0.00    +0.000 N 
ATOM      4  C   UNL     1      -0.451  11.525  19.503  0.00  0.00    +0.000 A 
ATOM      5  O   UNL     1       0.275  12.112  20.300  0.00  0.00    +0.000 OA
ATOM      6  C   UNL     1      -1.897  11.808  19.514  0.00  0.00    +0.000 A 
ATOM      7  C   UNL     1      -2.418  12.732  20.434  0.00  0.00    +0.000 A 
ATOM      8  C   UNL     1      -3.783  13.013  20.451  0.00  0.00    +0.000 A 
ATOM      9  C   UNL     1      -4.629  12.345  19.560  0.00  0.00    +0.000 A 
ATOM     10  C   UNL     1      -4.117  11.408  18.646  0.00  0.00    +0.000 A 
ATOM     11  C   UNL     1      -2.734  11.164  18.607  0.00  0.00    +0.000 A 
ENDROOT
BRANCH   9  12
ATOM     12  N   UNL     1      -6.071  12.635  19.572  0.00  0.00    +0.000 N 
ATOM     13  O   UNL     1      -6.755  12.124  20.468  0.00  0.00    +0.000 OA
ATOM     14  O   UNL     1      -6.515  13.362  18.671  0.00  0.00    +0.000 OA
ENDBRANCH   9  12
BRANCH   1  15
ATOM     15  C   UNL     1      -2.912   9.628  16.511  0.00  0.00    +0.000 C 
BRANCH  15  17
ATOM     16  O   UNL     1      -3.409  10.003  14.171  0.00  0.00    +0.000 OA
ATOM     17  C   UNL     1      -2.942  10.407  15.223  0.00  0.00    +0.000 C 
BRANCH  17  18
ATOM     18  O   UNL     1      -2.338  11.613  15.320  0.00  0.00    +0.000 OA
ATOM     19  H   UNL     1      -2.595  12.145  16.097  0.00  0.00    +0.000 HD
ENDBRANCH  17  18
ENDBRANCH  15  17
ENDBRANCH   1  15
BRANCH   3  20
ATOM     20  C   UNL     1       1.440  10.345  18.469  0.00  0.00    +0.000 C 
BRANCH  20  21
ATOM     21  C   UNL     1       1.792   8.913  18.767  0.00  0.00    +0.000 A 
ATOM     22  N   UNL     1       2.435   8.127  17.926  0.00  0.00    +0.000 NA
ATOM     23  C   UNL     1       2.594   6.867  18.474  0.00  0.00    +0.000 A 
ATOM     24  C   UNL     1       3.170   5.756  17.826  0.00  0.00    +0.000 A 
ATOM     25  C   UNL     1       3.212   4.517  18.471  0.00  0.00    +0.000 A 
ATOM     26  C   UNL     1       2.729   4.384  19.769  0.00  0.00    +0.000 A 
ATOM     27  C   UNL     1       2.193   5.481  20.452  0.00  0.00    +0.000 A 
ATOM     28  C   UNL     1       2.114   6.712  19.776  0.00  0.00    +0.000 A 
ATOM     29  S   UNL     1       1.459   8.214  20.306  0.00  0.00    +0.000 S 
ENDBRANCH  20  21
ENDBRANCH   3  20
TORSDOF 6
ENDMDL
MODEL 6
REMARK VINA RESULT:      -7.7      4.596      7.409
REMARK  Name = 
REMARK  6 active torsions:
REMARK  status: ('A' for Active; 'I' for Inactive)
REMARK    1  A    between atoms: C_2  and  O_3
REMARK    2  A    between atoms: C_2  and  C_4
REMARK    3  A    between atoms: C_4  and  C_5
REMARK    4  A    between atoms: N_7  and  C_8
REMARK    5  A    between atoms: C_8  and  C_9
REMARK    6  A    between atoms: C_23  and  N_24
REMARK                            x       y       z     vdW  Elec       q    Type
REMARK                         _______ _______ _______ _____ _____    ______ ____
ROOT
ATOM      1  C   UNL     1       0.542   8.784  20.756  0.00  0.00    +0.000 A 
ATOM      2  N   UNL     1       0.045   9.922  20.371  0.00  0.00    +0.000 NA
ATOM      3  N   UNL     1       0.426  10.457  19.159  0.00  0.00    +0.000 N 
ATOM      4  C   UNL     1       1.374   9.881  18.325  0.00  0.00    +0.000 A 
ATOM      5  O   UNL     1       1.776  10.388  17.281  0.00  0.00    +0.000 OA
ATOM      6  C   UNL     1       1.918   8.577  18.739  0.00  0.00    +0.000 A 
ATOM      7  C   UNL     1       2.875   7.935  17.936  0.00  0.00    +0.000 A 
ATOM      8  C   UNL     1       3.402   6.703  18.320  0.00  0.00    +0.000 A 
ATOM      9  C   UNL     1       2.947   6.103  19.498  0.00  0.00    +0.000 A 
ATOM     10  C   UNL     1       1.978   6.732  20.299  0.00  0.00    +0.000 A 
ATOM     11  C   UNL     1       1.486   7.994  19.927  0.00  0.00    +0.000 A 
ENDROOT
BRANCH   9  12
ATOM     12  N   UNL     1       3.497   4.802  19.910  0.00  0.00    +0.000 N 
ATOM     13  O   UNL     1       2.824   4.110  20.686  0.00  0.00    +0.000 OA
ATOM     14  O   UNL     1       4.611   4.487  19.466  0.00  0.00    +0.000 OA
ENDBRANCH   9  12
BRANCH   1  15
ATOM     15  C   UNL     1       0.116   8.275  22.125  0.00  0.00    +0.000 C 
BRANCH  15  17
ATOM     16  O   UNL     1       0.967   9.630  23.943  0.00  0.00    +0.000 OA
ATOM     17  C   UNL     1       0.054   9.337  23.189  0.00  0.00    +0.000 C 
BRANCH  17  18
ATOM     18  O   UNL     1      -1.162   9.924  23.280  0.00  0.00    +0.000 OA
ATOM     19  H   UNL     1      -1.512  10.286  22.443  0.00  0.00    +0.000 HD
ENDBRANCH  17  18
ENDBRANCH  15  17
ENDBRANCH   1  15
BRANCH   3  20
ATOM     20  C   UNL     1      -0.081  11.796  18.831  0.00  0.00    +0.000 C 
BRANCH  20  21
ATOM     21  C   UNL     1      -1.576  11.814  18.666  0.00  0.00    +0.000 A 
ATOM     22  N   UNL     1      -2.404  12.337  19.549  0.00  0.00    +0.000 NA
ATOM     23  C   UNL     1      -3.713  12.185  19.127  0.00  0.00    +0.000 A 
ATOM     24  C   UNL     1      -4.859  12.560  19.856  0.00  0.00    +0.000 A 
ATOM     25  C   UNL     1      -6.131  12.290  19.343  0.00  0.00    +0.000 A 
ATOM     26  C   UNL     1      -6.272  11.693  18.094  0.00  0.00    +0.000 A 
ATOM     27  C   UNL     1      -5.151  11.351  17.331  0.00  0.00    +0.000 A 
ATOM     28  C   UNL     1      -3.876  11.586  17.877  0.00  0.00    +0.000 A 
ATOM     29  S   UNL     1      -2.322  11.224  17.230  0.00  0.00    +0.000 S 
ENDBRANCH  20  21
ENDBRANCH   3  20
TORSDOF 6
ENDMDL
MODEL 7
REMARK VINA RESULT:      -7.6      4.626      7.468
REMARK  Name = 
REMARK  6 active torsions:
REMARK  status: ('A' for Active; 'I' for Inactive)
REMARK    1  A    between atoms: C_2  and  O_3
REMARK    2  A    between atoms: C_2  and  C_4
REMARK    3  A    between atoms: C_4  and  C_5
REMARK    4  A    between atoms: N_7  and  C_8
REMARK    5  A    between atoms: C_8  and  C_9
REMARK    6  A    between atoms: C_23  and  N_24
REMARK                            x       y       z     vdW  Elec       q    Type
REMARK                         _______ _______ _______ _____ _____    ______ ____
ROOT
ATOM      1  C   UNL     1       0.568   8.826  20.766  0.00  0.00    +0.000 A 
ATOM      2  N   UNL     1       0.093   9.977  20.390  0.00  0.00    +0.000 NA
ATOM      3  N   UNL     1       0.488  10.515  19.183  0.00  0.00    +0.000 N 
ATOM      4  C   UNL     1       1.427   9.928  18.346  0.00  0.00    +0.000 A 
ATOM      5  O   UNL     1       1.841  10.436  17.308  0.00  0.00    +0.000 OA
ATOM      6  C   UNL     1       1.944   8.610  18.751  0.00  0.00    +0.000 A 
ATOM      7  C   UNL     1       2.891   7.956  17.945  0.00  0.00    +0.000 A 
ATOM      8  C   UNL     1       3.393   6.711  18.319  0.00  0.00    +0.000 A 
ATOM      9  C   UNL     1       2.924   6.110  19.492  0.00  0.00    +0.000 A 
ATOM     10  C   UNL     1       1.966   6.751  20.296  0.00  0.00    +0.000 A 
ATOM     11  C   UNL     1       1.498   8.025  19.933  0.00  0.00    +0.000 A 
ENDROOT
BRANCH   9  12
ATOM     12  N   UNL     1       3.448   4.795  19.893  0.00  0.00    +0.000 N 
ATOM     13  O   UNL     1       4.556   4.458  19.456  0.00  0.00    +0.000 OA
ATOM     14  O   UNL     1       2.737   4.099  20.633  0.00  0.00    +0.000 OA
ENDBRANCH   9  12
BRANCH   1  15
ATOM     15  C   UNL     1       0.129   8.314  22.129  0.00  0.00    +0.000 C 
BRANCH  15  17
ATOM     16  O   UNL     1       0.946   9.631  23.991  0.00  0.00    +0.000 OA
ATOM     17  C   UNL     1       0.056   9.374  23.196  0.00  0.00    +0.000 C 
BRANCH  17  18
ATOM     18  O   UNL     1      -1.141  10.002  23.237  0.00  0.00    +0.000 OA
ATOM     19  H   UNL     1      -1.390  10.475  22.419  0.00  0.00    +0.000 HD
ENDBRANCH  17  18
ENDBRANCH  15  17
ENDBRANCH   1  15
BRANCH   3  20
ATOM     20  C   UNL     1       0.007  11.865  18.866  0.00  0.00    +0.000 C 
BRANCH  20  21
ATOM     21  C   UNL     1      -1.494  11.948  18.856  0.00  0.00    +0.000 A 
ATOM     22  N   UNL     1      -2.250  11.434  17.904  0.00  0.00    +0.000 NA
ATOM     23  C   UNL     1      -3.585  11.687  18.164  0.00  0.00    +0.000 A 
ATOM     24  C   UNL     1      -4.663  11.349  17.322  0.00  0.00    +0.000 A 
ATOM     25  C   UNL     1      -5.964  11.721  17.672  0.00  0.00    +0.000 A 
ATOM     26  C   UNL     1      -6.206  12.384  18.870  0.00  0.00    +0.000 A 
ATOM     27  C   UNL     1      -5.159  12.693  19.745  0.00  0.00    +0.000 A 
ATOM     28  C   UNL     1      -3.849  12.354  19.361  0.00  0.00    +0.000 A 
ATOM     29  S   UNL     1      -2.358  12.650  20.170  0.00  0.00    +0.000 S 
ENDBRANCH  20  21
ENDBRANCH   3  20
TORSDOF 6
ENDMDL
MODEL 8
REMARK VINA RESULT:      -7.6      5.647     10.279
REMARK  Name = 
REMARK  6 active torsions:
REMARK  status: ('A' for Active; 'I' for Inactive)
REMARK    1  A    between atoms: C_2  and  O_3
REMARK    2  A    between atoms: C_2  and  C_4
REMARK    3  A    between atoms: C_4  and  C_5
REMARK    4  A    between atoms: N_7  and  C_8
REMARK    5  A    between atoms: C_8  and  C_9
REMARK    6  A    between atoms: C_23  and  N_24
REMARK                            x       y       z     vdW  Elec       q    Type
REMARK                         _______ _______ _______ _____ _____    ______ ____
ROOT
ATOM      1  C   UNL     1      -1.859  10.364  17.899  0.00  0.00    +0.000 A 
ATOM      2  N   UNL     1      -0.654   9.912  17.715  0.00  0.00    +0.000 NA
ATOM      3  N   UNL     1       0.377  10.380  18.504  0.00  0.00    +0.000 N 
ATOM      4  C   UNL     1       0.226  11.368  19.466  0.00  0.00    +0.000 A 
ATOM      5  O   UNL     1       1.150  11.844  20.119  0.00  0.00    +0.000 OA
ATOM      6  C   UNL     1      -1.142  11.862  19.701  0.00  0.00    +0.000 A 
ATOM      7  C   UNL     1      -1.366  12.857  20.667  0.00  0.00    +0.000 A 
ATOM      8  C   UNL     1      -2.655  13.336  20.895  0.00  0.00    +0.000 A 
ATOM      9  C   UNL     1      -3.723  12.796  20.171  0.00  0.00    +0.000 A 
ATOM     10  C   UNL     1      -3.508  11.791  19.214  0.00  0.00    +0.000 A 
ATOM     11  C   UNL     1      -2.200  11.345  18.959  0.00  0.00    +0.000 A 
ENDROOT
BRANCH   9  12
ATOM     12  N   UNL     1      -5.086  13.296  20.407  0.00  0.00    +0.000 N 
ATOM     13  O   UNL     1      -5.346  14.453  20.050  0.00  0.00    +0.000 OA
ATOM     14  O   UNL     1      -5.887  12.531  20.965  0.00  0.00    +0.000 OA
ENDBRANCH   9  12
BRANCH   1  15
ATOM     15  C   UNL     1      -2.939   9.844  16.963  0.00  0.00    +0.000 C 
BRANCH  15  17
ATOM     16  O   UNL     1      -2.524  10.153  14.597  0.00  0.00    +0.000 OA
ATOM     17  C   UNL     1      -3.009  10.559  15.640  0.00  0.00    +0.000 C 
BRANCH  17  18
ATOM     18  O   UNL     1      -3.630  11.758  15.719  0.00  0.00    +0.000 OA
ATOM     19  H   UNL     1      -3.419  12.283  16.515  0.00  0.00    +0.000 HD
ENDBRANCH  17  18
ENDBRANCH  15  17
ENDBRANCH   1  15
BRANCH   3  20
ATOM     20  C   UNL     1       1.731   9.918  18.174  0.00  0.00    +0.000 C 
BRANCH  20  21
ATOM     21  C   UNL     1       1.969   8.497  18.606  0.00  0.00    +0.000 A 
ATOM     22  N   UNL     1       2.473   7.567  17.819  0.00  0.00    +0.000 NA
ATOM     23  C   UNL     1       2.554   6.361  18.494  0.00  0.00    +0.000 A 
ATOM     24  C   UNL     1       2.975   5.137  17.938  0.00  0.00    +0.000 A 
ATOM     25  C   UNL     1       2.948   3.973  18.713  0.00  0.00    +0.000 A 
ATOM     26  C   UNL     1       2.551   4.026  20.045  0.00  0.00    +0.000 A 
ATOM     27  C   UNL     1       2.171   5.237  20.633  0.00  0.00    +0.000 A 
ATOM     28  C   UNL     1       2.158   6.392  19.831  0.00  0.00    +0.000 A 
ATOM     29  S   UNL     1       1.685   8.000  20.231  0.00  0.00    +0.000 S 
ENDBRANCH  20  21
ENDBRANCH   3  20
TORSDOF 6
ENDMDL
MODEL 9
REMARK VINA RESULT:      -7.6      6.292     10.890
REMARK  Name = 
REMARK  6 active torsions:
REMARK  status: ('A' for Active; 'I' for Inactive)
REMARK    1  A    between atoms: C_2  and  O_3
REMARK    2  A    between atoms: C_2  and  C_4
REMARK    3  A    between atoms: C_4  and  C_5
REMARK    4  A    between atoms: N_7  and  C_8
REMARK    5  A    between atoms: C_8  and  C_9
REMARK    6  A    between atoms: C_23  and  N_24
REMARK                            x       y       z     vdW  Elec       q    Type
REMARK                         _______ _______ _______ _____ _____    ______ ____
ROOT
ATOM      1  C   UNL     1      -2.617  10.694  18.035  0.00  0.00    +0.000 A 
ATOM      2  N   UNL     1      -1.349  10.573  18.294  0.00  0.00    +0.000 NA
ATOM      3  N   UNL     1      -0.790  11.309  19.318  0.00  0.00    +0.000 N 
ATOM      4  C   UNL     1      -1.491  12.238  20.074  0.00  0.00    +0.000 A 
ATOM      5  O   UNL     1      -0.985  12.951  20.935  0.00  0.00    +0.000 OA
ATOM      6  C   UNL     1      -2.934  12.356  19.807  0.00  0.00    +0.000 A 
ATOM      7  C   UNL     1      -3.705  13.271  20.542  0.00  0.00    +0.000 A 
ATOM      8  C   UNL     1      -5.072  13.397  20.296  0.00  0.00    +0.000 A 
ATOM      9  C   UNL     1      -5.668  12.583  19.328  0.00  0.00    +0.000 A 
ATOM     10  C   UNL     1      -4.907  11.655  18.598  0.00  0.00    +0.000 A 
ATOM     11  C   UNL     1      -3.523  11.566  18.823  0.00  0.00    +0.000 A 
ENDROOT
BRANCH   9  12
ATOM     12  N   UNL     1      -7.110  12.709  19.062  0.00  0.00    +0.000 N 
ATOM     13  O   UNL     1      -7.855  12.941  20.023  0.00  0.00    +0.000 OA
ATOM     14  O   UNL     1      -7.490  12.558  17.891  0.00  0.00    +0.000 OA
ENDBRANCH   9  12
BRANCH   1  15
ATOM     15  C   UNL     1      -3.159   9.892  16.861  0.00  0.00    +0.000 C 
BRANCH  15  17
ATOM     16  O   UNL     1      -3.069   9.944  14.441  0.00  0.00    +0.000 OA
ATOM     17  C   UNL     1      -2.866  10.493  15.512  0.00  0.00    +0.000 C 
BRANCH  17  18
ATOM     18  O   UNL     1      -2.286  11.713  15.591  0.00  0.00    +0.000 OA
ATOM     19  H   UNL     1      -2.850  12.459  15.308  0.00  0.00    +0.000 HD
ENDBRANCH  17  18
ENDBRANCH  15  17
ENDBRANCH   1  15
BRANCH   3  20
ATOM     20  C   UNL     1       0.666  11.216  19.488  0.00  0.00    +0.000 C 
BRANCH  20  21
ATOM     21  C   UNL     1       1.144   9.790  19.532  0.00  0.00    +0.000 A 
ATOM     22  N   UNL     1       1.813   9.212  18.554  0.00  0.00    +0.000 NA
ATOM     23  C   UNL     1       2.096   7.897  18.879  0.00  0.00    +0.000 A 
ATOM     24  C   UNL     1       2.732   6.963  18.038  0.00  0.00    +0.000 A 
ATOM     25  C   UNL     1       2.900   5.642  18.465  0.00  0.00    +0.000 A 
ATOM     26  C   UNL     1       2.483   5.256  19.735  0.00  0.00    +0.000 A 
ATOM     27  C   UNL     1       1.888   6.175  20.606  0.00  0.00    +0.000 A 
ATOM     28  C   UNL     1       1.683   7.489  20.148  0.00  0.00    +0.000 A 
ATOM     29  S   UNL     1       0.931   8.821  20.940  0.00  0.00    +0.000 S 
ENDBRANCH  20  21
ENDBRANCH   3  20
TORSDOF 6
ENDMDL
