MODEL 1
REMARK VINA RESULT:      -5.4      0.000      0.000
REMARK  Name = 
REMARK  6 active torsions:
REMARK  status: ('A' for Active; 'I' for Inactive)
REMARK    1  A    between atoms: C_1  and  C_2
REMARK    2  A    between atoms: C_2  and  O_4
REMARK    3  A    between atoms: O_4  and  C_5
REMARK    4  A    between atoms: C_7  and  C_8
REMARK    5  A    between atoms: C_8  and  C_9
REMARK    6  A    between atoms: C_8  and  C_10
REMARK                            x       y       z     vdW  Elec       q    Type
REMARK                         _______ _______ _______ _____ _____    ______ ____
ROOT
ATOM      1  C   UNL     1       6.435   4.531  13.747  0.00  0.00    +0.000 C 
ATOM      2  C   UNL     1       6.182   3.678  14.956  0.00  0.00    +0.000 C 
ATOM      3  C   UNL     1       6.369   4.678  16.070  0.00  0.00    +0.000 C 
ATOM      4  O   UNL     1       7.426   5.540  15.604  0.00  0.00    +0.000 OA
ATOM      5  O   UNL     1       7.568   5.311  14.149  0.00  0.00    +0.000 OA
ENDROOT
BRANCH   3   6
ATOM      6  C   UNL     1       5.138   5.549  16.407  0.00  0.00    +0.000 C 
ATOM      7  C   UNL     1       4.105   4.807  17.257  0.00  0.00    +0.000 C 
ATOM      8  C   UNL     1       5.563   6.830  17.138  0.00  0.00    +0.000 C 
ENDBRANCH   3   6
BRANCH   1   9
ATOM      9  O   UNL     1       6.749   3.721  12.613  0.00  0.00    +0.000 OA
BRANCH   9  11
ATOM     10  C   UNL     1       6.099   1.767  11.497  0.00  0.00    +0.000 C 
ATOM     11  C   UNL     1       5.687   3.107  12.032  0.00  0.00    +0.000 C 
ATOM     12  O   UNL     1       4.555   3.555  11.964  0.00  0.00    +0.000 OA
ENDBRANCH   9  11
ENDBRANCH   1   9
TORSDOF 3
ENDMDL
MODEL 2
REMARK VINA RESULT:      -5.4      4.646      6.894
REMARK  Name = 
REMARK  6 active torsions:
REMARK  status: ('A' for Active; 'I' for Inactive)
REMARK    1  A    between atoms: C_1  and  C_2
REMARK    2  A    between atoms: C_2  and  O_4
REMARK    3  A    between atoms: O_4  and  C_5
REMARK    4  A    between atoms: C_7  and  C_8
REMARK    5  A    between atoms: C_8  and  C_9
REMARK    6  A    between atoms: C_8  and  C_10
REMARK                            x       y       z     vdW  Elec       q    Type
REMARK                         _______ _______ _______ _____ _____    ______ ____
ROOT
ATOM      1  C   UNL     1       3.258   4.205  19.823  0.00  0.00    +0.000 C 
ATOM      2  C   UNL     1       3.920   5.534  19.603  0.00  0.00    +0.000 C 
ATOM      3  C   UNL     1       4.986   5.174  18.601  0.00  0.00    +0.000 C 
ATOM      4  O   UNL     1       5.407   3.851  18.986  0.00  0.00    +0.000 OA
ATOM      5  O   UNL     1       4.376   3.312  19.899  0.00  0.00    +0.000 OA
ENDROOT
BRANCH   3   6
ATOM      6  C   UNL     1       4.537   5.135  17.122  0.00  0.00    +0.000 C 
ATOM      7  C   UNL     1       5.010   6.355  16.331  0.00  0.00    +0.000 C 
ATOM      8  C   UNL     1       5.046   3.861  16.434  0.00  0.00    +0.000 C 
ENDBRANCH   3   6
BRANCH   1   9
ATOM      9  O   UNL     1       2.519   4.203  21.046  0.00  0.00    +0.000 OA
BRANCH   9  11
ATOM     10  C   UNL     1       0.825   3.048  19.912  0.00  0.00    +0.000 C 
ATOM     11  C   UNL     1       1.623   3.191  21.175  0.00  0.00    +0.000 C 
ATOM     12  O   UNL     1       1.486   2.483  22.158  0.00  0.00    +0.000 OA
ENDBRANCH   9  11
ENDBRANCH   1   9
TORSDOF 3
ENDMDL
MODEL 3
REMARK VINA RESULT:      -5.4      4.207      5.671
REMARK  Name = 
REMARK  6 active torsions:
REMARK  status: ('A' for Active; 'I' for Inactive)
REMARK    1  A    between atoms: C_1  and  C_2
REMARK    2  A    between atoms: C_2  and  O_4
REMARK    3  A    between atoms: O_4  and  C_5
REMARK    4  A    between atoms: C_7  and  C_8
REMARK    5  A    between atoms: C_8  and  C_9
REMARK    6  A    between atoms: C_8  and  C_10
REMARK                            x       y       z     vdW  Elec       q    Type
REMARK                         _______ _______ _______ _____ _____    ______ ____
ROOT
ATOM      1  C   UNL     1       5.368   4.545  18.798  0.00  0.00    +0.000 C 
ATOM      2  C   UNL     1       4.828   3.285  19.408  0.00  0.00    +0.000 C 
ATOM      3  C   UNL     1       3.371   3.635  19.577  0.00  0.00    +0.000 C 
ATOM      4  O   UNL     1       3.377   5.037  19.913  0.00  0.00    +0.000 OA
ATOM      5  O   UNL     1       4.715   5.564  19.565  0.00  0.00    +0.000 OA
ENDROOT
BRANCH   3   6
ATOM      6  C   UNL     1       2.480   3.432  18.330  0.00  0.00    +0.000 C 
ATOM      7  C   UNL     1       2.777   2.122  17.600  0.00  0.00    +0.000 C 
ATOM      8  C   UNL     1       0.995   3.469  18.714  0.00  0.00    +0.000 C 
ENDBRANCH   3   6
BRANCH   1   9
ATOM      9  O   UNL     1       6.786   4.617  18.956  0.00  0.00    +0.000 OA
BRANCH   9  11
ATOM     10  C   UNL     1       7.455   6.498  17.729  0.00  0.00    +0.000 C 
ATOM     11  C   UNL     1       7.470   5.001  17.848  0.00  0.00    +0.000 C 
ATOM     12  O   UNL     1       8.034   4.256  17.066  0.00  0.00    +0.000 OA
ENDBRANCH   9  11
ENDBRANCH   1   9
TORSDOF 3
ENDMDL
MODEL 4
REMARK VINA RESULT:      -5.3      3.587      5.297
REMARK  Name = 
REMARK  6 active torsions:
REMARK  status: ('A' for Active; 'I' for Inactive)
REMARK    1  A    between atoms: C_1  and  C_2
REMARK    2  A    between atoms: C_2  and  O_4
REMARK    3  A    between atoms: O_4  and  C_5
REMARK    4  A    between atoms: C_7  and  C_8
REMARK    5  A    between atoms: C_8  and  C_9
REMARK    6  A    between atoms: C_8  and  C_10
REMARK                            x       y       z     vdW  Elec       q    Type
REMARK                         _______ _______ _______ _____ _____    ______ ____
ROOT
ATOM      1  C   UNL     1       4.837   4.548  18.170  0.00  0.00    +0.000 C 
ATOM      2  C   UNL     1       4.103   3.362  17.616  0.00  0.00    +0.000 C 
ATOM      3  C   UNL     1       3.731   2.626  18.878  0.00  0.00    +0.000 C 
ATOM      4  O   UNL     1       4.850   2.840  19.761  0.00  0.00    +0.000 OA
ATOM      5  O   UNL     1       5.638   3.961  19.204  0.00  0.00    +0.000 OA
ENDROOT
BRANCH   3   6
ATOM      6  C   UNL     1       2.446   3.110  19.588  0.00  0.00    +0.000 C 
ATOM      7  C   UNL     1       1.178   2.491  18.998  0.00  0.00    +0.000 C 
ATOM      8  C   UNL     1       2.506   2.799  21.089  0.00  0.00    +0.000 C 
ENDBRANCH   3   6
BRANCH   1   9
ATOM      9  O   UNL     1       5.658   5.149  17.167  0.00  0.00    +0.000 OA
BRANCH   9  11
ATOM     10  C   UNL     1       4.181   6.948  17.431  0.00  0.00    +0.000 C 
ATOM     11  C   UNL     1       5.090   6.191  16.508  0.00  0.00    +0.000 C 
ATOM     12  O   UNL     1       5.293   6.492  15.344  0.00  0.00    +0.000 OA
ENDBRANCH   9  11
ENDBRANCH   1   9
TORSDOF 3
ENDMDL
MODEL 5
REMARK VINA RESULT:      -5.3      3.815      5.367
REMARK  Name = 
REMARK  6 active torsions:
REMARK  status: ('A' for Active; 'I' for Inactive)
REMARK    1  A    between atoms: C_1  and  C_2
REMARK    2  A    between atoms: C_2  and  O_4
REMARK    3  A    between atoms: O_4  and  C_5
REMARK    4  A    between atoms: C_7  and  C_8
REMARK    5  A    between atoms: C_8  and  C_9
REMARK    6  A    between atoms: C_8  and  C_10
REMARK                            x       y       z     vdW  Elec       q    Type
REMARK                         _______ _______ _______ _____ _____    ______ ____
ROOT
ATOM      1  C   UNL     1       5.196   4.393  18.170  0.00  0.00    +0.000 C 
ATOM      2  C   UNL     1       4.285   3.432  17.464  0.00  0.00    +0.000 C 
ATOM      3  C   UNL     1       3.399   2.975  18.595  0.00  0.00    +0.000 C 
ATOM      4  O   UNL     1       4.273   2.933  19.740  0.00  0.00    +0.000 OA
ATOM      5  O   UNL     1       5.488   3.702  19.392  0.00  0.00    +0.000 OA
ENDROOT
BRANCH   3   6
ATOM      6  C   UNL     1       2.200   3.893  18.926  0.00  0.00    +0.000 C 
ATOM      7  C   UNL     1       1.509   4.434  17.674  0.00  0.00    +0.000 C 
ATOM      8  C   UNL     1       1.171   3.151  19.789  0.00  0.00    +0.000 C 
ENDBRANCH   3   6
BRANCH   1   9
ATOM      9  O   UNL     1       6.386   4.613  17.411  0.00  0.00    +0.000 OA
BRANCH   9  11
ATOM     10  C   UNL     1       7.657   6.314  18.401  0.00  0.00    +0.000 C 
ATOM     11  C   UNL     1       6.750   5.914  17.274  0.00  0.00    +0.000 C 
ATOM     12  O   UNL     1       6.413   6.655  16.368  0.00  0.00    +0.000 OA
ENDBRANCH   9  11
ENDBRANCH   1   9
TORSDOF 3
ENDMDL
MODEL 6
REMARK VINA RESULT:      -5.3      4.297      5.512
REMARK  Name = 
REMARK  6 active torsions:
REMARK  status: ('A' for Active; 'I' for Inactive)
REMARK    1  A    between atoms: C_1  and  C_2
REMARK    2  A    between atoms: C_2  and  O_4
REMARK    3  A    between atoms: O_4  and  C_5
REMARK    4  A    between atoms: C_7  and  C_8
REMARK    5  A    between atoms: C_8  and  C_9
REMARK    6  A    between atoms: C_8  and  C_10
REMARK                            x       y       z     vdW  Elec       q    Type
REMARK                         _______ _______ _______ _____ _____    ______ ____
ROOT
ATOM      1  C   UNL     1       4.066   4.132  18.660  0.00  0.00    +0.000 C 
ATOM      2  C   UNL     1       4.342   5.569  18.992  0.00  0.00    +0.000 C 
ATOM      3  C   UNL     1       5.849   5.605  18.929  0.00  0.00    +0.000 C 
ATOM      4  O   UNL     1       6.259   4.321  19.437  0.00  0.00    +0.000 OA
ATOM      5  O   UNL     1       5.070   3.441  19.415  0.00  0.00    +0.000 OA
ENDROOT
BRANCH   3   6
ATOM      6  C   UNL     1       6.461   5.796  17.522  0.00  0.00    +0.000 C 
ATOM      7  C   UNL     1       7.238   7.106  17.390  0.00  0.00    +0.000 C 
ATOM      8  C   UNL     1       7.386   4.624  17.170  0.00  0.00    +0.000 C 
ENDBRANCH   3   6
BRANCH   1   9
ATOM      9  O   UNL     1       2.756   3.756  19.088  0.00  0.00    +0.000 OA
BRANCH   9  11
ATOM     10  C   UNL     1       0.825   2.464  18.786  0.00  0.00    +0.000 C 
ATOM     11  C   UNL     1       1.991   3.155  18.141  0.00  0.00    +0.000 C 
ATOM     12  O   UNL     1       2.197   3.179  16.940  0.00  0.00    +0.000 OA
ENDBRANCH   9  11
ENDBRANCH   1   9
TORSDOF 3
ENDMDL
MODEL 7
REMARK VINA RESULT:      -5.3      0.875      1.053
REMARK  Name = 
REMARK  6 active torsions:
REMARK  status: ('A' for Active; 'I' for Inactive)
REMARK    1  A    between atoms: C_1  and  C_2
REMARK    2  A    between atoms: C_2  and  O_4
REMARK    3  A    between atoms: O_4  and  C_5
REMARK    4  A    between atoms: C_7  and  C_8
REMARK    5  A    between atoms: C_8  and  C_9
REMARK    6  A    between atoms: C_8  and  C_10
REMARK                            x       y       z     vdW  Elec       q    Type
REMARK                         _______ _______ _______ _____ _____    ______ ____
ROOT
ATOM      1  C   UNL     1       6.366   4.378  13.385  0.00  0.00    +0.000 C 
ATOM      2  C   UNL     1       6.305   3.559  14.641  0.00  0.00    +0.000 C 
ATOM      3  C   UNL     1       6.451   4.624  15.698  0.00  0.00    +0.000 C 
ATOM      4  O   UNL     1       7.362   5.579  15.120  0.00  0.00    +0.000 OA
ATOM      5  O   UNL     1       7.425   5.301  13.668  0.00  0.00    +0.000 OA
ENDROOT
BRANCH   3   6
ATOM      6  C   UNL     1       5.153   5.361  16.097  0.00  0.00    +0.000 C 
ATOM      7  C   UNL     1       4.275   4.540  17.041  0.00  0.00    +0.000 C 
ATOM      8  C   UNL     1       5.476   6.709  16.755  0.00  0.00    +0.000 C 
ENDBRANCH   3   6
BRANCH   1   9
ATOM      9  O   UNL     1       6.691   3.557  12.261  0.00  0.00    +0.000 OA
BRANCH   9  11
ATOM     10  C   UNL     1       4.432   3.581  11.640  0.00  0.00    +0.000 C 
ATOM     11  C   UNL     1       5.682   2.767  11.814  0.00  0.00    +0.000 C 
ATOM     12  O   UNL     1       5.765   1.576  11.569  0.00  0.00    +0.000 OA
ENDBRANCH   9  11
ENDBRANCH   1   9
TORSDOF 3
ENDMDL
MODEL 8
REMARK VINA RESULT:      -5.3      4.262      6.180
REMARK  Name = 
REMARK  6 active torsions:
REMARK  status: ('A' for Active; 'I' for Inactive)
REMARK    1  A    between atoms: C_1  and  C_2
REMARK    2  A    between atoms: C_2  and  O_4
REMARK    3  A    between atoms: O_4  and  C_5
REMARK    4  A    between atoms: C_7  and  C_8
REMARK    5  A    between atoms: C_8  and  C_9
REMARK    6  A    between atoms: C_8  and  C_10
REMARK                            x       y       z     vdW  Elec       q    Type
REMARK                         _______ _______ _______ _____ _____    ______ ____
ROOT
ATOM      1  C   UNL     1       3.399   3.419  18.441  0.00  0.00    +0.000 C 
ATOM      2  C   UNL     1       2.038   3.915  18.051  0.00  0.00    +0.000 C 
ATOM      3  C   UNL     1       1.154   3.118  18.978  0.00  0.00    +0.000 C 
ATOM      4  O   UNL     1       1.808   1.838  19.082  0.00  0.00    +0.000 OA
ATOM      5  O   UNL     1       3.188   2.009  18.579  0.00  0.00    +0.000 OA
ENDROOT
BRANCH   3   6
ATOM      6  C   UNL     1       0.974   3.695  20.400  0.00  0.00    +0.000 C 
ATOM      7  C   UNL     1       1.511   2.763  21.487  0.00  0.00    +0.000 C 
ATOM      8  C   UNL     1       1.662   5.061  20.523  0.00  0.00    +0.000 C 
ENDBRANCH   3   6
BRANCH   1   9
ATOM      9  O   UNL     1       4.352   3.695  17.413  0.00  0.00    +0.000 OA
BRANCH   9  11
ATOM     10  C   UNL     1       5.331   5.783  16.999  0.00  0.00    +0.000 C 
ATOM     11  C   UNL     1       5.379   4.503  17.782  0.00  0.00    +0.000 C 
ATOM     12  O   UNL     1       6.215   4.249  18.632  0.00  0.00    +0.000 OA
ENDBRANCH   9  11
ENDBRANCH   1   9
TORSDOF 3
ENDMDL
MODEL 9
REMARK VINA RESULT:      -5.3      4.190      5.923
REMARK  Name = 
REMARK  6 active torsions:
REMARK  status: ('A' for Active; 'I' for Inactive)
REMARK    1  A    between atoms: C_1  and  C_2
REMARK    2  A    between atoms: C_2  and  O_4
REMARK    3  A    between atoms: O_4  and  C_5
REMARK    4  A    between atoms: C_7  and  C_8
REMARK    5  A    between atoms: C_8  and  C_9
REMARK    6  A    between atoms: C_8  and  C_10
REMARK                            x       y       z     vdW  Elec       q    Type
REMARK                         _______ _______ _______ _____ _____    ______ ____
ROOT
ATOM      1  C   UNL     1       3.941   3.355  18.883  0.00  0.00    +0.000 C 
ATOM      2  C   UNL     1       3.889   4.842  18.691  0.00  0.00    +0.000 C 
ATOM      3  C   UNL     1       5.305   5.137  18.264  0.00  0.00    +0.000 C 
ATOM      4  O   UNL     1       6.107   4.210  19.023  0.00  0.00    +0.000 OA
ATOM      5  O   UNL     1       5.195   3.172  19.550  0.00  0.00    +0.000 OA
ENDROOT
BRANCH   3   6
ATOM      6  C   UNL     1       5.613   4.938  16.763  0.00  0.00    +0.000 C 
ATOM      7  C   UNL     1       5.227   6.152  15.916  0.00  0.00    +0.000 C 
ATOM      8  C   UNL     1       7.100   4.628  16.550  0.00  0.00    +0.000 C 
ENDBRANCH   3   6
BRANCH   1   9
ATOM      9  O   UNL     1       2.857   2.912  19.702  0.00  0.00    +0.000 OA
BRANCH   9  11
ATOM     10  C   UNL     1       0.805   3.901  20.252  0.00  0.00    +0.000 C 
ATOM     11  C   UNL     1       1.619   3.183  19.215  0.00  0.00    +0.000 C 
ATOM     12  O   UNL     1       1.218   2.906  18.097  0.00  0.00    +0.000 OA
ENDBRANCH   9  11
ENDBRANCH   1   9
TORSDOF 3
ENDMDL
