MODEL 1
REMARK VINA RESULT:      -8.9      0.000      0.000
REMARK  Name = 
REMARK  6 active torsions:
REMARK  status: ('A' for Active; 'I' for Inactive)
REMARK    1  A    between atoms: C_1  and  C_2
REMARK    2  A    between atoms: C_5  and  N_6
REMARK    3  A    between atoms: N_6  and  C_7
REMARK    4  A    between atoms: N_15  and  C_16
REMARK    5  A    between atoms: N_15  and  C_17
REMARK    6  A    between atoms: N_18  and  C_19
REMARK                            x       y       z     vdW  Elec       q    Type
REMARK                         _______ _______ _______ _____ _____    ______ ____
ROOT
ATOM      1  C   UNL     1       1.453   8.191  20.572  0.00  0.00    +0.000 A 
ATOM      2  C   UNL     1       0.375   8.138  21.463  0.00  0.00    +0.000 A 
ATOM      3  C   UNL     1      -0.557   9.190  21.570  0.00  0.00    +0.000 A 
ATOM      4  C   UNL     1      -0.362  10.312  20.748  0.00  0.00    +0.000 A 
ATOM      5  C   UNL     1       0.588  10.274  19.739  0.00  0.00    +0.000 A 
ATOM      6  C   UNL     1       1.509   9.237  19.652  0.00  0.00    +0.000 A 
ATOM      7  N   UNL     1       0.504  11.343  18.931  0.00  0.00    +0.000 NA
ATOM      8  C   UNL     1      -0.190  12.226  19.612  0.00  0.00    +0.000 A 
ATOM      9  N   UNL     1       0.061  13.574  19.445  0.00  0.00    +0.000 N 
ATOM     10  C   UNL     1       1.148  13.788  18.442  0.00  0.00    +0.000 C 
ATOM     11  C   UNL     1       0.354  14.339  20.661  0.00  0.00    +0.000 C 
ATOM     12  N   UNL     1      -0.941  11.582  20.624  0.00  0.00    +0.000 N 
ENDROOT
BRANCH  12  13
ATOM     13  C   UNL     1      -2.014  12.090  21.423  0.00  0.00    +0.000 A 
ATOM     14  C   UNL     1      -3.145  12.663  20.826  0.00  0.00    +0.000 A 
ATOM     15  C   UNL     1      -4.204  13.114  21.628  0.00  0.00    +0.000 A 
ATOM     16  C   UNL     1      -4.134  13.022  23.021  0.00  0.00    +0.000 A 
ATOM     17  C   UNL     1      -3.013  12.455  23.617  0.00  0.00    +0.000 A 
ATOM     18  C   UNL     1      -1.962  11.985  22.823  0.00  0.00    +0.000 A 
ENDBRANCH  12  13
BRANCH   1  19
ATOM     19  N   UNL     1       2.415   7.162  20.503  0.00  0.00    +0.000 N 
ATOM     20  H   UNL     1       3.313   7.462  20.146  0.00  0.00    +0.000 HD
BRANCH  19  25
ATOM     21  C   UNL     1       1.178   1.951  18.697  0.00  0.00    +0.000 C 
ATOM     22  C   UNL     1       1.535   3.357  19.072  0.00  0.00    +0.000 A 
ATOM     23  N   UNL     1       0.885   3.859  20.144  0.00  0.00    +0.000 NA
ATOM     24  N   UNL     1       1.179   5.113  20.596  0.00  0.00    +0.000 NA
ATOM     25  C   UNL     1       2.119   5.871  19.984  0.00  0.00    +0.000 A 
ATOM     26  C   UNL     1       2.800   5.401  18.849  0.00  0.00    +0.000 A 
ATOM     27  C   UNL     1       3.804   6.158  18.203  0.00  0.00    +0.000 A 
ATOM     28  C   UNL     1       4.502   5.650  17.105  0.00  0.00    +0.000 A 
ATOM     29  C   UNL     1       4.202   4.377  16.626  0.00  0.00    +0.000 A 
ATOM     30  C   UNL     1       3.220   3.619  17.255  0.00  0.00    +0.000 A 
ATOM     31  C   UNL     1       2.505   4.104  18.377  0.00  0.00    +0.000 A 
ENDBRANCH  19  25
ENDBRANCH   1  19
TORSDOF 3
ENDMDL
MODEL 2
REMARK VINA RESULT:      -8.8      1.126      1.403
REMARK  Name = 
REMARK  6 active torsions:
REMARK  status: ('A' for Active; 'I' for Inactive)
REMARK    1  A    between atoms: C_1  and  C_2
REMARK    2  A    between atoms: C_5  and  N_6
REMARK    3  A    between atoms: N_6  and  C_7
REMARK    4  A    between atoms: N_15  and  C_16
REMARK    5  A    between atoms: N_15  and  C_17
REMARK    6  A    between atoms: N_18  and  C_19
REMARK                            x       y       z     vdW  Elec       q    Type
REMARK                         _______ _______ _______ _____ _____    ______ ____
ROOT
ATOM      1  C   UNL     1       1.519   8.297  20.853  0.00  0.00    +0.000 A 
ATOM      2  C   UNL     1       1.241   8.699  22.164  0.00  0.00    +0.000 A 
ATOM      3  C   UNL     1       0.323   9.730  22.450  0.00  0.00    +0.000 A 
ATOM      4  C   UNL     1      -0.305  10.355  21.361  0.00  0.00    +0.000 A 
ATOM      5  C   UNL     1      -0.171   9.826  20.087  0.00  0.00    +0.000 A 
ATOM      6  C   UNL     1       0.745   8.817  19.816  0.00  0.00    +0.000 A 
ATOM      7  N   UNL     1      -0.991  10.423  19.207  0.00  0.00    +0.000 NA
ATOM      8  C   UNL     1      -1.342  11.549  19.785  0.00  0.00    +0.000 A 
ATOM      9  N   UNL     1      -1.598  12.666  19.014  0.00  0.00    +0.000 N 
ATOM     10  C   UNL     1      -1.421  12.358  17.563  0.00  0.00    +0.000 C 
ATOM     11  C   UNL     1      -0.849  13.880  19.356  0.00  0.00    +0.000 C 
ATOM     12  N   UNL     1      -1.147  11.461  21.184  0.00  0.00    +0.000 N 
ENDROOT
BRANCH  12  13
ATOM     13  C   UNL     1      -1.620  12.323  22.223  0.00  0.00    +0.000 A 
ATOM     14  C   UNL     1      -0.788  13.304  22.778  0.00  0.00    +0.000 A 
ATOM     15  C   UNL     1      -1.289  14.168  23.764  0.00  0.00    +0.000 A 
ATOM     16  C   UNL     1      -2.604  14.044  24.221  0.00  0.00    +0.000 A 
ATOM     17  C   UNL     1      -3.433  13.071  23.673  0.00  0.00    +0.000 A 
ATOM     18  C   UNL     1      -2.947  12.221  22.675  0.00  0.00    +0.000 A 
ENDBRANCH  12  13
BRANCH   1  19
ATOM     19  N   UNL     1       2.476   7.302  20.564  0.00  0.00    +0.000 N 
ATOM     20  H   UNL     1       3.285   7.642  20.062  0.00  0.00    +0.000 HD
BRANCH  19  25
ATOM     21  C   UNL     1       0.997   2.141  18.793  0.00  0.00    +0.000 C 
ATOM     22  C   UNL     1       1.419   3.532  19.158  0.00  0.00    +0.000 A 
ATOM     23  N   UNL     1       0.802   4.066  20.235  0.00  0.00    +0.000 NA
ATOM     24  N   UNL     1       1.154   5.308  20.679  0.00  0.00    +0.000 NA
ATOM     25  C   UNL     1       2.119   6.023  20.054  0.00  0.00    +0.000 A 
ATOM     26  C   UNL     1       2.767   5.520  18.914  0.00  0.00    +0.000 A 
ATOM     27  C   UNL     1       3.796   6.230  18.254  0.00  0.00    +0.000 A 
ATOM     28  C   UNL     1       4.460   5.688  17.152  0.00  0.00    +0.000 A 
ATOM     29  C   UNL     1       4.102   4.427  16.681  0.00  0.00    +0.000 A 
ATOM     30  C   UNL     1       3.094   3.715  17.323  0.00  0.00    +0.000 A 
ATOM     31  C   UNL     1       2.413   4.234  18.451  0.00  0.00    +0.000 A 
ENDBRANCH  19  25
ENDBRANCH   1  19
TORSDOF 3
ENDMDL
MODEL 3
REMARK VINA RESULT:      -8.8      1.120      2.176
REMARK  Name = 
REMARK  6 active torsions:
REMARK  status: ('A' for Active; 'I' for Inactive)
REMARK    1  A    between atoms: C_1  and  C_2
REMARK    2  A    between atoms: C_5  and  N_6
REMARK    3  A    between atoms: N_6  and  C_7
REMARK    4  A    between atoms: N_15  and  C_16
REMARK    5  A    between atoms: N_15  and  C_17
REMARK    6  A    between atoms: N_18  and  C_19
REMARK                            x       y       z     vdW  Elec       q    Type
REMARK                         _______ _______ _______ _____ _____    ______ ____
ROOT
ATOM      1  C   UNL     1       1.340   7.747  20.763  0.00  0.00    +0.000 A 
ATOM      2  C   UNL     1       0.186   7.968  21.523  0.00  0.00    +0.000 A 
ATOM      3  C   UNL     1      -0.562   9.158  21.417  0.00  0.00    +0.000 A 
ATOM      4  C   UNL     1      -0.100  10.133  20.519  0.00  0.00    +0.000 A 
ATOM      5  C   UNL     1       0.926   9.831  19.636  0.00  0.00    +0.000 A 
ATOM      6  C   UNL     1       1.663   8.660  19.758  0.00  0.00    +0.000 A 
ATOM      7  N   UNL     1       1.104  10.800  18.724  0.00  0.00    +0.000 NA
ATOM      8  C   UNL     1       0.505  11.853  19.230  0.00  0.00    +0.000 A 
ATOM      9  N   UNL     1       0.994  13.117  18.963  0.00  0.00    +0.000 N 
ATOM     10  C   UNL     1       2.195  13.041  18.078  0.00  0.00    +0.000 C 
ATOM     11  C   UNL     1       1.289  13.961  20.125  0.00  0.00    +0.000 C 
ATOM     12  N   UNL     1      -0.441  11.455  20.205  0.00  0.00    +0.000 N 
ENDROOT
BRANCH  12  13
ATOM     13  C   UNL     1      -1.487  12.214  20.820  0.00  0.00    +0.000 A 
ATOM     14  C   UNL     1      -2.599  12.637  20.080  0.00  0.00    +0.000 A 
ATOM     15  C   UNL     1      -3.634  13.340  20.714  0.00  0.00    +0.000 A 
ATOM     16  C   UNL     1      -3.556  13.650  22.075  0.00  0.00    +0.000 A 
ATOM     17  C   UNL     1      -2.454  13.233  22.813  0.00  0.00    +0.000 A 
ATOM     18  C   UNL     1      -1.429  12.513  22.192  0.00  0.00    +0.000 A 
ENDBRANCH  12  13
BRANCH   1  19
ATOM     19  N   UNL     1       2.118   6.580  20.907  0.00  0.00    +0.000 N 
ATOM     20  H   UNL     1       2.807   6.632  21.646  0.00  0.00    +0.000 HD
BRANCH  19  25
ATOM     21  C   UNL     1       4.418   4.104  16.376  0.00  0.00    +0.000 C 
ATOM     22  C   UNL     1       3.782   4.660  17.614  0.00  0.00    +0.000 A 
ATOM     23  N   UNL     1       4.248   5.859  18.022  0.00  0.00    +0.000 NA
ATOM     24  N   UNL     1       3.697   6.473  19.110  0.00  0.00    +0.000 NA
ATOM     25  C   UNL     1       2.683   5.895  19.795  0.00  0.00    +0.000 A 
ATOM     26  C   UNL     1       2.185   4.635  19.424  0.00  0.00    +0.000 A 
ATOM     27  C   UNL     1       1.110   4.018  20.103  0.00  0.00    +0.000 A 
ATOM     28  C   UNL     1       0.600   2.787  19.685  0.00  0.00    +0.000 A 
ATOM     29  C   UNL     1       1.161   2.144  18.585  0.00  0.00    +0.000 A 
ATOM     30  C   UNL     1       2.217   2.743  17.904  0.00  0.00    +0.000 A 
ATOM     31  C   UNL     1       2.746   3.996  18.298  0.00  0.00    +0.000 A 
ENDBRANCH  19  25
ENDBRANCH   1  19
TORSDOF 3
ENDMDL
MODEL 4
REMARK VINA RESULT:      -8.6      2.273      8.512
REMARK  Name = 
REMARK  6 active torsions:
REMARK  status: ('A' for Active; 'I' for Inactive)
REMARK    1  A    between atoms: C_1  and  C_2
REMARK    2  A    between atoms: C_5  and  N_6
REMARK    3  A    between atoms: N_6  and  C_7
REMARK    4  A    between atoms: N_15  and  C_16
REMARK    5  A    between atoms: N_15  and  C_17
REMARK    6  A    between atoms: N_18  and  C_19
REMARK                            x       y       z     vdW  Elec       q    Type
REMARK                         _______ _______ _______ _____ _____    ______ ____
ROOT
ATOM      1  C   UNL     1       1.590   9.392  18.501  0.00  0.00    +0.000 A 
ATOM      2  C   UNL     1       1.088   8.760  19.644  0.00  0.00    +0.000 A 
ATOM      3  C   UNL     1       1.498   7.464  20.022  0.00  0.00    +0.000 A 
ATOM      4  C   UNL     1       2.432   6.817  19.198  0.00  0.00    +0.000 A 
ATOM      5  C   UNL     1       3.064   7.518  18.183  0.00  0.00    +0.000 A 
ATOM      6  C   UNL     1       2.643   8.789  17.813  0.00  0.00    +0.000 A 
ATOM      7  N   UNL     1       4.061   6.809  17.630  0.00  0.00    +0.000 NA
ATOM      8  C   UNL     1       3.829   5.567  17.984  0.00  0.00    +0.000 A 
ATOM      9  N   UNL     1       4.185   4.533  17.141  0.00  0.00    +0.000 N 
ATOM     10  C   UNL     1       4.822   5.062  15.898  0.00  0.00    +0.000 C 
ATOM     11  C   UNL     1       3.125   3.584  16.788  0.00  0.00    +0.000 C 
ATOM     12  N   UNL     1       2.990   5.533  19.125  0.00  0.00    +0.000 N 
ENDROOT
BRANCH  12  13
ATOM     13  C   UNL     1       2.689   4.442  19.999  0.00  0.00    +0.000 A 
ATOM     14  C   UNL     1       1.382   4.227  20.456  0.00  0.00    +0.000 A 
ATOM     15  C   UNL     1       1.102   3.124  21.276  0.00  0.00    +0.000 A 
ATOM     16  C   UNL     1       2.119   2.248  21.667  0.00  0.00    +0.000 A 
ATOM     17  C   UNL     1       3.418   2.459  21.216  0.00  0.00    +0.000 A 
ATOM     18  C   UNL     1       3.700   3.544  20.381  0.00  0.00    +0.000 A 
ENDBRANCH  12  13
BRANCH   1  19
ATOM     19  N   UNL     1       1.142  10.665  18.094  0.00  0.00    +0.000 N 
ATOM     20  H   UNL     1       1.886  11.333  17.937  0.00  0.00    +0.000 HD
BRANCH  19  25
ATOM     21  C   UNL     1      -3.051  13.303  20.818  0.00  0.00    +0.000 C 
ATOM     22  C   UNL     1      -2.005  12.599  20.007  0.00  0.00    +0.000 A 
ATOM     23  N   UNL     1      -0.727  12.827  20.378  0.00  0.00    +0.000 NA
ATOM     24  N   UNL     1       0.296  12.191  19.734  0.00  0.00    +0.000 NA
ATOM     25  C   UNL     1       0.050  11.328  18.721  0.00  0.00    +0.000 A 
ATOM     26  C   UNL     1      -1.261  11.082  18.283  0.00  0.00    +0.000 A 
ATOM     27  C   UNL     1      -1.552  10.167  17.245  0.00  0.00    +0.000 A 
ATOM     28  C   UNL     1      -2.868   9.901  16.861  0.00  0.00    +0.000 A 
ATOM     29  C   UNL     1      -3.920  10.553  17.500  0.00  0.00    +0.000 A 
ATOM     30  C   UNL     1      -3.648  11.452  18.526  0.00  0.00    +0.000 A 
ATOM     31  C   UNL     1      -2.325  11.731  18.946  0.00  0.00    +0.000 A 
ENDBRANCH  19  25
ENDBRANCH   1  19
TORSDOF 3
ENDMDL
MODEL 5
REMARK VINA RESULT:      -8.1      1.931      3.977
REMARK  Name = 
REMARK  6 active torsions:
REMARK  status: ('A' for Active; 'I' for Inactive)
REMARK    1  A    between atoms: C_1  and  C_2
REMARK    2  A    between atoms: C_5  and  N_6
REMARK    3  A    between atoms: N_6  and  C_7
REMARK    4  A    between atoms: N_15  and  C_16
REMARK    5  A    between atoms: N_15  and  C_17
REMARK    6  A    between atoms: N_18  and  C_19
REMARK                            x       y       z     vdW  Elec       q    Type
REMARK                         _______ _______ _______ _____ _____    ______ ____
ROOT
ATOM      1  C   UNL     1       1.744   8.615  18.507  0.00  0.00    +0.000 A 
ATOM      2  C   UNL     1       2.078   9.771  17.792  0.00  0.00    +0.000 A 
ATOM      3  C   UNL     1       1.840  11.062  18.305  0.00  0.00    +0.000 A 
ATOM      4  C   UNL     1       1.242  11.152  19.573  0.00  0.00    +0.000 A 
ATOM      5  C   UNL     1       1.093  10.015  20.351  0.00  0.00    +0.000 A 
ATOM      6  C   UNL     1       1.320   8.748  19.829  0.00  0.00    +0.000 A 
ATOM      7  N   UNL     1       0.693  10.310  21.599  0.00  0.00    +0.000 NA
ATOM      8  C   UNL     1       0.215  11.530  21.519  0.00  0.00    +0.000 A 
ATOM      9  N   UNL     1      -0.827  11.916  22.340  0.00  0.00    +0.000 N 
ATOM     10  C   UNL     1      -1.238  10.791  23.233  0.00  0.00    +0.000 C 
ATOM     11  C   UNL     1      -2.009  12.475  21.675  0.00  0.00    +0.000 C 
ATOM     12  N   UNL     1       0.729  12.183  20.372  0.00  0.00    +0.000 N 
ENDROOT
BRANCH  12  13
ATOM     13  C   UNL     1       0.696  13.570  20.024  0.00  0.00    +0.000 A 
ATOM     14  C   UNL     1      -0.166  14.040  19.025  0.00  0.00    +0.000 A 
ATOM     15  C   UNL     1      -0.215  15.411  18.733  0.00  0.00    +0.000 A 
ATOM     16  C   UNL     1       0.609  16.315  19.410  0.00  0.00    +0.000 A 
ATOM     17  C   UNL     1       1.467  15.852  20.401  0.00  0.00    +0.000 A 
ATOM     18  C   UNL     1       1.505  14.490  20.713  0.00  0.00    +0.000 A 
ENDBRANCH  12  13
BRANCH   1  19
ATOM     19  N   UNL     1       1.933   7.325  17.972  0.00  0.00    +0.000 N 
ATOM     20  H   UNL     1       1.194   6.672  18.199  0.00  0.00    +0.000 HD
BRANCH  19  25
ATOM     21  C   UNL     1       6.959   4.738  17.965  0.00  0.00    +0.000 C 
ATOM     22  C   UNL     1       5.605   5.372  18.062  0.00  0.00    +0.000 A 
ATOM     23  N   UNL     1       5.470   6.560  17.434  0.00  0.00    +0.000 NA
ATOM     24  N   UNL     1       4.260   7.193  17.421  0.00  0.00    +0.000 NA
ATOM     25  C   UNL     1       3.183   6.647  18.032  0.00  0.00    +0.000 A 
ATOM     26  C   UNL     1       3.283   5.427  18.721  0.00  0.00    +0.000 A 
ATOM     27  C   UNL     1       2.171   4.818  19.347  0.00  0.00    +0.000 A 
ATOM     28  C   UNL     1       2.285   3.581  19.984  0.00  0.00    +0.000 A 
ATOM     29  C   UNL     1       3.516   2.931  20.015  0.00  0.00    +0.000 A 
ATOM     30  C   UNL     1       4.618   3.516  19.399  0.00  0.00    +0.000 A 
ATOM     31  C   UNL     1       4.529   4.764  18.735  0.00  0.00    +0.000 A 
ENDBRANCH  19  25
ENDBRANCH   1  19
TORSDOF 3
ENDMDL
MODEL 6
REMARK VINA RESULT:      -8.0      2.025      2.974
REMARK  Name = 
REMARK  6 active torsions:
REMARK  status: ('A' for Active; 'I' for Inactive)
REMARK    1  A    between atoms: C_1  and  C_2
REMARK    2  A    between atoms: C_5  and  N_6
REMARK    3  A    between atoms: N_6  and  C_7
REMARK    4  A    between atoms: N_15  and  C_16
REMARK    5  A    between atoms: N_15  and  C_17
REMARK    6  A    between atoms: N_18  and  C_19
REMARK                            x       y       z     vdW  Elec       q    Type
REMARK                         _______ _______ _______ _____ _____    ______ ____
ROOT
ATOM      1  C   UNL     1       2.351   6.588  19.992  0.00  0.00    +0.000 A 
ATOM      2  C   UNL     1       1.331   6.686  20.945  0.00  0.00    +0.000 A 
ATOM      3  C   UNL     1       0.549   7.850  21.084  0.00  0.00    +0.000 A 
ATOM      4  C   UNL     1       0.835   8.927  20.229  0.00  0.00    +0.000 A 
ATOM      5  C   UNL     1       1.710   8.754  19.167  0.00  0.00    +0.000 A 
ATOM      6  C   UNL     1       2.484   7.606  19.048  0.00  0.00    +0.000 A 
ATOM      7  N   UNL     1       1.714   9.815  18.344  0.00  0.00    +0.000 NA
ATOM      8  C   UNL     1       1.181  10.788  19.045  0.00  0.00    +0.000 A 
ATOM      9  N   UNL     1       1.591  12.090  18.836  0.00  0.00    +0.000 N 
ATOM     10  C   UNL     1       2.633  12.150  17.767  0.00  0.00    +0.000 C 
ATOM     11  C   UNL     1       2.052  12.827  20.017  0.00  0.00    +0.000 C 
ATOM     12  N   UNL     1       0.416  10.259  20.113  0.00  0.00    +0.000 N 
ENDROOT
BRANCH  12  13
ATOM     13  C   UNL     1      -0.532  10.912  20.962  0.00  0.00    +0.000 A 
ATOM     14  C   UNL     1      -0.488  10.742  22.352  0.00  0.00    +0.000 A 
ATOM     15  C   UNL     1      -1.400  11.429  23.168  0.00  0.00    +0.000 A 
ATOM     16  C   UNL     1      -2.373  12.262  22.608  0.00  0.00    +0.000 A 
ATOM     17  C   UNL     1      -2.420  12.431  21.229  0.00  0.00    +0.000 A 
ATOM     18  C   UNL     1      -1.501  11.767  20.411  0.00  0.00    +0.000 A 
ENDBRANCH  12  13
BRANCH   1  19
ATOM     19  N   UNL     1       3.168   5.444  19.888  0.00  0.00    +0.000 N 
ATOM     20  H   UNL     1       3.840   5.347  20.638  0.00  0.00    +0.000 HD
BRANCH  19  25
ATOM     21  C   UNL     1       5.398   3.695  14.996  0.00  0.00    +0.000 C 
ATOM     22  C   UNL     1       4.895   4.225  16.305  0.00  0.00    +0.000 A 
ATOM     23  N   UNL     1       3.555   4.190  16.473  0.00  0.00    +0.000 NA
ATOM     24  N   UNL     1       3.003   4.602  17.652  0.00  0.00    +0.000 NA
ATOM     25  C   UNL     1       3.781   5.050  18.666  0.00  0.00    +0.000 A 
ATOM     26  C   UNL     1       5.176   5.130  18.525  0.00  0.00    +0.000 A 
ATOM     27  C   UNL     1       6.017   5.568  19.574  0.00  0.00    +0.000 A 
ATOM     28  C   UNL     1       7.405   5.593  19.428  0.00  0.00    +0.000 A 
ATOM     29  C   UNL     1       7.980   5.188  18.226  0.00  0.00    +0.000 A 
ATOM     30  C   UNL     1       7.165   4.749  17.187  0.00  0.00    +0.000 A 
ATOM     31  C   UNL     1       5.756   4.702  17.312  0.00  0.00    +0.000 A 
ENDBRANCH  19  25
ENDBRANCH   1  19
TORSDOF 3
ENDMDL
MODEL 7
REMARK VINA RESULT:      -8.0      2.357      9.291
REMARK  Name = 
REMARK  6 active torsions:
REMARK  status: ('A' for Active; 'I' for Inactive)
REMARK    1  A    between atoms: C_1  and  C_2
REMARK    2  A    between atoms: C_5  and  N_6
REMARK    3  A    between atoms: N_6  and  C_7
REMARK    4  A    between atoms: N_15  and  C_16
REMARK    5  A    between atoms: N_15  and  C_17
REMARK    6  A    between atoms: N_18  and  C_19
REMARK                            x       y       z     vdW  Elec       q    Type
REMARK                         _______ _______ _______ _____ _____    ______ ____
ROOT
ATOM      1  C   UNL     1       1.480   8.115  20.081  0.00  0.00    +0.000 A 
ATOM      2  C   UNL     1       2.195   8.550  18.959  0.00  0.00    +0.000 A 
ATOM      3  C   UNL     1       2.967   7.667  18.177  0.00  0.00    +0.000 A 
ATOM      4  C   UNL     1       3.002   6.320  18.570  0.00  0.00    +0.000 A 
ATOM      5  C   UNL     1       2.145   5.863  19.559  0.00  0.00    +0.000 A 
ATOM      6  C   UNL     1       1.398   6.745  20.331  0.00  0.00    +0.000 A 
ATOM      7  N   UNL     1       2.171   4.525  19.668  0.00  0.00    +0.000 NA
ATOM      8  C   UNL     1       3.280   4.160  19.068  0.00  0.00    +0.000 A 
ATOM      9  N   UNL     1       3.968   3.048  19.511  0.00  0.00    +0.000 N 
ATOM     10  C   UNL     1       3.264   2.420  20.670  0.00  0.00    +0.000 C 
ATOM     11  C   UNL     1       5.383   3.244  19.841  0.00  0.00    +0.000 C 
ATOM     12  N   UNL     1       3.712   5.176  18.181  0.00  0.00    +0.000 N 
ENDROOT
BRANCH  12  13
ATOM     13  C   UNL     1       4.700   5.120  17.147  0.00  0.00    +0.000 A 
ATOM     14  C   UNL     1       5.867   5.891  17.226  0.00  0.00    +0.000 A 
ATOM     15  C   UNL     1       6.843   5.785  16.223  0.00  0.00    +0.000 A 
ATOM     16  C   UNL     1       6.652   4.936  15.129  0.00  0.00    +0.000 A 
ATOM     17  C   UNL     1       5.495   4.170  15.047  0.00  0.00    +0.000 A 
ATOM     18  C   UNL     1       4.528   4.255  16.053  0.00  0.00    +0.000 A 
ENDBRANCH  12  13
BRANCH   1  19
ATOM     19  N   UNL     1       0.750   9.007  20.893  0.00  0.00    +0.000 N 
ATOM     20  H   UNL     1      -0.160   8.662  21.170  0.00  0.00    +0.000 HD
BRANCH  19  25
ATOM     21  C   UNL     1       0.411  14.581  20.016  0.00  0.00    +0.000 C 
ATOM     22  C   UNL     1       0.470  13.089  20.143  0.00  0.00    +0.000 A 
ATOM     23  N   UNL     1       1.317  12.616  21.083  0.00  0.00    +0.000 NA
ATOM     24  N   UNL     1       1.404  11.273  21.311  0.00  0.00    +0.000 NA
ATOM     25  C   UNL     1       0.650  10.396  20.606  0.00  0.00    +0.000 A 
ATOM     26  C   UNL     1      -0.223  10.841  19.600  0.00  0.00    +0.000 A 
ATOM     27  C   UNL     1      -1.042   9.954  18.864  0.00  0.00    +0.000 A 
ATOM     28  C   UNL     1      -1.939  10.425  17.902  0.00  0.00    +0.000 A 
ATOM     29  C   UNL     1      -2.027  11.791  17.650  0.00  0.00    +0.000 A 
ATOM     30  C   UNL     1      -1.231  12.676  18.371  0.00  0.00    +0.000 A 
ATOM     31  C   UNL     1      -0.322  12.229  19.360  0.00  0.00    +0.000 A 
ENDBRANCH  19  25
ENDBRANCH   1  19
TORSDOF 3
ENDMDL
MODEL 8
REMARK VINA RESULT:      -8.0      2.088      8.732
REMARK  Name = 
REMARK  6 active torsions:
REMARK  status: ('A' for Active; 'I' for Inactive)
REMARK    1  A    between atoms: C_1  and  C_2
REMARK    2  A    between atoms: C_5  and  N_6
REMARK    3  A    between atoms: N_6  and  C_7
REMARK    4  A    between atoms: N_15  and  C_16
REMARK    5  A    between atoms: N_15  and  C_17
REMARK    6  A    between atoms: N_18  and  C_19
REMARK                            x       y       z     vdW  Elec       q    Type
REMARK                         _______ _______ _______ _____ _____    ______ ____
ROOT
ATOM      1  C   UNL     1       1.946   9.299  18.325  0.00  0.00    +0.000 A 
ATOM      2  C   UNL     1       1.400   8.703  19.468  0.00  0.00    +0.000 A 
ATOM      3  C   UNL     1       1.741   7.393  19.862  0.00  0.00    +0.000 A 
ATOM      4  C   UNL     1       2.652   6.693  19.056  0.00  0.00    +0.000 A 
ATOM      5  C   UNL     1       3.330   7.352  18.043  0.00  0.00    +0.000 A 
ATOM      6  C   UNL     1       2.977   8.639  17.656  0.00  0.00    +0.000 A 
ATOM      7  N   UNL     1       4.298   6.590  17.508  0.00  0.00    +0.000 NA
ATOM      8  C   UNL     1       4.001   5.364  17.871  0.00  0.00    +0.000 A 
ATOM      9  N   UNL     1       4.316   4.306  17.042  0.00  0.00    +0.000 N 
ATOM     10  C   UNL     1       4.993   4.792  15.802  0.00  0.00    +0.000 C 
ATOM     11  C   UNL     1       3.215   3.407  16.684  0.00  0.00    +0.000 C 
ATOM     12  N   UNL     1       3.148   5.383  19.001  0.00  0.00    +0.000 N 
ENDROOT
BRANCH  12  13
ATOM     13  C   UNL     1       2.782   4.316  19.882  0.00  0.00    +0.000 A 
ATOM     14  C   UNL     1       3.728   3.369  20.294  0.00  0.00    +0.000 A 
ATOM     15  C   UNL     1       3.358   2.358  21.195  0.00  0.00    +0.000 A 
ATOM     16  C   UNL     1       2.045   2.268  21.665  0.00  0.00    +0.000 A 
ATOM     17  C   UNL     1       1.103   3.206  21.257  0.00  0.00    +0.000 A 
ATOM     18  C   UNL     1       1.470   4.228  20.377  0.00  0.00    +0.000 A 
ENDBRANCH  12  13
BRANCH   1  19
ATOM     19  N   UNL     1       1.566  10.589  17.901  0.00  0.00    +0.000 N 
ATOM     20  H   UNL     1       2.275  11.072  17.365  0.00  0.00    +0.000 HD
BRANCH  19  25
ATOM     21  C   UNL     1      -0.770  14.259  21.511  0.00  0.00    +0.000 C 
ATOM     22  C   UNL     1      -0.240  13.297  20.490  0.00  0.00    +0.000 A 
ATOM     23  N   UNL     1       1.105  13.195  20.427  0.00  0.00    +0.000 NA
ATOM     24  N   UNL     1       1.683  12.307  19.566  0.00  0.00    +0.000 NA
ATOM     25  C   UNL     1       0.926  11.520  18.765  0.00  0.00    +0.000 A 
ATOM     26  C   UNL     1      -0.476  11.613  18.777  0.00  0.00    +0.000 A 
ATOM     27  C   UNL     1      -1.294  10.787  17.973  0.00  0.00    +0.000 A 
ATOM     28  C   UNL     1      -2.687  10.864  18.038  0.00  0.00    +0.000 A 
ATOM     29  C   UNL     1      -3.289  11.774  18.903  0.00  0.00    +0.000 A 
ATOM     30  C   UNL     1      -2.496  12.589  19.704  0.00  0.00    +0.000 A 
ATOM     31  C   UNL     1      -1.082  12.524  19.668  0.00  0.00    +0.000 A 
ENDBRANCH  19  25
ENDBRANCH   1  19
TORSDOF 3
ENDMDL
MODEL 9
REMARK VINA RESULT:      -8.0      2.241      8.660
REMARK  Name = 
REMARK  6 active torsions:
REMARK  status: ('A' for Active; 'I' for Inactive)
REMARK    1  A    between atoms: C_1  and  C_2
REMARK    2  A    between atoms: C_5  and  N_6
REMARK    3  A    between atoms: N_6  and  C_7
REMARK    4  A    between atoms: N_15  and  C_16
REMARK    5  A    between atoms: N_15  and  C_17
REMARK    6  A    between atoms: N_18  and  C_19
REMARK                            x       y       z     vdW  Elec       q    Type
REMARK                         _______ _______ _______ _____ _____    ______ ____
ROOT
ATOM      1  C   UNL     1       1.458   9.332  18.570  0.00  0.00    +0.000 A 
ATOM      2  C   UNL     1       1.103   8.629  19.726  0.00  0.00    +0.000 A 
ATOM      3  C   UNL     1       1.679   7.383  20.049  0.00  0.00    +0.000 A 
ATOM      4  C   UNL     1       2.628   6.860  19.156  0.00  0.00    +0.000 A 
ATOM      5  C   UNL     1       3.112   7.645  18.121  0.00  0.00    +0.000 A 
ATOM      6  C   UNL     1       2.528   8.865  17.806  0.00  0.00    +0.000 A 
ATOM      7  N   UNL     1       4.147   7.064  17.493  0.00  0.00    +0.000 NA
ATOM      8  C   UNL     1       4.079   5.797  17.833  0.00  0.00    +0.000 A 
ATOM      9  N   UNL     1       4.498   4.824  16.947  0.00  0.00    +0.000 N 
ATOM     10  C   UNL     1       4.991   5.443  15.680  0.00  0.00    +0.000 C 
ATOM     11  C   UNL     1       3.532   3.766  16.636  0.00  0.00    +0.000 C 
ATOM     12  N   UNL     1       3.322   5.650  19.021  0.00  0.00    +0.000 N 
ENDROOT
BRANCH  12  13
ATOM     13  C   UNL     1       3.201   4.518  19.887  0.00  0.00    +0.000 A 
ATOM     14  C   UNL     1       2.081   4.361  20.713  0.00  0.00    +0.000 A 
ATOM     15  C   UNL     1       1.962   3.220  21.520  0.00  0.00    +0.000 A 
ATOM     16  C   UNL     1       2.965   2.246  21.530  0.00  0.00    +0.000 A 
ATOM     17  C   UNL     1       4.079   2.398  20.713  0.00  0.00    +0.000 A 
ATOM     18  C   UNL     1       4.193   3.523  19.890  0.00  0.00    +0.000 A 
ENDBRANCH  12  13
BRANCH   1  19
ATOM     19  N   UNL     1       0.844  10.552  18.220  0.00  0.00    +0.000 N 
ATOM     20  H   UNL     1       1.276  11.366  18.638  0.00  0.00    +0.000 HD
BRANCH  19  25
ATOM     21  C   UNL     1      -4.766  11.197  17.953  0.00  0.00    +0.000 C 
ATOM     22  C   UNL     1      -3.285  11.052  18.131  0.00  0.00    +0.000 A 
ATOM     23  N   UNL     1      -2.673  10.207  17.273  0.00  0.00    +0.000 NA
ATOM     24  N   UNL     1      -1.318  10.048  17.321  0.00  0.00    +0.000 NA
ATOM     25  C   UNL     1      -0.568  10.726  18.221  0.00  0.00    +0.000 A 
ATOM     26  C   UNL     1      -1.164  11.593  19.151  0.00  0.00    +0.000 A 
ATOM     27  C   UNL     1      -0.407  12.335  20.086  0.00  0.00    +0.000 A 
ATOM     28  C   UNL     1      -1.018  13.229  20.968  0.00  0.00    +0.000 A 
ATOM     29  C   UNL     1      -2.401  13.391  20.939  0.00  0.00    +0.000 A 
ATOM     30  C   UNL     1      -3.158  12.671  20.020  0.00  0.00    +0.000 A 
ATOM     31  C   UNL     1      -2.564  11.768  19.106  0.00  0.00    +0.000 A 
ENDBRANCH  19  25
ENDBRANCH   1  19
TORSDOF 3
ENDMDL
