MODEL 1
REMARK VINA RESULT:      -7.4      0.000      0.000
REMARK  Name = 
REMARK  5 active torsions:
REMARK  status: ('A' for Active; 'I' for Inactive)
REMARK    1  A    between atoms: C_1  and  N_2
REMARK    2  A    between atoms: C_4  and  C_5
REMARK    3  A    between atoms: N_7  and  C_8
REMARK    4  A    between atoms: C_19  and  C_20
REMARK    5  A    between atoms: C_20  and  O_22
REMARK                            x       y       z     vdW  Elec       q    Type
REMARK                         _______ _______ _______ _____ _____    ______ ____
ROOT
ATOM      1  C   UNL     1       1.842   8.665  18.589  0.00  0.00    +0.000 C 
ATOM      2  O   UNL     1       1.847   9.054  17.425  0.00  0.00    +0.000 OA
ATOM      3  N   UNL     1       2.341   7.461  19.054  0.00  0.00    +0.000 N 
ATOM      4  H   UNL     1       2.126   7.256  20.026  0.00  0.00    +0.000 HD
ENDROOT
BRANCH   3   5
ATOM      5  C   UNL     1       3.020   6.498  18.280  0.00  0.00    +0.000 A 
ATOM      6  C   UNL     1       2.613   5.159  18.234  0.00  0.00    +0.000 A 
ATOM      7  C   UNL     1       3.312   4.222  17.477  0.00  0.00    +0.000 A 
ATOM      8  C   UNL     1       4.433   4.612  16.760  0.00  0.00    +0.000 A 
ATOM      9  C   UNL     1       4.837   5.950  16.770  0.00  0.00    +0.000 A 
ATOM     10  C   UNL     1       4.130   6.895  17.525  0.00  0.00    +0.000 A 
ATOM     11  O   UNL     1       5.933   6.398  16.077  0.00  0.00    +0.000 OA
ATOM     12  C   UNL     1       6.363   5.444  15.096  0.00  0.00    +0.000 C 
ATOM     13  C   UNL     1       6.386   4.035  15.666  0.00  0.00    +0.000 C 
ATOM     14  O   UNL     1       5.076   3.625  16.061  0.00  0.00    +0.000 OA
ENDBRANCH   3   5
BRANCH   1  18
ATOM     15  C   UNL     1       0.020  12.549  20.857  0.00  0.00    +0.000 C 
ATOM     16  N   UNL     1       0.421  11.171  20.668  0.00  0.00    +0.000 N 
ATOM     17  N   UNL     1       1.038  10.826  19.511  0.00  0.00    +0.000 NA
ATOM     18  C   UNL     1       1.227   9.501  19.626  0.00  0.00    +0.000 A 
ATOM     19  C   UNL     1       0.754   9.027  20.874  0.00  0.00    +0.000 A 
ATOM     20  C   UNL     1       0.244  10.122  21.545  0.00  0.00    +0.000 A 
BRANCH  20  21
ATOM     21  C   UNL     1      -0.354  10.245  22.852  0.00  0.00    +0.000 C 
ATOM     22  O   UNL     1      -1.433  10.766  23.088  0.00  0.00    +0.000 OA
BRANCH  21  23
ATOM     23  O   UNL     1       0.409   9.716  23.840  0.00  0.00    +0.000 OA
ATOM     24  H   UNL     1       1.245  10.180  24.014  0.00  0.00    +0.000 HD
ENDBRANCH  21  23
ENDBRANCH  20  21
ENDBRANCH   1  18
TORSDOF 4
ENDMDL
MODEL 2
REMARK VINA RESULT:      -7.4      2.164      8.456
REMARK  Name = 
REMARK  5 active torsions:
REMARK  status: ('A' for Active; 'I' for Inactive)
REMARK    1  A    between atoms: C_1  and  N_2
REMARK    2  A    between atoms: C_4  and  C_5
REMARK    3  A    between atoms: N_7  and  C_8
REMARK    4  A    between atoms: C_19  and  C_20
REMARK    5  A    between atoms: C_20  and  O_22
REMARK                            x       y       z     vdW  Elec       q    Type
REMARK                         _______ _______ _______ _____ _____    ______ ____
ROOT
ATOM      1  C   UNL     1       3.294   6.278  18.096  0.00  0.00    +0.000 C 
ATOM      2  O   UNL     1       2.437   5.486  18.475  0.00  0.00    +0.000 OA
ATOM      3  N   UNL     1       3.214   7.658  18.145  0.00  0.00    +0.000 N 
ATOM      4  H   UNL     1       3.963   8.147  17.662  0.00  0.00    +0.000 HD
ENDROOT
BRANCH   3   5
ATOM      5  C   UNL     1       2.162   8.402  18.717  0.00  0.00    +0.000 A 
ATOM      6  C   UNL     1       1.355   9.256  17.954  0.00  0.00    +0.000 A 
ATOM      7  C   UNL     1       0.332   9.995  18.546  0.00  0.00    +0.000 A 
ATOM      8  C   UNL     1       0.109   9.894  19.911  0.00  0.00    +0.000 A 
ATOM      9  C   UNL     1       0.886   9.025  20.682  0.00  0.00    +0.000 A 
ATOM     10  C   UNL     1       1.908   8.275  20.088  0.00  0.00    +0.000 A 
ATOM     11  O   UNL     1       0.708   8.877  22.036  0.00  0.00    +0.000 OA
ATOM     12  C   UNL     1      -0.550   9.415  22.465  0.00  0.00    +0.000 C 
ATOM     13  C   UNL     1      -0.814  10.775  21.838  0.00  0.00    +0.000 C 
ATOM     14  O   UNL     1      -0.899  10.672  20.416  0.00  0.00    +0.000 OA
ENDBRANCH   3   5
BRANCH   1  18
ATOM     15  C   UNL     1       7.775   4.466  17.662  0.00  0.00    +0.000 C 
ATOM     16  N   UNL     1       6.488   4.980  17.241  0.00  0.00    +0.000 N 
ATOM     17  N   UNL     1       5.621   5.414  18.188  0.00  0.00    +0.000 NA
ATOM     18  C   UNL     1       4.528   5.769  17.490  0.00  0.00    +0.000 A 
ATOM     19  C   UNL     1       4.732   5.584  16.101  0.00  0.00    +0.000 A 
ATOM     20  C   UNL     1       6.012   5.083  15.951  0.00  0.00    +0.000 A 
BRANCH  20  21
ATOM     21  C   UNL     1       6.762   4.719  14.775  0.00  0.00    +0.000 C 
ATOM     22  O   UNL     1       7.654   5.384  14.272  0.00  0.00    +0.000 OA
BRANCH  21  23
ATOM     23  O   UNL     1       6.380   3.530  14.246  0.00  0.00    +0.000 OA
ATOM     24  H   UNL     1       7.058   3.068  13.725  0.00  0.00    +0.000 HD
ENDBRANCH  21  23
ENDBRANCH  20  21
ENDBRANCH   1  18
TORSDOF 4
ENDMDL
MODEL 3
REMARK VINA RESULT:      -7.2      2.690      8.373
REMARK  Name = 
REMARK  5 active torsions:
REMARK  status: ('A' for Active; 'I' for Inactive)
REMARK    1  A    between atoms: C_1  and  N_2
REMARK    2  A    between atoms: C_4  and  C_5
REMARK    3  A    between atoms: N_7  and  C_8
REMARK    4  A    between atoms: C_19  and  C_20
REMARK    5  A    between atoms: C_20  and  O_22
REMARK                            x       y       z     vdW  Elec       q    Type
REMARK                         _______ _______ _______ _____ _____    ______ ____
ROOT
ATOM      1  C   UNL     1       2.186   6.920  19.767  0.00  0.00    +0.000 C 
ATOM      2  O   UNL     1       2.602   7.470  18.753  0.00  0.00    +0.000 OA
ATOM      3  N   UNL     1       1.467   7.517  20.788  0.00  0.00    +0.000 N 
ATOM      4  H   UNL     1       1.326   6.934  21.609  0.00  0.00    +0.000 HD
ENDROOT
BRANCH   3   5
ATOM      5  C   UNL     1       1.015   8.852  20.804  0.00  0.00    +0.000 A 
ATOM      6  C   UNL     1       1.134   9.691  19.689  0.00  0.00    +0.000 A 
ATOM      7  C   UNL     1       0.698  11.013  19.736  0.00  0.00    +0.000 A 
ATOM      8  C   UNL     1       0.142  11.515  20.902  0.00  0.00    +0.000 A 
ATOM      9  C   UNL     1      -0.012  10.685  22.016  0.00  0.00    +0.000 A 
ATOM     10  C   UNL     1       0.419   9.353  21.967  0.00  0.00    +0.000 A 
ATOM     11  O   UNL     1      -0.560  11.121  23.196  0.00  0.00    +0.000 OA
ATOM     12  C   UNL     1      -1.259  12.362  23.025  0.00  0.00    +0.000 C 
ATOM     13  C   UNL     1      -0.453  13.342  22.188  0.00  0.00    +0.000 C 
ATOM     14  O   UNL     1      -0.239  12.831  20.872  0.00  0.00    +0.000 OA
ENDBRANCH   3   5
BRANCH   1  18
ATOM     15  C   UNL     1       2.091   2.472  21.706  0.00  0.00    +0.000 C 
ATOM     16  N   UNL     1       2.481   3.535  20.803  0.00  0.00    +0.000 N 
ATOM     17  N   UNL     1       1.977   4.777  21.005  0.00  0.00    +0.000 NA
ATOM     18  C   UNL     1       2.480   5.501  19.990  0.00  0.00    +0.000 A 
ATOM     19  C   UNL     1       3.326   4.710  19.174  0.00  0.00    +0.000 A 
ATOM     20  C   UNL     1       3.327   3.440  19.718  0.00  0.00    +0.000 A 
BRANCH  20  21
ATOM     21  C   UNL     1       4.012   2.234  19.322  0.00  0.00    +0.000 C 
ATOM     22  O   UNL     1       3.601   1.426  18.504  0.00  0.00    +0.000 OA
BRANCH  21  23
ATOM     23  O   UNL     1       5.195   2.059  19.959  0.00  0.00    +0.000 OA
ATOM     24  H   UNL     1       5.510   2.824  20.471  0.00  0.00    +0.000 HD
ENDBRANCH  21  23
ENDBRANCH  20  21
ENDBRANCH   1  18
TORSDOF 4
ENDMDL
MODEL 4
REMARK VINA RESULT:      -7.1      2.807      8.342
REMARK  Name = 
REMARK  5 active torsions:
REMARK  status: ('A' for Active; 'I' for Inactive)
REMARK    1  A    between atoms: C_1  and  N_2
REMARK    2  A    between atoms: C_4  and  C_5
REMARK    3  A    between atoms: N_7  and  C_8
REMARK    4  A    between atoms: C_19  and  C_20
REMARK    5  A    between atoms: C_20  and  O_22
REMARK                            x       y       z     vdW  Elec       q    Type
REMARK                         _______ _______ _______ _____ _____    ______ ____
ROOT
ATOM      1  C   UNL     1       1.858   6.217  20.258  0.00  0.00    +0.000 C 
ATOM      2  O   UNL     1       0.791   5.808  20.703  0.00  0.00    +0.000 OA
ATOM      3  N   UNL     1       2.181   7.534  19.982  0.00  0.00    +0.000 N 
ATOM      4  H   UNL     1       3.062   7.665  19.491  0.00  0.00    +0.000 HD
ENDROOT
BRANCH   3   5
ATOM      5  C   UNL     1       1.363   8.653  20.241  0.00  0.00    +0.000 A 
ATOM      6  C   UNL     1       0.915   9.499  19.219  0.00  0.00    +0.000 A 
ATOM      7  C   UNL     1       0.124  10.610  19.503  0.00  0.00    +0.000 A 
ATOM      8  C   UNL     1      -0.224  10.893  20.815  0.00  0.00    +0.000 A 
ATOM      9  C   UNL     1       0.190  10.043  21.844  0.00  0.00    +0.000 A 
ATOM     10  C   UNL     1       0.979   8.921  21.560  0.00  0.00    +0.000 A 
ATOM     11  O   UNL     1      -0.127  10.265  23.161  0.00  0.00    +0.000 OA
ATOM     12  C   UNL     1      -1.191  11.218  23.294  0.00  0.00    +0.000 C 
ATOM     13  C   UNL     1      -0.980  12.415  22.381  0.00  0.00    +0.000 C 
ATOM     14  O   UNL     1      -0.983  12.016  21.010  0.00  0.00    +0.000 OA
ENDBRANCH   3   5
BRANCH   1  18
ATOM     15  C   UNL     1       6.067   4.413  18.651  0.00  0.00    +0.000 C 
ATOM     16  N   UNL     1       4.744   4.413  19.241  0.00  0.00    +0.000 N 
ATOM     17  N   UNL     1       4.058   5.580  19.297  0.00  0.00    +0.000 NA
ATOM     18  C   UNL     1       2.919   5.258  19.933  0.00  0.00    +0.000 A 
ATOM     19  C   UNL     1       2.886   3.876  20.243  0.00  0.00    +0.000 A 
ATOM     20  C   UNL     1       4.070   3.337  19.778  0.00  0.00    +0.000 A 
BRANCH  20  21
ATOM     21  C   UNL     1       4.578   1.987  19.803  0.00  0.00    +0.000 C 
ATOM     22  O   UNL     1       5.298   1.520  20.671  0.00  0.00    +0.000 OA
BRANCH  21  23
ATOM     23  O   UNL     1       4.177   1.248  18.739  0.00  0.00    +0.000 OA
ATOM     24  H   UNL     1       4.505   1.549  17.875  0.00  0.00    +0.000 HD
ENDBRANCH  21  23
ENDBRANCH  20  21
ENDBRANCH   1  18
TORSDOF 4
ENDMDL
MODEL 5
REMARK VINA RESULT:      -7.0      1.895      2.423
REMARK  Name = 
REMARK  5 active torsions:
REMARK  status: ('A' for Active; 'I' for Inactive)
REMARK    1  A    between atoms: C_1  and  N_2
REMARK    2  A    between atoms: C_4  and  C_5
REMARK    3  A    between atoms: N_7  and  C_8
REMARK    4  A    between atoms: C_19  and  C_20
REMARK    5  A    between atoms: C_20  and  O_22
REMARK                            x       y       z     vdW  Elec       q    Type
REMARK                         _______ _______ _______ _____ _____    ______ ____
ROOT
ATOM      1  C   UNL     1       1.619   8.399  19.541  0.00  0.00    +0.000 C 
ATOM      2  O   UNL     1       1.792   7.689  20.526  0.00  0.00    +0.000 OA
ATOM      3  N   UNL     1       2.156   8.201  18.281  0.00  0.00    +0.000 N 
ATOM      4  H   UNL     1       2.011   8.967  17.629  0.00  0.00    +0.000 HD
ENDROOT
BRANCH   3   5
ATOM      5  C   UNL     1       2.938   7.097  17.886  0.00  0.00    +0.000 A 
ATOM      6  C   UNL     1       2.517   5.776  18.089  0.00  0.00    +0.000 A 
ATOM      7  C   UNL     1       3.317   4.701  17.707  0.00  0.00    +0.000 A 
ATOM      8  C   UNL     1       4.552   4.934  17.122  0.00  0.00    +0.000 A 
ATOM      9  C   UNL     1       4.976   6.245  16.885  0.00  0.00    +0.000 A 
ATOM     10  C   UNL     1       4.169   7.326  17.261  0.00  0.00    +0.000 A 
ATOM     11  O   UNL     1       6.185   6.539  16.305  0.00  0.00    +0.000 OA
ATOM     12  C   UNL     1       6.757   5.389  15.667  0.00  0.00    +0.000 C 
ATOM     13  C   UNL     1       6.652   4.156  16.550  0.00  0.00    +0.000 C 
ATOM     14  O   UNL     1       5.286   3.823  16.799  0.00  0.00    +0.000 OA
ENDBRANCH   3   5
BRANCH   1  18
ATOM     15  C   UNL     1      -0.199  12.545  21.292  0.00  0.00    +0.000 C 
ATOM     16  N   UNL     1      -0.035  11.428  20.384  0.00  0.00    +0.000 N 
ATOM     17  N   UNL     1       0.846  10.451  20.709  0.00  0.00    +0.000 NA
ATOM     18  C   UNL     1       0.801   9.611  19.661  0.00  0.00    +0.000 A 
ATOM     19  C   UNL     1      -0.138  10.054  18.697  0.00  0.00    +0.000 A 
ATOM     20  C   UNL     1      -0.681  11.227  19.183  0.00  0.00    +0.000 A 
BRANCH  20  21
ATOM     21  C   UNL     1      -1.686  12.109  18.642  0.00  0.00    +0.000 C 
ATOM     22  O   UNL     1      -2.814  12.253  19.088  0.00  0.00    +0.000 OA
BRANCH  21  23
ATOM     23  O   UNL     1      -1.262  12.793  17.550  0.00  0.00    +0.000 OA
ATOM     24  H   UNL     1      -1.953  13.013  16.902  0.00  0.00    +0.000 HD
ENDBRANCH  21  23
ENDBRANCH  20  21
ENDBRANCH   1  18
TORSDOF 4
ENDMDL
MODEL 6
REMARK VINA RESULT:      -6.9      1.838      8.164
REMARK  Name = 
REMARK  5 active torsions:
REMARK  status: ('A' for Active; 'I' for Inactive)
REMARK    1  A    between atoms: C_1  and  N_2
REMARK    2  A    between atoms: C_4  and  C_5
REMARK    3  A    between atoms: N_7  and  C_8
REMARK    4  A    between atoms: C_19  and  C_20
REMARK    5  A    between atoms: C_20  and  O_22
REMARK                            x       y       z     vdW  Elec       q    Type
REMARK                         _______ _______ _______ _____ _____    ______ ____
ROOT
ATOM      1  C   UNL     1       2.539   8.087  18.131  0.00  0.00    +0.000 C 
ATOM      2  O   UNL     1       2.534   8.938  17.248  0.00  0.00    +0.000 OA
ATOM      3  N   UNL     1       1.870   8.154  19.340  0.00  0.00    +0.000 N 
ATOM      4  H   UNL     1       2.102   7.416  19.999  0.00  0.00    +0.000 HD
ENDROOT
BRANCH   3   5
ATOM      5  C   UNL     1       0.994   9.185  19.739  0.00  0.00    +0.000 A 
ATOM      6  C   UNL     1       0.287   9.960  18.811  0.00  0.00    +0.000 A 
ATOM      7  C   UNL     1      -0.557  10.987  19.230  0.00  0.00    +0.000 A 
ATOM      8  C   UNL     1      -0.699  11.255  20.583  0.00  0.00    +0.000 A 
ATOM      9  C   UNL     1      -0.023  10.473  21.523  0.00  0.00    +0.000 A 
ATOM     10  C   UNL     1       0.819   9.435  21.104  0.00  0.00    +0.000 A 
ATOM     11  O   UNL     1      -0.128  10.685  22.876  0.00  0.00    +0.000 OA
ATOM     12  C   UNL     1      -1.249  11.522  23.192  0.00  0.00    +0.000 C 
ATOM     13  C   UNL     1      -1.330  12.718  22.257  0.00  0.00    +0.000 C 
ATOM     14  O   UNL     1      -1.529  12.295  20.908  0.00  0.00    +0.000 OA
ENDBRANCH   3   5
BRANCH   1  18
ATOM     15  C   UNL     1       6.093   5.117  16.681  0.00  0.00    +0.000 C 
ATOM     16  N   UNL     1       4.875   5.527  17.348  0.00  0.00    +0.000 N 
ATOM     17  N   UNL     1       4.443   6.801  17.186  0.00  0.00    +0.000 NA
ATOM     18  C   UNL     1       3.345   6.873  17.958  0.00  0.00    +0.000 A 
ATOM     19  C   UNL     1       3.077   5.627  18.575  0.00  0.00    +0.000 A 
ATOM     20  C   UNL     1       4.070   4.759  18.162  0.00  0.00    +0.000 A 
BRANCH  20  21
ATOM     21  C   UNL     1       4.302   3.366  18.457  0.00  0.00    +0.000 C 
ATOM     22  O   UNL     1       3.727   2.428  17.928  0.00  0.00    +0.000 OA
BRANCH  21  23
ATOM     23  O   UNL     1       5.247   3.174  19.410  0.00  0.00    +0.000 OA
ATOM     24  H   UNL     1       5.810   3.943  19.600  0.00  0.00    +0.000 HD
ENDBRANCH  21  23
ENDBRANCH  20  21
ENDBRANCH   1  18
TORSDOF 4
ENDMDL
MODEL 7
REMARK VINA RESULT:      -6.9      1.272      1.714
REMARK  Name = 
REMARK  5 active torsions:
REMARK  status: ('A' for Active; 'I' for Inactive)
REMARK    1  A    between atoms: C_1  and  N_2
REMARK    2  A    between atoms: C_4  and  C_5
REMARK    3  A    between atoms: N_7  and  C_8
REMARK    4  A    between atoms: C_19  and  C_20
REMARK    5  A    between atoms: C_20  and  O_22
REMARK                            x       y       z     vdW  Elec       q    Type
REMARK                         _______ _______ _______ _____ _____    ______ ____
ROOT
ATOM      1  C   UNL     1       1.899   8.522  18.587  0.00  0.00    +0.000 C 
ATOM      2  O   UNL     1       1.911   8.947  17.436  0.00  0.00    +0.000 OA
ATOM      3  N   UNL     1       2.408   7.311  19.021  0.00  0.00    +0.000 N 
ATOM      4  H   UNL     1       2.185   7.074  19.984  0.00  0.00    +0.000 HD
ENDROOT
BRANCH   3   5
ATOM      5  C   UNL     1       3.108   6.381  18.226  0.00  0.00    +0.000 A 
ATOM      6  C   UNL     1       2.690   5.050  18.097  0.00  0.00    +0.000 A 
ATOM      7  C   UNL     1       3.410   4.145  17.320  0.00  0.00    +0.000 A 
ATOM      8  C   UNL     1       4.562   4.558  16.667  0.00  0.00    +0.000 A 
ATOM      9  C   UNL     1       4.977   5.889  16.761  0.00  0.00    +0.000 A 
ATOM     10  C   UNL     1       4.250   6.803  17.535  0.00  0.00    +0.000 A 
ATOM     11  O   UNL     1       6.103   6.360  16.133  0.00  0.00    +0.000 OA
ATOM     12  C   UNL     1       6.562   5.452  15.123  0.00  0.00    +0.000 C 
ATOM     13  C   UNL     1       6.550   4.016  15.622  0.00  0.00    +0.000 C 
ATOM     14  O   UNL     1       5.223   3.601  15.945  0.00  0.00    +0.000 OA
ENDBRANCH   3   5
BRANCH   1  18
ATOM     15  C   UNL     1      -0.094   9.726  22.845  0.00  0.00    +0.000 C 
ATOM     16  N   UNL     1       0.376   9.899  21.486  0.00  0.00    +0.000 N 
ATOM     17  N   UNL     1       0.874   8.823  20.830  0.00  0.00    +0.000 NA
ATOM     18  C   UNL     1       1.261   9.318  19.642  0.00  0.00    +0.000 A 
ATOM     19  C   UNL     1       0.972  10.701  19.550  0.00  0.00    +0.000 A 
ATOM     20  C   UNL     1       0.387  11.064  20.749  0.00  0.00    +0.000 A 
BRANCH  20  21
ATOM     21  C   UNL     1      -0.122  12.330  21.218  0.00  0.00    +0.000 C 
ATOM     22  O   UNL     1       0.523  13.166  21.831  0.00  0.00    +0.000 OA
BRANCH  21  23
ATOM     23  O   UNL     1      -1.428  12.525  20.912  0.00  0.00    +0.000 OA
ATOM     24  H   UNL     1      -1.634  13.372  20.483  0.00  0.00    +0.000 HD
ENDBRANCH  21  23
ENDBRANCH  20  21
ENDBRANCH   1  18
TORSDOF 4
ENDMDL
MODEL 8
REMARK VINA RESULT:      -6.9      2.078      8.329
REMARK  Name = 
REMARK  5 active torsions:
REMARK  status: ('A' for Active; 'I' for Inactive)
REMARK    1  A    between atoms: C_1  and  N_2
REMARK    2  A    between atoms: C_4  and  C_5
REMARK    3  A    between atoms: N_7  and  C_8
REMARK    4  A    between atoms: C_19  and  C_20
REMARK    5  A    between atoms: C_20  and  O_22
REMARK                            x       y       z     vdW  Elec       q    Type
REMARK                         _______ _______ _______ _____ _____    ______ ____
ROOT
ATOM      1  C   UNL     1       2.698   6.405  18.873  0.00  0.00    +0.000 C 
ATOM      2  O   UNL     1       1.989   5.719  19.602  0.00  0.00    +0.000 OA
ATOM      3  N   UNL     1       2.566   7.762  18.638  0.00  0.00    +0.000 N 
ATOM      4  H   UNL     1       3.161   8.129  17.900  0.00  0.00    +0.000 HD
ENDROOT
BRANCH   3   5
ATOM      5  C   UNL     1       1.636   8.617  19.264  0.00  0.00    +0.000 A 
ATOM      6  C   UNL     1       0.847   9.517  18.536  0.00  0.00    +0.000 A 
ATOM      7  C   UNL     1      -0.052  10.366  19.179  0.00  0.00    +0.000 A 
ATOM      8  C   UNL     1      -0.167  10.330  20.560  0.00  0.00    +0.000 A 
ATOM      9  C   UNL     1       0.591   9.419  21.300  0.00  0.00    +0.000 A 
ATOM     10  C   UNL     1       1.489   8.559  20.654  0.00  0.00    +0.000 A 
ATOM     11  O   UNL     1       0.517   9.331  22.668  0.00  0.00    +0.000 OA
ATOM     12  C   UNL     1      -0.648   9.996  23.176  0.00  0.00    +0.000 C 
ATOM     13  C   UNL     1      -0.841  11.354  22.520  0.00  0.00    +0.000 C 
ATOM     14  O   UNL     1      -1.055  11.213  21.115  0.00  0.00    +0.000 OA
ENDBRANCH   3   5
BRANCH   1  18
ATOM     15  C   UNL     1       5.031   3.475  15.786  0.00  0.00    +0.000 C 
ATOM     16  N   UNL     1       4.859   4.507  16.788  0.00  0.00    +0.000 N 
ATOM     17  N   UNL     1       3.615   4.744  17.270  0.00  0.00    +0.000 NA
ATOM     18  C   UNL     1       3.786   5.769  18.121  0.00  0.00    +0.000 A 
ATOM     19  C   UNL     1       5.149   6.148  18.191  0.00  0.00    +0.000 A 
ATOM     20  C   UNL     1       5.837   5.314  17.331  0.00  0.00    +0.000 A 
BRANCH  20  21
ATOM     21  C   UNL     1       7.239   5.228  17.003  0.00  0.00    +0.000 C 
ATOM     22  O   UNL     1       8.037   4.458  17.515  0.00  0.00    +0.000 OA
BRANCH  21  23
ATOM     23  O   UNL     1       7.617   6.108  16.044  0.00  0.00    +0.000 OA
ATOM     24  H   UNL     1       8.009   5.713  15.247  0.00  0.00    +0.000 HD
ENDBRANCH  21  23
ENDBRANCH  20  21
ENDBRANCH   1  18
TORSDOF 4
ENDMDL
MODEL 9
REMARK VINA RESULT:      -6.9      2.433      8.269
REMARK  Name = 
REMARK  5 active torsions:
REMARK  status: ('A' for Active; 'I' for Inactive)
REMARK    1  A    between atoms: C_1  and  N_2
REMARK    2  A    between atoms: C_4  and  C_5
REMARK    3  A    between atoms: N_7  and  C_8
REMARK    4  A    between atoms: C_19  and  C_20
REMARK    5  A    between atoms: C_20  and  O_22
REMARK                            x       y       z     vdW  Elec       q    Type
REMARK                         _______ _______ _______ _____ _____    ______ ____
ROOT
ATOM      1  C   UNL     1       1.899   6.126  20.365  0.00  0.00    +0.000 C 
ATOM      2  O   UNL     1       0.840   5.650  20.761  0.00  0.00    +0.000 OA
ATOM      3  N   UNL     1       2.206   7.472  20.261  0.00  0.00    +0.000 N 
ATOM      4  H   UNL     1       3.081   7.675  19.785  0.00  0.00    +0.000 HD
ENDROOT
BRANCH   3   5
ATOM      5  C   UNL     1       1.378   8.538  20.669  0.00  0.00    +0.000 A 
ATOM      6  C   UNL     1       1.067   8.763  22.016  0.00  0.00    +0.000 A 
ATOM      7  C   UNL     1       0.231   9.812  22.393  0.00  0.00    +0.000 A 
ATOM      8  C   UNL     1      -0.310  10.645  21.426  0.00  0.00    +0.000 A 
ATOM      9  C   UNL     1       0.012  10.452  20.080  0.00  0.00    +0.000 A 
ATOM     10  C   UNL     1       0.859   9.404  19.700  0.00  0.00    +0.000 A 
ATOM     11  O   UNL     1      -0.486  11.247  19.077  0.00  0.00    +0.000 OA
ATOM     12  C   UNL     1      -1.048  12.460  19.597  0.00  0.00    +0.000 C 
ATOM     13  C   UNL     1      -1.915  12.193  20.816  0.00  0.00    +0.000 C 
ATOM     14  O   UNL     1      -1.140  11.636  21.879  0.00  0.00    +0.000 OA
ENDBRANCH   3   5
BRANCH   1  18
ATOM     15  C   UNL     1       4.494   2.089  19.645  0.00  0.00    +0.000 C 
ATOM     16  N   UNL     1       4.146   3.493  19.569  0.00  0.00    +0.000 N 
ATOM     17  N   UNL     1       3.036   3.923  20.216  0.00  0.00    +0.000 NA
ATOM     18  C   UNL     1       2.967   5.230  19.910  0.00  0.00    +0.000 A 
ATOM     19  C   UNL     1       4.058   5.618  19.094  0.00  0.00    +0.000 A 
ATOM     20  C   UNL     1       4.822   4.484  18.890  0.00  0.00    +0.000 A 
BRANCH  20  21
ATOM     21  C   UNL     1       6.046   4.280  18.155  0.00  0.00    +0.000 C 
ATOM     22  O   UNL     1       7.170   4.498  18.582  0.00  0.00    +0.000 OA
BRANCH  21  23
ATOM     23  O   UNL     1       5.843   3.808  16.901  0.00  0.00    +0.000 OA
ATOM     24  H   UNL     1       6.352   3.014  16.666  0.00  0.00    +0.000 HD
ENDBRANCH  21  23
ENDBRANCH  20  21
ENDBRANCH   1  18
TORSDOF 4
ENDMDL
