MODEL 1
REMARK VINA RESULT:      -7.2      0.000      0.000
REMARK  Name = 
REMARK  5 active torsions:
REMARK  status: ('A' for Active; 'I' for Inactive)
REMARK    1  A    between atoms: C_2  and  C_3
REMARK    2  A    between atoms: C_3  and  C_4
REMARK    3  A    between atoms: N_10  and  C_11
REMARK    4  A    between atoms: C_16  and  C_17
REMARK    5  A    between atoms: C_17  and  O_19
REMARK                            x       y       z     vdW  Elec       q    Type
REMARK                         _______ _______ _______ _____ _____    ______ ____
ROOT
ATOM      1  O   UNL     1       3.765   7.571  17.739  0.00  0.00    +0.000 OA
ATOM      2  C   UNL     1       3.249   6.472  17.927  0.00  0.00    +0.000 C 
ATOM      3  N   UNL     1       3.717   5.279  17.399  0.00  0.00    +0.000 N 
ATOM      4  H   UNL     1       3.099   4.464  17.421  0.00  0.00    +0.000 HD
ENDROOT
BRANCH   3   5
ATOM      5  C   UNL     1       4.980   5.093  16.766  0.00  0.00    +0.000 A 
ATOM      6  C   UNL     1       5.176   5.316  15.407  0.00  0.00    +0.000 A 
ATOM      7  N   UNL     1       6.372   5.219  14.767  0.00  0.00    +0.000 NA
ATOM      8  C   UNL     1       7.446   4.908  15.508  0.00  0.00    +0.000 A 
ATOM      9  C   UNL     1       7.383   4.666  16.865  0.00  0.00    +0.000 A 
ATOM     10  C   UNL     1       6.129   4.729  17.498  0.00  0.00    +0.000 A 
BRANCH  10  11
ATOM     11  C   UNL     1       6.033   4.425  18.945  0.00  0.00    +0.000 C 
ATOM     12  O   UNL     1       6.543   5.134  19.797  0.00  0.00    +0.000 OA
BRANCH  11  13
ATOM     13  O   UNL     1       5.299   3.327  19.247  0.00  0.00    +0.000 OA
ATOM     14  H   UNL     1       5.716   2.677  19.844  0.00  0.00    +0.000 HD
ENDBRANCH  11  13
ENDBRANCH  10  11
ENDBRANCH   3   5
BRANCH   2  15
ATOM     15  C   UNL     1       2.015   6.346  18.803  0.00  0.00    +0.000 C 
BRANCH  15  16
ATOM     16  C   UNL     1       1.909   5.008  19.486  0.00  0.00    +0.000 A 
ATOM     17  C   UNL     1       1.327   3.921  18.823  0.00  0.00    +0.000 A 
ATOM     18  C   UNL     1       1.201   2.689  19.465  0.00  0.00    +0.000 A 
ATOM     19  C   UNL     1       1.657   2.530  20.772  0.00  0.00    +0.000 A 
ATOM     20  C   UNL     1       2.246   3.603  21.439  0.00  0.00    +0.000 A 
ATOM     21  C   UNL     1       2.371   4.837  20.800  0.00  0.00    +0.000 A 
ENDBRANCH  15  16
ENDBRANCH   2  15
TORSDOF 5
ENDMDL
MODEL 2
REMARK VINA RESULT:      -7.2      0.045      1.109
REMARK  Name = 
REMARK  5 active torsions:
REMARK  status: ('A' for Active; 'I' for Inactive)
REMARK    1  A    between atoms: C_2  and  C_3
REMARK    2  A    between atoms: C_3  and  C_4
REMARK    3  A    between atoms: N_10  and  C_11
REMARK    4  A    between atoms: C_16  and  C_17
REMARK    5  A    between atoms: C_17  and  O_19
REMARK                            x       y       z     vdW  Elec       q    Type
REMARK                         _______ _______ _______ _____ _____    ______ ____
ROOT
ATOM      1  O   UNL     1       3.751   7.576  17.716  0.00  0.00    +0.000 OA
ATOM      2  C   UNL     1       3.238   6.477  17.916  0.00  0.00    +0.000 C 
ATOM      3  N   UNL     1       3.710   5.281  17.399  0.00  0.00    +0.000 N 
ATOM      4  H   UNL     1       3.095   4.464  17.430  0.00  0.00    +0.000 HD
ENDROOT
BRANCH   3   5
ATOM      5  C   UNL     1       4.973   5.093  16.766  0.00  0.00    +0.000 A 
ATOM      6  C   UNL     1       5.171   5.325  15.408  0.00  0.00    +0.000 A 
ATOM      7  N   UNL     1       6.368   5.227  14.769  0.00  0.00    +0.000 NA
ATOM      8  C   UNL     1       7.439   4.904  15.509  0.00  0.00    +0.000 A 
ATOM      9  C   UNL     1       7.373   4.653  16.864  0.00  0.00    +0.000 A 
ATOM     10  C   UNL     1       6.119   4.717  17.496  0.00  0.00    +0.000 A 
BRANCH  10  11
ATOM     11  C   UNL     1       6.019   4.402  18.940  0.00  0.00    +0.000 C 
ATOM     12  O   UNL     1       6.530   5.104  19.799  0.00  0.00    +0.000 OA
BRANCH  11  13
ATOM     13  O   UNL     1       5.282   3.305  19.233  0.00  0.00    +0.000 OA
ATOM     14  H   UNL     1       4.344   3.326  18.961  0.00  0.00    +0.000 HD
ENDBRANCH  11  13
ENDBRANCH  10  11
ENDBRANCH   3   5
BRANCH   2  15
ATOM     15  C   UNL     1       2.006   6.355  18.795  0.00  0.00    +0.000 C 
BRANCH  15  16
ATOM     16  C   UNL     1       1.885   5.009  19.459  0.00  0.00    +0.000 A 
ATOM     17  C   UNL     1       2.353   4.823  20.765  0.00  0.00    +0.000 A 
ATOM     18  C   UNL     1       2.269   3.570  21.372  0.00  0.00    +0.000 A 
ATOM     19  C   UNL     1       1.716   2.493  20.681  0.00  0.00    +0.000 A 
ATOM     20  C   UNL     1       1.238   2.669  19.384  0.00  0.00    +0.000 A 
ATOM     21  C   UNL     1       1.324   3.921  18.774  0.00  0.00    +0.000 A 
ENDBRANCH  15  16
ENDBRANCH   2  15
TORSDOF 5
ENDMDL
MODEL 3
REMARK VINA RESULT:      -7.0      2.206      5.604
REMARK  Name = 
REMARK  5 active torsions:
REMARK  status: ('A' for Active; 'I' for Inactive)
REMARK    1  A    between atoms: C_2  and  C_3
REMARK    2  A    between atoms: C_3  and  C_4
REMARK    3  A    between atoms: N_10  and  C_11
REMARK    4  A    between atoms: C_16  and  C_17
REMARK    5  A    between atoms: C_17  and  O_19
REMARK                            x       y       z     vdW  Elec       q    Type
REMARK                         _______ _______ _______ _____ _____    ______ ____
ROOT
ATOM      1  O   UNL     1       3.340   3.312  16.709  0.00  0.00    +0.000 OA
ATOM      2  C   UNL     1       4.243   3.931  17.269  0.00  0.00    +0.000 C 
ATOM      3  N   UNL     1       4.187   4.403  18.571  0.00  0.00    +0.000 N 
ATOM      4  H   UNL     1       4.880   5.094  18.866  0.00  0.00    +0.000 HD
ENDROOT
BRANCH   3   5
ATOM      5  C   UNL     1       3.201   4.050  19.538  0.00  0.00    +0.000 A 
ATOM      6  C   UNL     1       2.083   4.840  19.789  0.00  0.00    +0.000 A 
ATOM      7  N   UNL     1       1.080   4.517  20.649  0.00  0.00    +0.000 NA
ATOM      8  C   UNL     1       1.166   3.339  21.285  0.00  0.00    +0.000 A 
ATOM      9  C   UNL     1       2.222   2.466  21.118  0.00  0.00    +0.000 A 
ATOM     10  C   UNL     1       3.269   2.840  20.258  0.00  0.00    +0.000 A 
BRANCH  10  11
ATOM     11  C   UNL     1       4.435   1.939  20.103  0.00  0.00    +0.000 C 
ATOM     12  O   UNL     1       5.273   1.798  20.980  0.00  0.00    +0.000 OA
BRANCH  11  13
ATOM     13  O   UNL     1       4.473   1.254  18.935  0.00  0.00    +0.000 OA
ATOM     14  H   UNL     1       4.484   0.280  19.002  0.00  0.00    +0.000 HD
ENDBRANCH  11  13
ENDBRANCH  10  11
ENDBRANCH   3   5
BRANCH   2  15
ATOM     15  C   UNL     1       5.542   4.220  16.537  0.00  0.00    +0.000 C 
BRANCH  15  16
ATOM     16  C   UNL     1       6.396   5.247  17.232  0.00  0.00    +0.000 A 
ATOM     17  C   UNL     1       6.403   6.575  16.788  0.00  0.00    +0.000 A 
ATOM     18  C   UNL     1       7.216   7.523  17.410  0.00  0.00    +0.000 A 
ATOM     19  C   UNL     1       8.027   7.153  18.482  0.00  0.00    +0.000 A 
ATOM     20  C   UNL     1       8.021   5.837  18.938  0.00  0.00    +0.000 A 
ATOM     21  C   UNL     1       7.211   4.886  18.315  0.00  0.00    +0.000 A 
ENDBRANCH  15  16
ENDBRANCH   2  15
TORSDOF 5
ENDMDL
MODEL 4
REMARK VINA RESULT:      -6.9      0.867      1.606
REMARK  Name = 
REMARK  5 active torsions:
REMARK  status: ('A' for Active; 'I' for Inactive)
REMARK    1  A    between atoms: C_2  and  C_3
REMARK    2  A    between atoms: C_3  and  C_4
REMARK    3  A    between atoms: N_10  and  C_11
REMARK    4  A    between atoms: C_16  and  C_17
REMARK    5  A    between atoms: C_17  and  O_19
REMARK                            x       y       z     vdW  Elec       q    Type
REMARK                         _______ _______ _______ _____ _____    ______ ____
ROOT
ATOM      1  O   UNL     1       3.519   7.251  17.531  0.00  0.00    +0.000 OA
ATOM      2  C   UNL     1       3.454   6.292  18.297  0.00  0.00    +0.000 C 
ATOM      3  N   UNL     1       4.107   5.084  18.106  0.00  0.00    +0.000 N 
ATOM      4  H   UNL     1       3.812   4.281  18.668  0.00  0.00    +0.000 HD
ENDROOT
BRANCH   3   5
ATOM      5  C   UNL     1       5.128   4.837  17.144  0.00  0.00    +0.000 A 
ATOM      6  C   UNL     1       4.852   4.381  15.859  0.00  0.00    +0.000 A 
ATOM      7  N   UNL     1       5.780   4.195  14.883  0.00  0.00    +0.000 NA
ATOM      8  C   UNL     1       7.054   4.496  15.175  0.00  0.00    +0.000 A 
ATOM      9  C   UNL     1       7.455   4.960  16.412  0.00  0.00    +0.000 A 
ATOM     10  C   UNL     1       6.485   5.103  17.419  0.00  0.00    +0.000 A 
BRANCH  10  11
ATOM     11  C   UNL     1       6.904   5.553  18.768  0.00  0.00    +0.000 C 
ATOM     12  O   UNL     1       6.449   5.064  19.790  0.00  0.00    +0.000 OA
BRANCH  11  13
ATOM     13  O   UNL     1       7.858   6.513  18.776  0.00  0.00    +0.000 OA
ATOM     14  H   UNL     1       8.757   6.231  19.032  0.00  0.00    +0.000 HD
ENDBRANCH  11  13
ENDBRANCH  10  11
ENDBRANCH   3   5
BRANCH   2  15
ATOM     15  C   UNL     1       2.628   6.381  19.568  0.00  0.00    +0.000 C 
BRANCH  15  16
ATOM     16  C   UNL     1       2.131   5.042  20.045  0.00  0.00    +0.000 A 
ATOM     17  C   UNL     1       2.512   4.557  21.302  0.00  0.00    +0.000 A 
ATOM     18  C   UNL     1       2.078   3.303  21.734  0.00  0.00    +0.000 A 
ATOM     19  C   UNL     1       1.259   2.525  20.917  0.00  0.00    +0.000 A 
ATOM     20  C   UNL     1       0.867   3.003  19.668  0.00  0.00    +0.000 A 
ATOM     21  C   UNL     1       1.302   4.255  19.232  0.00  0.00    +0.000 A 
ENDBRANCH  15  16
ENDBRANCH   2  15
TORSDOF 5
ENDMDL
MODEL 5
REMARK VINA RESULT:      -6.9      1.905      5.469
REMARK  Name = 
REMARK  5 active torsions:
REMARK  status: ('A' for Active; 'I' for Inactive)
REMARK    1  A    between atoms: C_2  and  C_3
REMARK    2  A    between atoms: C_3  and  C_4
REMARK    3  A    between atoms: N_10  and  C_11
REMARK    4  A    between atoms: C_16  and  C_17
REMARK    5  A    between atoms: C_17  and  O_19
REMARK                            x       y       z     vdW  Elec       q    Type
REMARK                         _______ _______ _______ _____ _____    ______ ____
ROOT
ATOM      1  O   UNL     1       2.215   6.545  18.201  0.00  0.00    +0.000 OA
ATOM      2  C   UNL     1       3.403   6.288  18.378  0.00  0.00    +0.000 C 
ATOM      3  N   UNL     1       3.880   5.317  19.246  0.00  0.00    +0.000 N 
ATOM      4  H   UNL     1       4.872   5.335  19.493  0.00  0.00    +0.000 HD
ENDROOT
BRANCH   3   5
ATOM      5  C   UNL     1       3.091   4.316  19.882  0.00  0.00    +0.000 A 
ATOM      6  C   UNL     1       2.689   4.411  21.210  0.00  0.00    +0.000 A 
ATOM      7  N   UNL     1       1.881   3.519  21.845  0.00  0.00    +0.000 NA
ATOM      8  C   UNL     1       1.421   2.483  21.128  0.00  0.00    +0.000 A 
ATOM      9  C   UNL     1       1.744   2.280  19.801  0.00  0.00    +0.000 A 
ATOM     10  C   UNL     1       2.616   3.190  19.179  0.00  0.00    +0.000 A 
BRANCH  10  11
ATOM     11  C   UNL     1       3.014   2.961  17.770  0.00  0.00    +0.000 C 
ATOM     12  O   UNL     1       2.229   3.074  16.842  0.00  0.00    +0.000 OA
BRANCH  11  13
ATOM     13  O   UNL     1       4.323   2.663  17.591  0.00  0.00    +0.000 OA
ATOM     14  H   UNL     1       4.519   1.886  17.033  0.00  0.00    +0.000 HD
ENDBRANCH  11  13
ENDBRANCH  10  11
ENDBRANCH   3   5
BRANCH   2  15
ATOM     15  C   UNL     1       4.474   7.043  17.609  0.00  0.00    +0.000 C 
BRANCH  15  16
ATOM     16  C   UNL     1       5.398   6.138  16.839  0.00  0.00    +0.000 A 
ATOM     17  C   UNL     1       5.127   5.829  15.500  0.00  0.00    +0.000 A 
ATOM     18  C   UNL     1       5.966   4.966  14.792  0.00  0.00    +0.000 A 
ATOM     19  C   UNL     1       7.081   4.407  15.414  0.00  0.00    +0.000 A 
ATOM     20  C   UNL     1       7.364   4.715  16.743  0.00  0.00    +0.000 A 
ATOM     21  C   UNL     1       6.526   5.575  17.454  0.00  0.00    +0.000 A 
ENDBRANCH  15  16
ENDBRANCH   2  15
TORSDOF 5
ENDMDL
MODEL 6
REMARK VINA RESULT:      -6.9      0.896      1.208
REMARK  Name = 
REMARK  5 active torsions:
REMARK  status: ('A' for Active; 'I' for Inactive)
REMARK    1  A    between atoms: C_2  and  C_3
REMARK    2  A    between atoms: C_3  and  C_4
REMARK    3  A    between atoms: N_10  and  C_11
REMARK    4  A    between atoms: C_16  and  C_17
REMARK    5  A    between atoms: C_17  and  O_19
REMARK                            x       y       z     vdW  Elec       q    Type
REMARK                         _______ _______ _______ _____ _____    ______ ____
ROOT
ATOM      1  O   UNL     1       3.452   7.196  17.480  0.00  0.00    +0.000 OA
ATOM      2  C   UNL     1       3.449   6.256  18.272  0.00  0.00    +0.000 C 
ATOM      3  N   UNL     1       4.153   5.074  18.096  0.00  0.00    +0.000 N 
ATOM      4  H   UNL     1       3.909   4.274  18.685  0.00  0.00    +0.000 HD
ENDROOT
BRANCH   3   5
ATOM      5  C   UNL     1       5.162   4.850  17.117  0.00  0.00    +0.000 A 
ATOM      6  C   UNL     1       4.874   4.386  15.837  0.00  0.00    +0.000 A 
ATOM      7  N   UNL     1       5.789   4.220  14.845  0.00  0.00    +0.000 NA
ATOM      8  C   UNL     1       7.061   4.549  15.116  0.00  0.00    +0.000 A 
ATOM      9  C   UNL     1       7.473   5.023  16.345  0.00  0.00    +0.000 A 
ATOM     10  C   UNL     1       6.518   5.145  17.368  0.00  0.00    +0.000 A 
BRANCH  10  11
ATOM     11  C   UNL     1       6.949   5.605  18.709  0.00  0.00    +0.000 C 
ATOM     12  O   UNL     1       6.517   5.113  19.739  0.00  0.00    +0.000 OA
BRANCH  11  13
ATOM     13  O   UNL     1       7.889   6.581  18.700  0.00  0.00    +0.000 OA
ATOM     14  H   UNL     1       7.589   7.470  18.430  0.00  0.00    +0.000 HD
ENDBRANCH  11  13
ENDBRANCH  10  11
ENDBRANCH   3   5
BRANCH   2  15
ATOM     15  C   UNL     1       2.647   6.341  19.558  0.00  0.00    +0.000 C 
BRANCH  15  16
ATOM     16  C   UNL     1       2.165   4.999  20.044  0.00  0.00    +0.000 A 
ATOM     17  C   UNL     1       1.315   4.225  19.246  0.00  0.00    +0.000 A 
ATOM     18  C   UNL     1       0.843   2.995  19.706  0.00  0.00    +0.000 A 
ATOM     19  C   UNL     1       1.217   2.528  20.965  0.00  0.00    +0.000 A 
ATOM     20  C   UNL     1       2.070   3.286  21.763  0.00  0.00    +0.000 A 
ATOM     21  C   UNL     1       2.542   4.518  21.307  0.00  0.00    +0.000 A 
ENDBRANCH  15  16
ENDBRANCH   2  15
TORSDOF 5
ENDMDL
MODEL 7
REMARK VINA RESULT:      -6.8      1.908      5.566
REMARK  Name = 
REMARK  5 active torsions:
REMARK  status: ('A' for Active; 'I' for Inactive)
REMARK    1  A    between atoms: C_2  and  C_3
REMARK    2  A    between atoms: C_3  and  C_4
REMARK    3  A    between atoms: N_10  and  C_11
REMARK    4  A    between atoms: C_16  and  C_17
REMARK    5  A    between atoms: C_17  and  O_19
REMARK                            x       y       z     vdW  Elec       q    Type
REMARK                         _______ _______ _______ _____ _____    ______ ____
ROOT
ATOM      1  O   UNL     1       2.276   6.710  18.442  0.00  0.00    +0.000 OA
ATOM      2  C   UNL     1       3.449   6.345  18.489  0.00  0.00    +0.000 C 
ATOM      3  N   UNL     1       3.913   5.275  19.239  0.00  0.00    +0.000 N 
ATOM      4  H   UNL     1       4.921   5.194  19.393  0.00  0.00    +0.000 HD
ENDROOT
BRANCH   3   5
ATOM      5  C   UNL     1       3.099   4.294  19.874  0.00  0.00    +0.000 A 
ATOM      6  C   UNL     1       2.702   4.397  21.204  0.00  0.00    +0.000 A 
ATOM      7  N   UNL     1       1.871   3.526  21.838  0.00  0.00    +0.000 NA
ATOM      8  C   UNL     1       1.381   2.505  21.119  0.00  0.00    +0.000 A 
ATOM      9  C   UNL     1       1.697   2.295  19.792  0.00  0.00    +0.000 A 
ATOM     10  C   UNL     1       2.591   3.183  19.170  0.00  0.00    +0.000 A 
BRANCH  10  11
ATOM     11  C   UNL     1       2.981   2.947  17.759  0.00  0.00    +0.000 C 
ATOM     12  O   UNL     1       2.194   3.072  16.834  0.00  0.00    +0.000 OA
BRANCH  11  13
ATOM     13  O   UNL     1       4.284   2.626  17.576  0.00  0.00    +0.000 OA
ATOM     14  H   UNL     1       4.863   2.696  18.359  0.00  0.00    +0.000 HD
ENDBRANCH  11  13
ENDBRANCH  10  11
ENDBRANCH   3   5
BRANCH   2  15
ATOM     15  C   UNL     1       4.510   7.069  17.679  0.00  0.00    +0.000 C 
BRANCH  15  16
ATOM     16  C   UNL     1       5.385   6.136  16.884  0.00  0.00    +0.000 A 
ATOM     17  C   UNL     1       6.536   5.587  17.461  0.00  0.00    +0.000 A 
ATOM     18  C   UNL     1       7.365   4.746  16.717  0.00  0.00    +0.000 A 
ATOM     19  C   UNL     1       7.051   4.447  15.392  0.00  0.00    +0.000 A 
ATOM     20  C   UNL     1       5.903   4.981  14.811  0.00  0.00    +0.000 A 
ATOM     21  C   UNL     1       5.074   5.824  15.552  0.00  0.00    +0.000 A 
ENDBRANCH  15  16
ENDBRANCH   2  15
TORSDOF 5
ENDMDL
MODEL 8
REMARK VINA RESULT:      -6.8      1.487      2.378
REMARK  Name = 
REMARK  5 active torsions:
REMARK  status: ('A' for Active; 'I' for Inactive)
REMARK    1  A    between atoms: C_2  and  C_3
REMARK    2  A    between atoms: C_3  and  C_4
REMARK    3  A    between atoms: N_10  and  C_11
REMARK    4  A    between atoms: C_16  and  C_17
REMARK    5  A    between atoms: C_17  and  O_19
REMARK                            x       y       z     vdW  Elec       q    Type
REMARK                         _______ _______ _______ _____ _____    ______ ____
ROOT
ATOM      1  O   UNL     1       5.703   4.379  19.362  0.00  0.00    +0.000 OA
ATOM      2  C   UNL     1       4.814   5.119  18.945  0.00  0.00    +0.000 C 
ATOM      3  N   UNL     1       4.760   5.641  17.661  0.00  0.00    +0.000 N 
ATOM      4  H   UNL     1       4.119   6.417  17.482  0.00  0.00    +0.000 HD
ENDROOT
BRANCH   3   5
ATOM      5  C   UNL     1       5.568   5.227  16.564  0.00  0.00    +0.000 A 
ATOM      6  C   UNL     1       5.137   4.294  15.626  0.00  0.00    +0.000 A 
ATOM      7  N   UNL     1       5.840   3.915  14.525  0.00  0.00    +0.000 NA
ATOM      8  C   UNL     1       7.028   4.503  14.317  0.00  0.00    +0.000 A 
ATOM      9  C   UNL     1       7.564   5.445  15.172  0.00  0.00    +0.000 A 
ATOM     10  C   UNL     1       6.839   5.789  16.327  0.00  0.00    +0.000 A 
BRANCH  10  11
ATOM     11  C   UNL     1       7.420   6.762  17.282  0.00  0.00    +0.000 C 
ATOM     12  O   UNL     1       7.451   7.961  17.056  0.00  0.00    +0.000 OA
BRANCH  11  13
ATOM     13  O   UNL     1       7.871   6.221  18.439  0.00  0.00    +0.000 OA
ATOM     14  H   UNL     1       8.271   5.332  18.377  0.00  0.00    +0.000 HD
ENDBRANCH  11  13
ENDBRANCH  10  11
ENDBRANCH   3   5
BRANCH   2  15
ATOM     15  C   UNL     1       3.660   5.514  19.848  0.00  0.00    +0.000 C 
BRANCH  15  16
ATOM     16  C   UNL     1       2.571   4.475  19.905  0.00  0.00    +0.000 A 
ATOM     17  C   UNL     1       2.198   3.911  21.131  0.00  0.00    +0.000 A 
ATOM     18  C   UNL     1       1.210   2.927  21.182  0.00  0.00    +0.000 A 
ATOM     19  C   UNL     1       0.586   2.500  20.011  0.00  0.00    +0.000 A 
ATOM     20  C   UNL     1       0.943   3.061  18.787  0.00  0.00    +0.000 A 
ATOM     21  C   UNL     1       1.932   4.044  18.732  0.00  0.00    +0.000 A 
ENDBRANCH  15  16
ENDBRANCH   2  15
TORSDOF 5
ENDMDL
MODEL 9
REMARK VINA RESULT:      -6.8      2.022      5.685
REMARK  Name = 
REMARK  5 active torsions:
REMARK  status: ('A' for Active; 'I' for Inactive)
REMARK    1  A    between atoms: C_2  and  C_3
REMARK    2  A    between atoms: C_3  and  C_4
REMARK    3  A    between atoms: N_10  and  C_11
REMARK    4  A    between atoms: C_16  and  C_17
REMARK    5  A    between atoms: C_17  and  O_19
REMARK                            x       y       z     vdW  Elec       q    Type
REMARK                         _______ _______ _______ _____ _____    ______ ____
ROOT
ATOM      1  O   UNL     1       4.513   2.522  17.239  0.00  0.00    +0.000 OA
ATOM      2  C   UNL     1       4.326   3.702  16.948  0.00  0.00    +0.000 C 
ATOM      3  N   UNL     1       3.230   4.450  17.349  0.00  0.00    +0.000 N 
ATOM      4  H   UNL     1       3.050   5.338  16.874  0.00  0.00    +0.000 HD
ENDROOT
BRANCH   3   5
ATOM      5  C   UNL     1       2.281   4.063  18.339  0.00  0.00    +0.000 A 
ATOM      6  C   UNL     1       1.496   2.921  18.218  0.00  0.00    +0.000 A 
ATOM      7  N   UNL     1       0.627   2.470  19.162  0.00  0.00    +0.000 NA
ATOM      8  C   UNL     1       0.537   3.169  20.304  0.00  0.00    +0.000 A 
ATOM      9  C   UNL     1       1.265   4.317  20.546  0.00  0.00    +0.000 A 
ATOM     10  C   UNL     1       2.125   4.788  19.539  0.00  0.00    +0.000 A 
BRANCH  10  11
ATOM     11  C   UNL     1       2.877   6.045  19.760  0.00  0.00    +0.000 C 
ATOM     12  O   UNL     1       2.321   7.113  19.959  0.00  0.00    +0.000 OA
BRANCH  11  13
ATOM     13  O   UNL     1       4.224   5.907  19.766  0.00  0.00    +0.000 OA
ATOM     14  H   UNL     1       4.647   5.726  18.905  0.00  0.00    +0.000 HD
ENDBRANCH  11  13
ENDBRANCH  10  11
ENDBRANCH   3   5
BRANCH   2  15
ATOM     15  C   UNL     1       5.340   4.452  16.103  0.00  0.00    +0.000 C 
BRANCH  15  16
ATOM     16  C   UNL     1       6.269   5.313  16.919  0.00  0.00    +0.000 A 
ATOM     17  C   UNL     1       7.052   4.743  17.930  0.00  0.00    +0.000 A 
ATOM     18  C   UNL     1       7.891   5.543  18.707  0.00  0.00    +0.000 A 
ATOM     19  C   UNL     1       7.955   6.917  18.480  0.00  0.00    +0.000 A 
ATOM     20  C   UNL     1       7.187   7.493  17.470  0.00  0.00    +0.000 A 
ATOM     21  C   UNL     1       6.346   6.695  16.694  0.00  0.00    +0.000 A 
ENDBRANCH  15  16
ENDBRANCH   2  15
TORSDOF 5
ENDMDL
