MODEL 1
REMARK VINA RESULT:      -7.9      0.000      0.000
REMARK  Name = 
REMARK  10 active torsions:
REMARK  status: ('A' for Active; 'I' for Inactive)
REMARK    1  A    between atoms: C_1  and  C_2
REMARK    2  A    between atoms: N_12  and  C_13
REMARK    3  A    between atoms: C_13  and  C_14
REMARK    4  A    between atoms: C_14  and  C_15
REMARK    5  A    between atoms: C_15  and  C_16
REMARK    6  A    between atoms: C_16  and  N_17
REMARK    7  A    between atoms: C_19  and  C_20
REMARK    8  A    between atoms: C_20  and  O_21
REMARK    9  A    between atoms: O_21  and  C_22
REMARK   10  A    between atoms: C_25  and  C_26
REMARK                            x       y       z     vdW  Elec       q    Type
REMARK                         _______ _______ _______ _____ _____    ______ ____
ROOT
ATOM      1  C   UNL     1       7.296   5.067  17.420  0.00  0.00    +0.000 C 
ENDROOT
BRANCH   1   2
ATOM      2  N   UNL     1       7.486   6.483  17.612  0.00  0.00    +0.000 N 
ATOM      3  C   UNL     1       8.254   7.099  18.549  0.00  0.00    +0.000 A 
ATOM      4  C   UNL     1       8.160   8.433  18.220  0.00  0.00    +0.000 A 
ATOM      5  N   UNL     1       7.365   8.567  17.110  0.00  0.00    +0.000 NA
ATOM      6  N   UNL     1       6.960   7.360  16.744  0.00  0.00    +0.000 NA
BRANCH   4   7
ATOM      7  C   UNL     1       8.772   9.616  18.869  0.00  0.00    +0.000 C 
BRANCH   7   8
ATOM      8  O   UNL     1       9.405  10.445  17.893  0.00  0.00    +0.000 OA
BRANCH   8   9
ATOM      9  C   UNL     1       9.959  11.603  18.360  0.00  0.00    +0.000 A 
ATOM     10  C   UNL     1      11.353  11.595  18.445  0.00  0.00    +0.000 A 
ATOM     11  C   UNL     1      12.041  12.722  18.892  0.00  0.00    +0.000 A 
ATOM     12  C   UNL     1      11.327  13.872  19.236  0.00  0.00    +0.000 A 
ATOM     13  C   UNL     1       9.934  13.894  19.141  0.00  0.00    +0.000 A 
ATOM     14  C   UNL     1       9.250  12.758  18.700  0.00  0.00    +0.000 A 
BRANCH  12  15
ATOM     15  C   UNL     1      12.040  15.080  19.694  0.00  0.00    +0.000 C 
ATOM     16  O   UNL     1      11.447  16.087  20.058  0.00  0.00    +0.000 OA
ENDBRANCH  12  15
ENDBRANCH   8   9
ENDBRANCH   7   8
ENDBRANCH   4   7
ENDBRANCH   1   2
BRANCH   1  17
ATOM     17  C   UNL     1       6.016   4.727  16.657  0.00  0.00    +0.000 C 
BRANCH  17  18
ATOM     18  C   UNL     1       5.196   3.647  17.368  0.00  0.00    +0.000 C 
BRANCH  18  19
ATOM     19  C   UNL     1       3.696   3.745  17.070  0.00  0.00    +0.000 C 
BRANCH  19  31
ATOM     20  C   UNL     1       1.209   8.400  21.311  0.00  0.00    +0.000 C 
ATOM     21  C   UNL     1       1.673   7.252  20.459  0.00  0.00    +0.000 A 
ATOM     22  C   UNL     1       2.425   7.481  19.284  0.00  0.00    +0.000 A 
ATOM     23  C   UNL     1       2.885   6.421  18.484  0.00  0.00    +0.000 A 
ATOM     24  C   UNL     1       2.579   5.131  18.876  0.00  0.00    +0.000 A 
ATOM     25  C   UNL     1       1.830   4.918  20.033  0.00  0.00    +0.000 A 
ATOM     26  C   UNL     1       1.365   5.940  20.838  0.00  0.00    +0.000 A 
ATOM     27  C   UNL     1       1.666   3.474  20.193  0.00  0.00    +0.000 C 
ATOM     28  O   UNL     1       1.069   2.899  21.070  0.00  0.00    +0.000 OA
ATOM     29  C   UNL     1       2.417   2.840  18.998  0.00  0.00    +0.000 C 
ATOM     30  O   UNL     1       2.525   1.650  18.784  0.00  0.00    +0.000 OA
ATOM     31  N   UNL     1       2.913   3.909  18.267  0.00  0.00    +0.000 N 
ENDBRANCH  19  31
ENDBRANCH  18  19
ENDBRANCH  17  18
ENDBRANCH   1  17
TORSDOF 9
ENDMDL
MODEL 2
REMARK VINA RESULT:      -7.7      2.115     10.612
REMARK  Name = 
REMARK  10 active torsions:
REMARK  status: ('A' for Active; 'I' for Inactive)
REMARK    1  A    between atoms: C_1  and  C_2
REMARK    2  A    between atoms: N_12  and  C_13
REMARK    3  A    between atoms: C_13  and  C_14
REMARK    4  A    between atoms: C_14  and  C_15
REMARK    5  A    between atoms: C_15  and  C_16
REMARK    6  A    between atoms: C_16  and  N_17
REMARK    7  A    between atoms: C_19  and  C_20
REMARK    8  A    between atoms: C_20  and  O_21
REMARK    9  A    between atoms: O_21  and  C_22
REMARK   10  A    between atoms: C_25  and  C_26
REMARK                            x       y       z     vdW  Elec       q    Type
REMARK                         _______ _______ _______ _____ _____    ______ ____
ROOT
ATOM      1  C   UNL     1       8.245   7.742  18.314  0.00  0.00    +0.000 C 
ENDROOT
BRANCH   1   2
ATOM      2  N   UNL     1       7.379   6.947  17.480  0.00  0.00    +0.000 N 
ATOM      3  C   UNL     1       7.254   5.593  17.463  0.00  0.00    +0.000 A 
ATOM      4  C   UNL     1       6.230   5.373  16.570  0.00  0.00    +0.000 A 
ATOM      5  N   UNL     1       5.775   6.578  16.100  0.00  0.00    +0.000 NA
ATOM      6  N   UNL     1       6.488   7.539  16.671  0.00  0.00    +0.000 NA
BRANCH   4   7
ATOM      7  C   UNL     1       5.625   4.099  16.115  0.00  0.00    +0.000 C 
BRANCH   7   8
ATOM      8  O   UNL     1       4.210   4.121  16.319  0.00  0.00    +0.000 OA
BRANCH   8   9
ATOM      9  C   UNL     1       3.773   3.645  17.521  0.00  0.00    +0.000 A 
ATOM     10  C   UNL     1       3.483   4.628  18.471  0.00  0.00    +0.000 A 
ATOM     11  C   UNL     1       3.011   4.273  19.734  0.00  0.00    +0.000 A 
ATOM     12  C   UNL     1       2.808   2.925  20.039  0.00  0.00    +0.000 A 
ATOM     13  C   UNL     1       3.082   1.937  19.091  0.00  0.00    +0.000 A 
ATOM     14  C   UNL     1       3.562   2.299  17.830  0.00  0.00    +0.000 A 
BRANCH  12  15
ATOM     15  C   UNL     1       2.293   2.533  21.365  0.00  0.00    +0.000 C 
ATOM     16  O   UNL     1       2.179   3.334  22.283  0.00  0.00    +0.000 OA
ENDBRANCH  12  15
ENDBRANCH   8   9
ENDBRANCH   7   8
ENDBRANCH   4   7
ENDBRANCH   1   2
BRANCH   1  17
ATOM     17  C   UNL     1       8.250   9.223  17.940  0.00  0.00    +0.000 C 
BRANCH  17  18
ATOM     18  C   UNL     1       8.953  10.079  18.998  0.00  0.00    +0.000 C 
BRANCH  18  19
ATOM     19  C   UNL     1      10.167  10.831  18.445  0.00  0.00    +0.000 C 
BRANCH  19  31
ATOM     20  C   UNL     1       8.940  15.000  23.637  0.00  0.00    +0.000 C 
ATOM     21  C   UNL     1       9.268  14.211  22.400  0.00  0.00    +0.000 A 
ATOM     22  C   UNL     1       9.183  12.800  22.398  0.00  0.00    +0.000 A 
ATOM     23  C   UNL     1       9.467  12.045  21.247  0.00  0.00    +0.000 A 
ATOM     24  C   UNL     1       9.839  12.723  20.101  0.00  0.00    +0.000 A 
ATOM     25  C   UNL     1       9.928  14.115  20.118  0.00  0.00    +0.000 A 
ATOM     26  C   UNL     1       9.654  14.882  21.234  0.00  0.00    +0.000 A 
ATOM     27  C   UNL     1      10.337  14.547  18.782  0.00  0.00    +0.000 C 
ATOM     28  O   UNL     1      10.531  15.677  18.407  0.00  0.00    +0.000 OA
ATOM     29  C   UNL     1      10.476  13.247  17.954  0.00  0.00    +0.000 C 
ATOM     30  O   UNL     1      10.787  13.188  16.782  0.00  0.00    +0.000 OA
ATOM     31  N   UNL     1      10.171  12.218  18.832  0.00  0.00    +0.000 N 
ENDBRANCH  19  31
ENDBRANCH  18  19
ENDBRANCH  17  18
ENDBRANCH   1  17
TORSDOF 9
ENDMDL
MODEL 3
REMARK VINA RESULT:      -7.7      1.071      1.323
REMARK  Name = 
REMARK  10 active torsions:
REMARK  status: ('A' for Active; 'I' for Inactive)
REMARK    1  A    between atoms: C_1  and  C_2
REMARK    2  A    between atoms: N_12  and  C_13
REMARK    3  A    between atoms: C_13  and  C_14
REMARK    4  A    between atoms: C_14  and  C_15
REMARK    5  A    between atoms: C_15  and  C_16
REMARK    6  A    between atoms: C_16  and  N_17
REMARK    7  A    between atoms: C_19  and  C_20
REMARK    8  A    between atoms: C_20  and  O_21
REMARK    9  A    between atoms: O_21  and  C_22
REMARK   10  A    between atoms: C_25  and  C_26
REMARK                            x       y       z     vdW  Elec       q    Type
REMARK                         _______ _______ _______ _____ _____    ______ ____
ROOT
ATOM      1  C   UNL     1       5.916   4.651  18.443  0.00  0.00    +0.000 C 
ENDROOT
BRANCH   1   2
ATOM      2  N   UNL     1       6.624   5.773  17.880  0.00  0.00    +0.000 N 
ATOM      3  C   UNL     1       6.890   6.970  18.469  0.00  0.00    +0.000 A 
ATOM      4  C   UNL     1       7.672   7.620  17.542  0.00  0.00    +0.000 A 
ATOM      5  N   UNL     1       7.858   6.804  16.456  0.00  0.00    +0.000 NA
ATOM      6  N   UNL     1       7.211   5.669  16.678  0.00  0.00    +0.000 NA
BRANCH   4   7
ATOM      7  C   UNL     1       8.279   8.972  17.594  0.00  0.00    +0.000 C 
BRANCH   7   8
ATOM      8  O   UNL     1       8.474   9.375  18.952  0.00  0.00    +0.000 OA
BRANCH   8   9
ATOM      9  C   UNL     1       9.373  10.384  19.152  0.00  0.00    +0.000 A 
ATOM     10  C   UNL     1       9.883  10.956  17.984  0.00  0.00    +0.000 A 
ATOM     11  C   UNL     1      10.796  12.007  18.052  0.00  0.00    +0.000 A 
ATOM     12  C   UNL     1      11.185  12.501  19.299  0.00  0.00    +0.000 A 
ATOM     13  C   UNL     1      10.670  11.944  20.472  0.00  0.00    +0.000 A 
ATOM     14  C   UNL     1       9.761  10.886  20.396  0.00  0.00    +0.000 A 
BRANCH  12  15
ATOM     15  C   UNL     1      12.138  13.624  19.389  0.00  0.00    +0.000 C 
ATOM     16  O   UNL     1      11.896  14.724  18.910  0.00  0.00    +0.000 OA
ENDBRANCH  12  15
ENDBRANCH   8   9
ENDBRANCH   7   8
ENDBRANCH   4   7
ENDBRANCH   1   2
BRANCH   1  17
ATOM     17  C   UNL     1       5.386   3.681  17.389  0.00  0.00    +0.000 C 
BRANCH  17  18
ATOM     18  C   UNL     1       4.216   4.276  16.599  0.00  0.00    +0.000 C 
BRANCH  18  19
ATOM     19  C   UNL     1       2.884   3.579  16.890  0.00  0.00    +0.000 C 
BRANCH  19  31
ATOM     20  C   UNL     1       1.478   8.553  21.263  0.00  0.00    +0.000 C 
ATOM     21  C   UNL     1       1.727   7.342  20.409  0.00  0.00    +0.000 A 
ATOM     22  C   UNL     1       2.169   7.478  19.072  0.00  0.00    +0.000 A 
ATOM     23  C   UNL     1       2.426   6.358  18.263  0.00  0.00    +0.000 A 
ATOM     24  C   UNL     1       2.233   5.104  18.810  0.00  0.00    +0.000 A 
ATOM     25  C   UNL     1       1.789   4.982  20.126  0.00  0.00    +0.000 A 
ATOM     26  C   UNL     1       1.529   6.064  20.945  0.00  0.00    +0.000 A 
ATOM     27  C   UNL     1       1.678   3.555  20.425  0.00  0.00    +0.000 C 
ATOM     28  O   UNL     1       1.316   3.051  21.460  0.00  0.00    +0.000 OA
ATOM     29  C   UNL     1       2.119   2.828  19.131  0.00  0.00    +0.000 C 
ATOM     30  O   UNL     1       2.179   1.625  18.984  0.00  0.00    +0.000 OA
ATOM     31  N   UNL     1       2.415   3.837  18.227  0.00  0.00    +0.000 N 
ENDBRANCH  19  31
ENDBRANCH  18  19
ENDBRANCH  17  18
ENDBRANCH   1  17
TORSDOF 9
ENDMDL
MODEL 4
REMARK VINA RESULT:      -7.7      2.318      9.718
REMARK  Name = 
REMARK  10 active torsions:
REMARK  status: ('A' for Active; 'I' for Inactive)
REMARK    1  A    between atoms: C_1  and  C_2
REMARK    2  A    between atoms: N_12  and  C_13
REMARK    3  A    between atoms: C_13  and  C_14
REMARK    4  A    between atoms: C_14  and  C_15
REMARK    5  A    between atoms: C_15  and  C_16
REMARK    6  A    between atoms: C_16  and  N_17
REMARK    7  A    between atoms: C_19  and  C_20
REMARK    8  A    between atoms: C_20  and  O_21
REMARK    9  A    between atoms: O_21  and  C_22
REMARK   10  A    between atoms: C_25  and  C_26
REMARK                            x       y       z     vdW  Elec       q    Type
REMARK                         _______ _______ _______ _____ _____    ______ ____
ROOT
ATOM      1  C   UNL     1       8.191   7.364  18.570  0.00  0.00    +0.000 C 
ENDROOT
BRANCH   1   2
ATOM      2  N   UNL     1       7.378   6.215  18.262  0.00  0.00    +0.000 N 
ATOM      3  C   UNL     1       6.436   5.627  19.048  0.00  0.00    +0.000 A 
ATOM      4  C   UNL     1       5.900   4.653  18.237  0.00  0.00    +0.000 A 
ATOM      5  N   UNL     1       6.515   4.696  17.013  0.00  0.00    +0.000 NA
ATOM      6  N   UNL     1       7.420   5.665  17.040  0.00  0.00    +0.000 NA
BRANCH   4   7
ATOM      7  C   UNL     1       4.830   3.666  18.520  0.00  0.00    +0.000 C 
BRANCH   7   8
ATOM      8  O   UNL     1       3.584   4.121  17.988  0.00  0.00    +0.000 OA
BRANCH   8   9
ATOM      9  C   UNL     1       3.024   5.196  18.615  0.00  0.00    +0.000 A 
ATOM     10  C   UNL     1       2.533   4.939  19.897  0.00  0.00    +0.000 A 
ATOM     11  C   UNL     1       1.952   5.958  20.650  0.00  0.00    +0.000 A 
ATOM     12  C   UNL     1       1.882   7.249  20.122  0.00  0.00    +0.000 A 
ATOM     13  C   UNL     1       2.382   7.519  18.847  0.00  0.00    +0.000 A 
ATOM     14  C   UNL     1       2.956   6.491  18.094  0.00  0.00    +0.000 A 
BRANCH  12  15
ATOM     15  C   UNL     1       1.285   8.344  20.912  0.00  0.00    +0.000 C 
ATOM     16  O   UNL     1       0.515   9.157  20.419  0.00  0.00    +0.000 OA
ENDBRANCH  12  15
ENDBRANCH   8   9
ENDBRANCH   7   8
ENDBRANCH   4   7
ENDBRANCH   1   2
BRANCH   1  17
ATOM     17  C   UNL     1       8.065   8.487  17.543  0.00  0.00    +0.000 C 
BRANCH  17  18
ATOM     18  C   UNL     1       8.242   9.869  18.179  0.00  0.00    +0.000 C 
BRANCH  18  19
ATOM     19  C   UNL     1       9.349   9.900  19.238  0.00  0.00    +0.000 C 
BRANCH  19  31
ATOM     20  C   UNL     1       9.044  15.052  23.621  0.00  0.00    +0.000 C 
ATOM     21  C   UNL     1       9.229  13.998  22.565  0.00  0.00    +0.000 A 
ATOM     22  C   UNL     1       8.600  12.737  22.682  0.00  0.00    +0.000 A 
ATOM     23  C   UNL     1       8.745  11.746  21.696  0.00  0.00    +0.000 A 
ATOM     24  C   UNL     1       9.529  12.035  20.595  0.00  0.00    +0.000 A 
ATOM     25  C   UNL     1      10.151  13.279  20.494  0.00  0.00    +0.000 A 
ATOM     26  C   UNL     1      10.026  14.272  21.447  0.00  0.00    +0.000 A 
ATOM     27  C   UNL     1      10.903  13.296  19.240  0.00  0.00    +0.000 C 
ATOM     28  O   UNL     1      11.579  14.196  18.806  0.00  0.00    +0.000 OA
ATOM     29  C   UNL     1      10.651  11.914  18.590  0.00  0.00    +0.000 C 
ATOM     30  O   UNL     1      11.095  11.546  17.522  0.00  0.00    +0.000 OA
ATOM     31  N   UNL     1       9.833  11.234  19.480  0.00  0.00    +0.000 N 
ENDBRANCH  19  31
ENDBRANCH  18  19
ENDBRANCH  17  18
ENDBRANCH   1  17
TORSDOF 9
ENDMDL
MODEL 5
REMARK VINA RESULT:      -7.6      2.329     10.997
REMARK  Name = 
REMARK  10 active torsions:
REMARK  status: ('A' for Active; 'I' for Inactive)
REMARK    1  A    between atoms: C_1  and  C_2
REMARK    2  A    between atoms: N_12  and  C_13
REMARK    3  A    between atoms: C_13  and  C_14
REMARK    4  A    between atoms: C_14  and  C_15
REMARK    5  A    between atoms: C_15  and  C_16
REMARK    6  A    between atoms: C_16  and  N_17
REMARK    7  A    between atoms: C_19  and  C_20
REMARK    8  A    between atoms: C_20  and  O_21
REMARK    9  A    between atoms: O_21  and  C_22
REMARK   10  A    between atoms: C_25  and  C_26
REMARK                            x       y       z     vdW  Elec       q    Type
REMARK                         _______ _______ _______ _____ _____    ______ ____
ROOT
ATOM      1  C   UNL     1       8.935   9.051  18.908  0.00  0.00    +0.000 C 
ENDROOT
BRANCH   1   2
ATOM      2  N   UNL     1       8.256   7.941  18.287  0.00  0.00    +0.000 N 
ATOM      3  C   UNL     1       8.062   6.694  18.796  0.00  0.00    +0.000 A 
ATOM      4  C   UNL     1       7.278   6.076  17.848  0.00  0.00    +0.000 A 
ATOM      5  N   UNL     1       7.022   6.958  16.830  0.00  0.00    +0.000 NA
ATOM      6  N   UNL     1       7.626   8.103  17.114  0.00  0.00    +0.000 NA
BRANCH   4   7
ATOM      7  C   UNL     1       6.731   4.699  17.821  0.00  0.00    +0.000 C 
BRANCH   7   8
ATOM      8  O   UNL     1       6.162   4.366  19.089  0.00  0.00    +0.000 OA
BRANCH   8   9
ATOM      9  C   UNL     1       4.815   4.144  19.099  0.00  0.00    +0.000 A 
ATOM     10  C   UNL     1       4.438   2.837  19.417  0.00  0.00    +0.000 A 
ATOM     11  C   UNL     1       3.091   2.485  19.478  0.00  0.00    +0.000 A 
ATOM     12  C   UNL     1       2.115   3.454  19.239  0.00  0.00    +0.000 A 
ATOM     13  C   UNL     1       2.482   4.767  18.934  0.00  0.00    +0.000 A 
ATOM     14  C   UNL     1       3.834   5.111  18.867  0.00  0.00    +0.000 A 
BRANCH  12  15
ATOM     15  C   UNL     1       0.683   3.103  19.316  0.00  0.00    +0.000 C 
ATOM     16  O   UNL     1       0.234   2.088  18.801  0.00  0.00    +0.000 OA
ENDBRANCH  12  15
ENDBRANCH   8   9
ENDBRANCH   7   8
ENDBRANCH   4   7
ENDBRANCH   1   2
BRANCH   1  17
ATOM     17  C   UNL     1       8.572  10.401  18.292  0.00  0.00    +0.000 C 
BRANCH  17  18
ATOM     18  C   UNL     1       9.814  11.189  17.866  0.00  0.00    +0.000 C 
BRANCH  18  19
ATOM     19  C   UNL     1      10.520  11.870  19.042  0.00  0.00    +0.000 C 
BRANCH  19  31
ATOM     20  C   UNL     1      10.400  18.410  17.295  0.00  0.00    +0.000 C 
ATOM     21  C   UNL     1      10.302  16.995  17.792  0.00  0.00    +0.000 A 
ATOM     22  C   UNL     1      11.035  15.957  17.172  0.00  0.00    +0.000 A 
ATOM     23  C   UNL     1      10.972  14.631  17.633  0.00  0.00    +0.000 A 
ATOM     24  C   UNL     1      10.164  14.360  18.721  0.00  0.00    +0.000 A 
ATOM     25  C   UNL     1       9.439  15.390  19.320  0.00  0.00    +0.000 A 
ATOM     26  C   UNL     1       9.482  16.702  18.888  0.00  0.00    +0.000 A 
ATOM     27  C   UNL     1       8.686  14.811  20.432  0.00  0.00    +0.000 C 
ATOM     28  O   UNL     1       7.935  15.384  21.182  0.00  0.00    +0.000 OA
ATOM     29  C   UNL     1       9.052  13.307  20.438  0.00  0.00    +0.000 C 
ATOM     30  O   UNL     1       8.638  12.484  21.228  0.00  0.00    +0.000 OA
ATOM     31  N   UNL     1       9.926  13.138  19.374  0.00  0.00    +0.000 N 
ENDBRANCH  19  31
ENDBRANCH  18  19
ENDBRANCH  17  18
ENDBRANCH   1  17
TORSDOF 9
ENDMDL
MODEL 6
REMARK VINA RESULT:      -7.6      2.101     10.963
REMARK  Name = 
REMARK  10 active torsions:
REMARK  status: ('A' for Active; 'I' for Inactive)
REMARK    1  A    between atoms: C_1  and  C_2
REMARK    2  A    between atoms: N_12  and  C_13
REMARK    3  A    between atoms: C_13  and  C_14
REMARK    4  A    between atoms: C_14  and  C_15
REMARK    5  A    between atoms: C_15  and  C_16
REMARK    6  A    between atoms: C_16  and  N_17
REMARK    7  A    between atoms: C_19  and  C_20
REMARK    8  A    between atoms: C_20  and  O_21
REMARK    9  A    between atoms: O_21  and  C_22
REMARK   10  A    between atoms: C_25  and  C_26
REMARK                            x       y       z     vdW  Elec       q    Type
REMARK                         _______ _______ _______ _____ _____    ______ ____
ROOT
ATOM      1  C   UNL     1       8.545   8.271  18.666  0.00  0.00    +0.000 C 
ENDROOT
BRANCH   1   2
ATOM      2  N   UNL     1       7.769   7.353  17.871  0.00  0.00    +0.000 N 
ATOM      3  C   UNL     1       7.604   6.017  18.065  0.00  0.00    +0.000 A 
ATOM      4  C   UNL     1       6.697   5.657  17.095  0.00  0.00    +0.000 A 
ATOM      5  N   UNL     1       6.345   6.769  16.373  0.00  0.00    +0.000 NA
ATOM      6  N   UNL     1       7.009   7.806  16.863  0.00  0.00    +0.000 NA
BRANCH   4   7
ATOM      7  C   UNL     1       6.115   4.330  16.784  0.00  0.00    +0.000 C 
BRANCH   7   8
ATOM      8  O   UNL     1       4.772   4.474  16.317  0.00  0.00    +0.000 OA
BRANCH   8   9
ATOM      9  C   UNL     1       3.793   4.293  17.251  0.00  0.00    +0.000 A 
ATOM     10  C   UNL     1       3.616   2.972  17.669  0.00  0.00    +0.000 A 
ATOM     11  C   UNL     1       2.659   2.657  18.632  0.00  0.00    +0.000 A 
ATOM     12  C   UNL     1       1.887   3.677  19.194  0.00  0.00    +0.000 A 
ATOM     13  C   UNL     1       2.066   5.002  18.793  0.00  0.00    +0.000 A 
ATOM     14  C   UNL     1       3.022   5.310  17.821  0.00  0.00    +0.000 A 
BRANCH  12  15
ATOM     15  C   UNL     1       0.881   3.363  20.227  0.00  0.00    +0.000 C 
ATOM     16  O   UNL     1       1.146   2.686  21.211  0.00  0.00    +0.000 OA
ENDBRANCH  12  15
ENDBRANCH   8   9
ENDBRANCH   7   8
ENDBRANCH   4   7
ENDBRANCH   1   2
BRANCH   1  17
ATOM     17  C   UNL     1       8.591   9.683  18.086  0.00  0.00    +0.000 C 
BRANCH  17  18
ATOM     18  C   UNL     1       8.922  10.730  19.153  0.00  0.00    +0.000 C 
BRANCH  18  19
ATOM     19  C   UNL     1      10.425  10.996  19.282  0.00  0.00    +0.000 C 
BRANCH  19  31
ATOM     20  C   UNL     1       9.626  16.477  23.175  0.00  0.00    +0.000 C 
ATOM     21  C   UNL     1       9.902  15.357  22.212  0.00  0.00    +0.000 A 
ATOM     22  C   UNL     1       9.470  14.040  22.490  0.00  0.00    +0.000 A 
ATOM     23  C   UNL     1       9.700  12.983  21.593  0.00  0.00    +0.000 A 
ATOM     24  C   UNL     1      10.371  13.263  20.417  0.00  0.00    +0.000 A 
ATOM     25  C   UNL     1      10.800  14.564  20.157  0.00  0.00    +0.000 A 
ATOM     26  C   UNL     1      10.587  15.623  21.020  0.00  0.00    +0.000 A 
ATOM     27  C   UNL     1      11.469  14.557  18.857  0.00  0.00    +0.000 C 
ATOM     28  O   UNL     1      11.983  15.492  18.295  0.00  0.00    +0.000 OA
ATOM     29  C   UNL     1      11.384  13.094  18.359  0.00  0.00    +0.000 C 
ATOM     30  O   UNL     1      11.815  12.683  17.301  0.00  0.00    +0.000 OA
ATOM     31  N   UNL     1      10.725  12.402  19.364  0.00  0.00    +0.000 N 
ENDBRANCH  19  31
ENDBRANCH  18  19
ENDBRANCH  17  18
ENDBRANCH   1  17
TORSDOF 9
ENDMDL
MODEL 7
REMARK VINA RESULT:      -7.5      2.282     10.724
REMARK  Name = 
REMARK  10 active torsions:
REMARK  status: ('A' for Active; 'I' for Inactive)
REMARK    1  A    between atoms: C_1  and  C_2
REMARK    2  A    between atoms: N_12  and  C_13
REMARK    3  A    between atoms: C_13  and  C_14
REMARK    4  A    between atoms: C_14  and  C_15
REMARK    5  A    between atoms: C_15  and  C_16
REMARK    6  A    between atoms: C_16  and  N_17
REMARK    7  A    between atoms: C_19  and  C_20
REMARK    8  A    between atoms: C_20  and  O_21
REMARK    9  A    between atoms: O_21  and  C_22
REMARK   10  A    between atoms: C_25  and  C_26
REMARK                            x       y       z     vdW  Elec       q    Type
REMARK                         _______ _______ _______ _____ _____    ______ ____
ROOT
ATOM      1  C   UNL     1       7.935   7.833  18.310  0.00  0.00    +0.000 C 
ENDROOT
BRANCH   1   2
ATOM      2  N   UNL     1       7.269   6.871  17.469  0.00  0.00    +0.000 N 
ATOM      3  C   UNL     1       6.046   6.306  17.657  0.00  0.00    +0.000 A 
ATOM      4  C   UNL     1       5.858   5.554  16.520  0.00  0.00    +0.000 A 
ATOM      5  N   UNL     1       6.946   5.701  15.698  0.00  0.00    +0.000 NA
ATOM      6  N   UNL     1       7.805   6.517  16.291  0.00  0.00    +0.000 NA
BRANCH   4   7
ATOM      7  C   UNL     1       4.715   4.696  16.129  0.00  0.00    +0.000 C 
BRANCH   7   8
ATOM      8  O   UNL     1       4.754   3.461  16.847  0.00  0.00    +0.000 OA
BRANCH   8   9
ATOM      9  C   UNL     1       3.920   3.370  17.924  0.00  0.00    +0.000 A 
ATOM     10  C   UNL     1       2.816   2.533  17.744  0.00  0.00    +0.000 A 
ATOM     11  C   UNL     1       1.898   2.342  18.775  0.00  0.00    +0.000 A 
ATOM     12  C   UNL     1       2.099   2.978  20.002  0.00  0.00    +0.000 A 
ATOM     13  C   UNL     1       3.206   3.805  20.197  0.00  0.00    +0.000 A 
ATOM     14  C   UNL     1       4.119   3.999  19.156  0.00  0.00    +0.000 A 
BRANCH  12  15
ATOM     15  C   UNL     1       1.145   2.773  21.110  0.00  0.00    +0.000 C 
ATOM     16  O   UNL     1       1.504   2.383  22.214  0.00  0.00    +0.000 OA
ENDBRANCH  12  15
ENDBRANCH   8   9
ENDBRANCH   7   8
ENDBRANCH   4   7
ENDBRANCH   1   2
BRANCH   1  17
ATOM     17  C   UNL     1       8.405   9.075  17.554  0.00  0.00    +0.000 C 
BRANCH  17  18
ATOM     18  C   UNL     1       8.591  10.276  18.485  0.00  0.00    +0.000 C 
BRANCH  18  19
ATOM     19  C   UNL     1      10.001  10.871  18.417  0.00  0.00    +0.000 C 
BRANCH  19  31
ATOM     20  C   UNL     1       8.883  14.860  23.772  0.00  0.00    +0.000 C 
ATOM     21  C   UNL     1       9.190  14.113  22.505  0.00  0.00    +0.000 A 
ATOM     22  C   UNL     1       9.074  12.705  22.448  0.00  0.00    +0.000 A 
ATOM     23  C   UNL     1       9.338  11.990  21.267  0.00  0.00    +0.000 A 
ATOM     24  C   UNL     1       9.720  12.704  20.147  0.00  0.00    +0.000 A 
ATOM     25  C   UNL     1       9.839  14.091  20.217  0.00  0.00    +0.000 A 
ATOM     26  C   UNL     1       9.586  14.820  21.363  0.00  0.00    +0.000 A 
ATOM     27  C   UNL     1      10.252  14.566  18.897  0.00  0.00    +0.000 C 
ATOM     28  O   UNL     1      10.468  15.706  18.566  0.00  0.00    +0.000 OA
ATOM     29  C   UNL     1      10.359  13.297  18.018  0.00  0.00    +0.000 C 
ATOM     30  O   UNL     1      10.664  13.276  16.844  0.00  0.00    +0.000 OA
ATOM     31  N   UNL     1      10.036  12.241  18.858  0.00  0.00    +0.000 N 
ENDBRANCH  19  31
ENDBRANCH  18  19
ENDBRANCH  17  18
ENDBRANCH   1  17
TORSDOF 9
ENDMDL
MODEL 8
REMARK VINA RESULT:      -7.5      5.564      9.101
REMARK  Name = 
REMARK  10 active torsions:
REMARK  status: ('A' for Active; 'I' for Inactive)
REMARK    1  A    between atoms: C_1  and  C_2
REMARK    2  A    between atoms: N_12  and  C_13
REMARK    3  A    between atoms: C_13  and  C_14
REMARK    4  A    between atoms: C_14  and  C_15
REMARK    5  A    between atoms: C_15  and  C_16
REMARK    6  A    between atoms: C_16  and  N_17
REMARK    7  A    between atoms: C_19  and  C_20
REMARK    8  A    between atoms: C_20  and  O_21
REMARK    9  A    between atoms: O_21  and  C_22
REMARK   10  A    between atoms: C_25  and  C_26
REMARK                            x       y       z     vdW  Elec       q    Type
REMARK                         _______ _______ _______ _____ _____    ______ ____
ROOT
ATOM      1  C   UNL     1       2.664   6.498  18.145  0.00  0.00    +0.000 C 
ENDROOT
BRANCH   1   2
ATOM      2  N   UNL     1       2.177   7.549  19.004  0.00  0.00    +0.000 N 
ATOM      3  C   UNL     1       1.837   8.818  18.655  0.00  0.00    +0.000 A 
ATOM      4  C   UNL     1       1.345   9.354  19.824  0.00  0.00    +0.000 A 
ATOM      5  N   UNL     1       1.393   8.404  20.811  0.00  0.00    +0.000 NA
ATOM      6  N   UNL     1       1.904   7.296  20.293  0.00  0.00    +0.000 NA
BRANCH   4   7
ATOM      7  C   UNL     1       0.816  10.712  20.096  0.00  0.00    +0.000 C 
BRANCH   7   8
ATOM      8  O   UNL     1       0.539  10.866  21.489  0.00  0.00    +0.000 OA
BRANCH   8   9
ATOM      9  C   UNL     1      -0.674  11.411  21.801  0.00  0.00    +0.000 A 
ATOM     10  C   UNL     1      -1.363  11.967  20.721  0.00  0.00    +0.000 A 
ATOM     11  C   UNL     1      -2.620  12.540  20.903  0.00  0.00    +0.000 A 
ATOM     12  C   UNL     1      -3.199  12.537  22.174  0.00  0.00    +0.000 A 
ATOM     13  C   UNL     1      -2.525  11.971  23.258  0.00  0.00    +0.000 A 
ATOM     14  C   UNL     1      -1.261  11.405  23.068  0.00  0.00    +0.000 A 
BRANCH  12  15
ATOM     15  C   UNL     1      -4.537  13.124  22.382  0.00  0.00    +0.000 C 
ATOM     16  O   UNL     1      -5.437  13.003  21.561  0.00  0.00    +0.000 OA
ENDBRANCH  12  15
ENDBRANCH   8   9
ENDBRANCH   7   8
ENDBRANCH   4   7
ENDBRANCH   1   2
BRANCH   1  17
ATOM     17  C   UNL     1       2.186   5.108  18.560  0.00  0.00    +0.000 C 
BRANCH  17  18
ATOM     18  C   UNL     1       2.366   4.082  17.438  0.00  0.00    +0.000 C 
BRANCH  18  19
ATOM     19  C   UNL     1       3.549   3.138  17.678  0.00  0.00    +0.000 C 
BRANCH  19  31
ATOM     20  C   UNL     1       7.846   5.168  12.856  0.00  0.00    +0.000 C 
ATOM     21  C   UNL     1       6.995   4.795  14.037  0.00  0.00    +0.000 A 
ATOM     22  C   UNL     1       5.736   4.176  13.857  0.00  0.00    +0.000 A 
ATOM     23  C   UNL     1       4.934   3.802  14.948  0.00  0.00    +0.000 A 
ATOM     24  C   UNL     1       5.409   4.058  16.221  0.00  0.00    +0.000 A 
ATOM     25  C   UNL     1       6.648   4.676  16.387  0.00  0.00    +0.000 A 
ATOM     26  C   UNL     1       7.457   5.054  15.333  0.00  0.00    +0.000 A 
ATOM     27  C   UNL     1       6.883   4.815  17.823  0.00  0.00    +0.000 C 
ATOM     28  O   UNL     1       7.841   5.311  18.362  0.00  0.00    +0.000 OA
ATOM     29  C   UNL     1       5.639   4.196  18.505  0.00  0.00    +0.000 C 
ATOM     30  O   UNL     1       5.462   4.107  19.703  0.00  0.00    +0.000 OA
ATOM     31  N   UNL     1       4.816   3.787  17.466  0.00  0.00    +0.000 N 
ENDBRANCH  19  31
ENDBRANCH  18  19
ENDBRANCH  17  18
ENDBRANCH   1  17
TORSDOF 9
ENDMDL
MODEL 9
REMARK VINA RESULT:      -7.5      6.065      9.794
REMARK  Name = 
REMARK  10 active torsions:
REMARK  status: ('A' for Active; 'I' for Inactive)
REMARK    1  A    between atoms: C_1  and  C_2
REMARK    2  A    between atoms: N_12  and  C_13
REMARK    3  A    between atoms: C_13  and  C_14
REMARK    4  A    between atoms: C_14  and  C_15
REMARK    5  A    between atoms: C_15  and  C_16
REMARK    6  A    between atoms: C_16  and  N_17
REMARK    7  A    between atoms: C_19  and  C_20
REMARK    8  A    between atoms: C_20  and  O_21
REMARK    9  A    between atoms: O_21  and  C_22
REMARK   10  A    between atoms: C_25  and  C_26
REMARK                            x       y       z     vdW  Elec       q    Type
REMARK                         _______ _______ _______ _____ _____    ______ ____
ROOT
ATOM      1  C   UNL     1       0.241  11.145  21.347  0.00  0.00    +0.000 C 
ENDROOT
BRANCH   1   2
ATOM      2  N   UNL     1       0.900  10.104  20.599  0.00  0.00    +0.000 N 
ATOM      3  C   UNL     1       1.284   8.877  21.041  0.00  0.00    +0.000 A 
ATOM      4  C   UNL     1       1.760   8.258  19.907  0.00  0.00    +0.000 A 
ATOM      5  N   UNL     1       1.636   9.112  18.842  0.00  0.00    +0.000 NA
ATOM      6  N   UNL     1       1.102  10.243  19.280  0.00  0.00    +0.000 NA
BRANCH   4   7
ATOM      7  C   UNL     1       2.328   6.900  19.735  0.00  0.00    +0.000 C 
BRANCH   7   8
ATOM      8  O   UNL     1       2.067   6.417  18.415  0.00  0.00    +0.000 OA
BRANCH   8   9
ATOM      9  C   UNL     1       3.113   5.806  17.786  0.00  0.00    +0.000 A 
ATOM     10  C   UNL     1       4.120   6.669  17.346  0.00  0.00    +0.000 A 
ATOM     11  C   UNL     1       5.250   6.167  16.703  0.00  0.00    +0.000 A 
ATOM     12  C   UNL     1       5.382   4.789  16.518  0.00  0.00    +0.000 A 
ATOM     13  C   UNL     1       4.388   3.917  16.967  0.00  0.00    +0.000 A 
ATOM     14  C   UNL     1       3.253   4.428  17.604  0.00  0.00    +0.000 A 
BRANCH  12  15
ATOM     15  C   UNL     1       6.580   4.240  15.855  0.00  0.00    +0.000 C 
ATOM     16  O   UNL     1       7.659   4.818  15.875  0.00  0.00    +0.000 OA
ENDBRANCH  12  15
ENDBRANCH   8   9
ENDBRANCH   7   8
ENDBRANCH   4   7
ENDBRANCH   1   2
BRANCH   1  17
ATOM     17  C   UNL     1       0.379  12.526  20.710  0.00  0.00    +0.000 C 
BRANCH  17  18
ATOM     18  C   UNL     1      -0.978  13.110  20.307  0.00  0.00    +0.000 C 
BRANCH  18  19
ATOM     19  C   UNL     1      -2.158  12.256  20.780  0.00  0.00    +0.000 C 
BRANCH  19  31
ATOM     20  C   UNL     1      -3.534  10.065  14.523  0.00  0.00    +0.000 C 
ATOM     21  C   UNL     1      -3.394  10.591  15.924  0.00  0.00    +0.000 A 
ATOM     22  C   UNL     1      -2.176  10.453  16.630  0.00  0.00    +0.000 A 
ATOM     23  C   UNL     1      -2.019  10.954  17.933  0.00  0.00    +0.000 A 
ATOM     24  C   UNL     1      -3.096  11.592  18.519  0.00  0.00    +0.000 A 
ATOM     25  C   UNL     1      -4.294  11.715  17.817  0.00  0.00    +0.000 A 
ATOM     26  C   UNL     1      -4.478  11.232  16.535  0.00  0.00    +0.000 A 
ATOM     27  C   UNL     1      -5.240  12.424  18.676  0.00  0.00    +0.000 C 
ATOM     28  O   UNL     1      -6.384  12.711  18.424  0.00  0.00    +0.000 OA
ATOM     29  C   UNL     1      -4.464  12.725  19.981  0.00  0.00    +0.000 C 
ATOM     30  O   UNL     1      -4.905  13.320  20.943  0.00  0.00    +0.000 OA
ATOM     31  N   UNL     1      -3.203  12.177  19.793  0.00  0.00    +0.000 N 
ENDBRANCH  19  31
ENDBRANCH  18  19
ENDBRANCH  17  18
ENDBRANCH   1  17
TORSDOF 9
ENDMDL
