MODEL 1
REMARK VINA RESULT:      -7.6      0.000      0.000
REMARK  Name = 
REMARK  8 active torsions:
REMARK  status: ('A' for Active; 'I' for Inactive)
REMARK    1  A    between atoms: C_1  and  C_2
REMARK    2  A    between atoms: C_5  and  C_6
REMARK    3  A    between atoms: C_6  and  C_7
REMARK    4  A    between atoms: C_6  and  N_13
REMARK    5  A    between atoms: C_7  and  C_8
REMARK    6  A    between atoms: C_14  and  C_16
REMARK    7  A    between atoms: N_20  and  C_21
REMARK    8  A    between atoms: N_24  and  C_25
REMARK                            x       y       z     vdW  Elec       q    Type
REMARK                         _______ _______ _______ _____ _____    ______ ____
ROOT
ATOM      1  N   UNL     1       2.941   5.616  17.964  0.00  0.00    +0.000 N 
ATOM      2  C   UNL     1       3.151   6.943  17.687  0.00  0.00    +0.000 C 
ATOM      3  O   UNL     1       3.877   7.311  16.771  0.00  0.00    +0.000 OA
ATOM      4  H   UNL     1       2.299   5.308  18.686  0.00  0.00    +0.000 HD
ENDROOT
BRANCH   2   5
ATOM      5  C   UNL     1       2.390   7.924  18.551  0.00  0.00    +0.000 A 
ATOM      6  C   UNL     1       2.023   9.079  17.982  0.00  0.00    +0.000 A 
ATOM      7  C   UNL     1       1.293  10.081  18.761  0.00  0.00    +0.000 A 
ATOM      8  O   UNL     1       1.026  11.154  18.219  0.00  0.00    +0.000 OA
ATOM      9  N   UNL     1       0.965   9.736  20.048  0.00  0.00    +0.000 N 
ATOM     10  C   UNL     1       0.242  10.695  20.863  0.00  0.00    +0.000 C 
ATOM     11  C   UNL     1       1.283   8.518  20.641  0.00  0.00    +0.000 A 
ATOM     12  O   UNL     1       0.923   8.253  21.791  0.00  0.00    +0.000 OA
ATOM     13  N   UNL     1       2.027   7.632  19.862  0.00  0.00    +0.000 N 
ATOM     14  C   UNL     1       2.409   6.362  20.474  0.00  0.00    +0.000 C 
ENDBRANCH   2   5
BRANCH   1  15
ATOM     15  C   UNL     1       3.553   4.527  17.198  0.00  0.00    +0.000 C 
BRANCH  15  20
ATOM     16  C   UNL     1       7.818   5.680  19.482  0.00  0.00    +0.000 C 
ATOM     17  C   UNL     1       7.003   5.113  18.376  0.00  0.00    +0.000 A 
ATOM     18  C   UNL     1       7.474   4.665  17.156  0.00  0.00    +0.000 A 
ATOM     19  S   UNL     1       6.165   4.243  16.138  0.00  0.00    +0.000 S 
ATOM     20  C   UNL     1       5.061   4.613  17.408  0.00  0.00    +0.000 A 
ATOM     21  N   UNL     1       5.626   5.046  18.525  0.00  0.00    +0.000 NA
ENDBRANCH  15  20
BRANCH  15  22
ATOM     22  C   UNL     1       2.947   3.146  17.534  0.00  0.00    +0.000 C 
BRANCH  22  23
ATOM     23  C   UNL     1       2.462   2.993  18.953  0.00  0.00    +0.000 A 
ATOM     24  C   UNL     1       1.092   3.095  19.360  0.00  0.00    +0.000 A 
ATOM     25  C   UNL     1       0.924   2.911  20.714  0.00  0.00    +0.000 A 
ATOM     26  S   UNL     1       2.409   2.634  21.511  0.00  0.00    +0.000 S 
ATOM     27  C   UNL     1       3.278   2.766  20.046  0.00  0.00    +0.000 A 
ENDBRANCH  22  23
ENDBRANCH  15  22
ENDBRANCH   1  15
TORSDOF 5
ENDMDL
MODEL 2
REMARK VINA RESULT:      -7.5      1.998      4.683
REMARK  Name = 
REMARK  8 active torsions:
REMARK  status: ('A' for Active; 'I' for Inactive)
REMARK    1  A    between atoms: C_1  and  C_2
REMARK    2  A    between atoms: C_5  and  C_6
REMARK    3  A    between atoms: C_6  and  C_7
REMARK    4  A    between atoms: C_6  and  N_13
REMARK    5  A    between atoms: C_7  and  C_8
REMARK    6  A    between atoms: C_14  and  C_16
REMARK    7  A    between atoms: N_20  and  C_21
REMARK    8  A    between atoms: N_24  and  C_25
REMARK                            x       y       z     vdW  Elec       q    Type
REMARK                         _______ _______ _______ _____ _____    ______ ____
ROOT
ATOM      1  N   UNL     1       2.303   7.191  20.188  0.00  0.00    +0.000 N 
ATOM      2  C   UNL     1       1.726   8.255  19.541  0.00  0.00    +0.000 C 
ATOM      3  O   UNL     1       1.848   8.429  18.334  0.00  0.00    +0.000 OA
ATOM      4  H   UNL     1       2.160   7.015  21.176  0.00  0.00    +0.000 HD
ENDROOT
BRANCH   2   5
ATOM      5  C   UNL     1       0.888   9.173  20.403  0.00  0.00    +0.000 A 
ATOM      6  C   UNL     1       1.013   9.045  21.730  0.00  0.00    +0.000 A 
ATOM      7  C   UNL     1       0.225   9.893  22.626  0.00  0.00    +0.000 A 
ATOM      8  O   UNL     1       0.326   9.705  23.839  0.00  0.00    +0.000 OA
ATOM      9  N   UNL     1      -0.572  10.838  22.031  0.00  0.00    +0.000 N 
ATOM     10  C   UNL     1      -1.374  11.704  22.876  0.00  0.00    +0.000 C 
ATOM     11  C   UNL     1      -0.673  11.029  20.657  0.00  0.00    +0.000 A 
ATOM     12  O   UNL     1      -1.378  11.925  20.185  0.00  0.00    +0.000 OA
ATOM     13  N   UNL     1       0.061  10.151  19.859  0.00  0.00    +0.000 N 
ATOM     14  C   UNL     1      -0.058  10.303  18.412  0.00  0.00    +0.000 C 
ENDBRANCH   2   5
BRANCH   1  15
ATOM     15  C   UNL     1       3.105   6.173  19.503  0.00  0.00    +0.000 C 
BRANCH  15  20
ATOM     16  C   UNL     1       1.342   2.230  21.969  0.00  0.00    +0.000 C 
ATOM     17  C   UNL     1       1.606   3.037  20.749  0.00  0.00    +0.000 A 
ATOM     18  C   UNL     1       1.406   2.637  19.442  0.00  0.00    +0.000 A 
ATOM     19  S   UNL     1       1.991   3.831  18.364  0.00  0.00    +0.000 S 
ATOM     20  C   UNL     1       2.407   4.833  19.703  0.00  0.00    +0.000 A 
ATOM     21  N   UNL     1       2.145   4.307  20.890  0.00  0.00    +0.000 NA
ENDBRANCH  15  20
BRANCH  15  22
ATOM     22  C   UNL     1       3.382   6.525  18.024  0.00  0.00    +0.000 C 
BRANCH  22  23
ATOM     23  C   UNL     1       4.710   6.049  17.495  0.00  0.00    +0.000 A 
ATOM     24  C   UNL     1       5.101   6.094  16.117  0.00  0.00    +0.000 A 
ATOM     25  C   UNL     1       6.368   5.598  15.907  0.00  0.00    +0.000 A 
ATOM     26  S   UNL     1       7.092   5.057  17.356  0.00  0.00    +0.000 S 
ATOM     27  C   UNL     1       5.708   5.480  18.265  0.00  0.00    +0.000 A 
ENDBRANCH  22  23
ENDBRANCH  15  22
ENDBRANCH   1  15
TORSDOF 5
ENDMDL
MODEL 3
REMARK VINA RESULT:      -7.5      1.807      4.704
REMARK  Name = 
REMARK  8 active torsions:
REMARK  status: ('A' for Active; 'I' for Inactive)
REMARK    1  A    between atoms: C_1  and  C_2
REMARK    2  A    between atoms: C_5  and  C_6
REMARK    3  A    between atoms: C_6  and  C_7
REMARK    4  A    between atoms: C_6  and  N_13
REMARK    5  A    between atoms: C_7  and  C_8
REMARK    6  A    between atoms: C_14  and  C_16
REMARK    7  A    between atoms: N_20  and  C_21
REMARK    8  A    between atoms: N_24  and  C_25
REMARK                            x       y       z     vdW  Elec       q    Type
REMARK                         _______ _______ _______ _____ _____    ______ ____
ROOT
ATOM      1  N   UNL     1       2.338   6.993  20.316  0.00  0.00    +0.000 N 
ATOM      2  C   UNL     1       1.936   8.139  19.678  0.00  0.00    +0.000 C 
ATOM      3  O   UNL     1       2.266   8.395  18.526  0.00  0.00    +0.000 OA
ATOM      4  H   UNL     1       2.022   6.753  21.250  0.00  0.00    +0.000 HD
ENDROOT
BRANCH   2   5
ATOM      5  C   UNL     1       1.017   9.044  20.469  0.00  0.00    +0.000 A 
ATOM      6  C   UNL     1       1.096   8.977  21.804  0.00  0.00    +0.000 A 
ATOM      7  C   UNL     1       0.230   9.817  22.634  0.00  0.00    +0.000 A 
ATOM      8  O   UNL     1       0.293   9.682  23.856  0.00  0.00    +0.000 OA
ATOM      9  N   UNL     1      -0.591  10.693  21.970  0.00  0.00    +0.000 N 
ATOM     10  C   UNL     1      -1.470  11.547  22.747  0.00  0.00    +0.000 C 
ATOM     11  C   UNL     1      -0.647  10.824  20.586  0.00  0.00    +0.000 A 
ATOM     12  O   UNL     1      -1.379  11.660  20.052  0.00  0.00    +0.000 OA
ATOM     13  N   UNL     1       0.163   9.955  19.854  0.00  0.00    +0.000 N 
ATOM     14  C   UNL     1       0.093  10.042  18.398  0.00  0.00    +0.000 C 
ENDBRANCH   2   5
BRANCH   1  15
ATOM     15  C   UNL     1       3.185   5.977  19.686  0.00  0.00    +0.000 C 
BRANCH  15  20
ATOM     16  C   UNL     1       0.528   1.923  18.572  0.00  0.00    +0.000 C 
ATOM     17  C   UNL     1       1.327   2.793  19.474  0.00  0.00    +0.000 A 
ATOM     18  C   UNL     1       1.502   2.624  20.834  0.00  0.00    +0.000 A 
ATOM     19  S   UNL     1       2.368   3.949  21.486  0.00  0.00    +0.000 S 
ATOM     20  C   UNL     1       2.517   4.625  19.908  0.00  0.00    +0.000 A 
ATOM     21  N   UNL     1       1.941   3.920  18.947  0.00  0.00    +0.000 NA
ENDBRANCH  15  20
BRANCH  15  22
ATOM     22  C   UNL     1       3.493   6.292  18.204  0.00  0.00    +0.000 C 
BRANCH  22  23
ATOM     23  C   UNL     1       4.769   5.687  17.677  0.00  0.00    +0.000 A 
ATOM     24  C   UNL     1       4.928   5.137  16.363  0.00  0.00    +0.000 A 
ATOM     25  C   UNL     1       6.197   4.653  16.139  0.00  0.00    +0.000 A 
ATOM     26  S   UNL     1       7.202   4.835  17.508  0.00  0.00    +0.000 S 
ATOM     27  C   UNL     1       5.938   5.557  18.403  0.00  0.00    +0.000 A 
ENDBRANCH  22  23
ENDBRANCH  15  22
ENDBRANCH   1  15
TORSDOF 5
ENDMDL
MODEL 4
REMARK VINA RESULT:      -7.3      1.884      4.643
REMARK  Name = 
REMARK  8 active torsions:
REMARK  status: ('A' for Active; 'I' for Inactive)
REMARK    1  A    between atoms: C_1  and  C_2
REMARK    2  A    between atoms: C_5  and  C_6
REMARK    3  A    between atoms: C_6  and  C_7
REMARK    4  A    between atoms: C_6  and  N_13
REMARK    5  A    between atoms: C_7  and  C_8
REMARK    6  A    between atoms: C_14  and  C_16
REMARK    7  A    between atoms: N_20  and  C_21
REMARK    8  A    between atoms: N_24  and  C_25
REMARK                            x       y       z     vdW  Elec       q    Type
REMARK                         _______ _______ _______ _____ _____    ______ ____
ROOT
ATOM      1  N   UNL     1       2.620   7.400  19.885  0.00  0.00    +0.000 N 
ATOM      2  C   UNL     1       1.784   8.238  19.191  0.00  0.00    +0.000 C 
ATOM      3  O   UNL     1       1.572   8.101  17.992  0.00  0.00    +0.000 OA
ATOM      4  H   UNL     1       2.755   7.478  20.887  0.00  0.00    +0.000 HD
ENDROOT
BRANCH   2   5
ATOM      5  C   UNL     1       1.100   9.310  20.009  0.00  0.00    +0.000 A 
ATOM      6  C   UNL     1       0.520   8.927  21.154  0.00  0.00    +0.000 A 
ATOM      7  C   UNL     1      -0.169   9.910  21.992  0.00  0.00    +0.000 A 
ATOM      8  O   UNL     1      -0.739   9.507  23.007  0.00  0.00    +0.000 OA
ATOM      9  N   UNL     1      -0.124  11.214  21.569  0.00  0.00    +0.000 N 
ATOM     10  C   UNL     1      -0.794  12.227  22.365  0.00  0.00    +0.000 C 
ATOM     11  C   UNL     1       0.522  11.645  20.415  0.00  0.00    +0.000 A 
ATOM     12  O   UNL     1       0.561  12.839  20.111  0.00  0.00    +0.000 OA
ATOM     13  N   UNL     1       1.111  10.651  19.634  0.00  0.00    +0.000 N 
ATOM     14  C   UNL     1       1.762  11.070  18.396  0.00  0.00    +0.000 C 
ENDBRANCH   2   5
BRANCH   1  15
ATOM     15  C   UNL     1       3.325   6.274  19.266  0.00  0.00    +0.000 C 
BRANCH  15  20
ATOM     16  C   UNL     1       1.331   2.429  21.709  0.00  0.00    +0.000 C 
ATOM     17  C   UNL     1       1.556   3.284  20.515  0.00  0.00    +0.000 A 
ATOM     18  C   UNL     1       1.142   3.015  19.224  0.00  0.00    +0.000 A 
ATOM     19  S   UNL     1       1.756   4.198  18.150  0.00  0.00    +0.000 S 
ATOM     20  C   UNL     1       2.472   5.030  19.478  0.00  0.00    +0.000 A 
ATOM     21  N   UNL     1       2.285   4.455  20.657  0.00  0.00    +0.000 NA
ENDBRANCH  15  20
BRANCH  15  22
ATOM     22  C   UNL     1       3.696   6.541  17.790  0.00  0.00    +0.000 C 
BRANCH  22  23
ATOM     23  C   UNL     1       4.967   5.878  17.324  0.00  0.00    +0.000 A 
ATOM     24  C   UNL     1       6.032   5.460  18.187  0.00  0.00    +0.000 A 
ATOM     25  C   UNL     1       7.075   4.879  17.502  0.00  0.00    +0.000 A 
ATOM     26  S   UNL     1       6.796   4.849  15.817  0.00  0.00    +0.000 S 
ATOM     27  C   UNL     1       5.282   5.618  16.002  0.00  0.00    +0.000 A 
ENDBRANCH  22  23
ENDBRANCH  15  22
ENDBRANCH   1  15
TORSDOF 5
ENDMDL
MODEL 5
REMARK VINA RESULT:      -7.2      2.305      4.442
REMARK  Name = 
REMARK  8 active torsions:
REMARK  status: ('A' for Active; 'I' for Inactive)
REMARK    1  A    between atoms: C_1  and  C_2
REMARK    2  A    between atoms: C_5  and  C_6
REMARK    3  A    between atoms: C_6  and  C_7
REMARK    4  A    between atoms: C_6  and  N_13
REMARK    5  A    between atoms: C_7  and  C_8
REMARK    6  A    between atoms: C_14  and  C_16
REMARK    7  A    between atoms: N_20  and  C_21
REMARK    8  A    between atoms: N_24  and  C_25
REMARK                            x       y       z     vdW  Elec       q    Type
REMARK                         _______ _______ _______ _____ _____    ______ ____
ROOT
ATOM      1  N   UNL     1       1.723   7.802  18.771  0.00  0.00    +0.000 N 
ATOM      2  C   UNL     1       1.689   9.076  18.263  0.00  0.00    +0.000 C 
ATOM      3  O   UNL     1       2.655   9.581  17.703  0.00  0.00    +0.000 OA
ATOM      4  H   UNL     1       0.909   7.362  19.187  0.00  0.00    +0.000 HD
ENDROOT
BRANCH   2   5
ATOM      5  C   UNL     1       0.368   9.801  18.394  0.00  0.00    +0.000 A 
ATOM      6  C   UNL     1      -0.538   9.595  17.430  0.00  0.00    +0.000 A 
ATOM      7  C   UNL     1      -1.834  10.273  17.485  0.00  0.00    +0.000 A 
ATOM      8  O   UNL     1      -2.616  10.103  16.549  0.00  0.00    +0.000 OA
ATOM      9  N   UNL     1      -2.071  11.052  18.589  0.00  0.00    +0.000 N 
ATOM     10  C   UNL     1      -3.342  11.746  18.691  0.00  0.00    +0.000 C 
ATOM     11  C   UNL     1      -1.169  11.233  19.632  0.00  0.00    +0.000 A 
ATOM     12  O   UNL     1      -1.459  11.915  20.618  0.00  0.00    +0.000 OA
ATOM     13  N   UNL     1       0.068  10.604  19.490  0.00  0.00    +0.000 N 
ATOM     14  C   UNL     1       1.049  10.811  20.552  0.00  0.00    +0.000 C 
ENDBRANCH   2   5
BRANCH   1  15
ATOM     15  C   UNL     1       2.901   6.933  18.687  0.00  0.00    +0.000 C 
BRANCH  15  20
ATOM     16  C   UNL     1       2.411   2.890  21.541  0.00  0.00    +0.000 C 
ATOM     17  C   UNL     1       2.216   3.683  20.299  0.00  0.00    +0.000 A 
ATOM     18  C   UNL     1       1.705   3.220  19.101  0.00  0.00    +0.000 A 
ATOM     19  S   UNL     1       1.809   4.440  17.905  0.00  0.00    +0.000 S 
ATOM     20  C   UNL     1       2.459   5.527  19.073  0.00  0.00    +0.000 A 
ATOM     21  N   UNL     1       2.612   5.012  20.284  0.00  0.00    +0.000 NA
ENDBRANCH  15  20
BRANCH  15  22
ATOM     22  C   UNL     1       3.608   7.018  17.315  0.00  0.00    +0.000 C 
BRANCH  22  23
ATOM     23  C   UNL     1       4.862   6.190  17.194  0.00  0.00    +0.000 A 
ATOM     24  C   UNL     1       5.212   5.405  16.047  0.00  0.00    +0.000 A 
ATOM     25  C   UNL     1       6.413   4.749  16.198  0.00  0.00    +0.000 A 
ATOM     26  S   UNL     1       7.121   5.053  17.722  0.00  0.00    +0.000 S 
ATOM     27  C   UNL     1       5.818   6.058  18.184  0.00  0.00    +0.000 A 
ENDBRANCH  22  23
ENDBRANCH  15  22
ENDBRANCH   1  15
TORSDOF 5
ENDMDL
MODEL 6
REMARK VINA RESULT:      -7.2      1.981      4.429
REMARK  Name = 
REMARK  8 active torsions:
REMARK  status: ('A' for Active; 'I' for Inactive)
REMARK    1  A    between atoms: C_1  and  C_2
REMARK    2  A    between atoms: C_5  and  C_6
REMARK    3  A    between atoms: C_6  and  C_7
REMARK    4  A    between atoms: C_6  and  N_13
REMARK    5  A    between atoms: C_7  and  C_8
REMARK    6  A    between atoms: C_14  and  C_16
REMARK    7  A    between atoms: N_20  and  C_21
REMARK    8  A    between atoms: N_24  and  C_25
REMARK                            x       y       z     vdW  Elec       q    Type
REMARK                         _______ _______ _______ _____ _____    ______ ____
ROOT
ATOM      1  N   UNL     1       2.353   7.006  20.065  0.00  0.00    +0.000 N 
ATOM      2  C   UNL     1       2.009   8.232  19.556  0.00  0.00    +0.000 C 
ATOM      3  O   UNL     1       2.410   8.621  18.464  0.00  0.00    +0.000 OA
ATOM      4  H   UNL     1       1.980   6.659  20.942  0.00  0.00    +0.000 HD
ENDROOT
BRANCH   2   5
ATOM      5  C   UNL     1       1.064   9.055  20.403  0.00  0.00    +0.000 A 
ATOM      6  C   UNL     1       1.195   8.956  21.732  0.00  0.00    +0.000 A 
ATOM      7  C   UNL     1       0.307   9.716  22.614  0.00  0.00    +0.000 A 
ATOM      8  O   UNL     1       0.421   9.552  23.830  0.00  0.00    +0.000 OA
ATOM      9  N   UNL     1      -0.590  10.556  22.005  0.00  0.00    +0.000 N 
ATOM     10  C   UNL     1      -1.493  11.331  22.836  0.00  0.00    +0.000 C 
ATOM     11  C   UNL     1      -0.703  10.720  20.628  0.00  0.00    +0.000 A 
ATOM     12  O   UNL     1      -1.504  11.523  20.143  0.00  0.00    +0.000 OA
ATOM     13  N   UNL     1       0.133   9.925  19.844  0.00  0.00    +0.000 N 
ATOM     14  C   UNL     1       0.007  10.048  18.394  0.00  0.00    +0.000 C 
ENDBRANCH   2   5
BRANCH   1  15
ATOM     15  C   UNL     1       3.216   6.054  19.358  0.00  0.00    +0.000 C 
BRANCH  15  20
ATOM     16  C   UNL     1       4.554   1.492  20.816  0.00  0.00    +0.000 C 
ATOM     17  C   UNL     1       3.640   2.663  20.754  0.00  0.00    +0.000 A 
ATOM     18  C   UNL     1       2.344   2.718  21.229  0.00  0.00    +0.000 A 
ATOM     19  S   UNL     1       1.623   4.211  20.802  0.00  0.00    +0.000 S 
ATOM     20  C   UNL     1       3.102   4.715  20.077  0.00  0.00    +0.000 A 
ATOM     21  N   UNL     1       4.078   3.821  20.128  0.00  0.00    +0.000 NA
ENDBRANCH  15  20
BRANCH  15  22
ATOM     22  C   UNL     1       2.913   5.985  17.844  0.00  0.00    +0.000 C 
BRANCH  22  23
ATOM     23  C   UNL     1       4.066   5.530  16.985  0.00  0.00    +0.000 A 
ATOM     24  C   UNL     1       5.010   6.406  16.359  0.00  0.00    +0.000 A 
ATOM     25  C   UNL     1       5.964   5.729  15.633  0.00  0.00    +0.000 A 
ATOM     26  S   UNL     1       5.724   4.039  15.681  0.00  0.00    +0.000 S 
ATOM     27  C   UNL     1       4.340   4.212  16.668  0.00  0.00    +0.000 A 
ENDBRANCH  22  23
ENDBRANCH  15  22
ENDBRANCH   1  15
TORSDOF 5
ENDMDL
MODEL 7
REMARK VINA RESULT:      -7.2      2.062      4.505
REMARK  Name = 
REMARK  8 active torsions:
REMARK  status: ('A' for Active; 'I' for Inactive)
REMARK    1  A    between atoms: C_1  and  C_2
REMARK    2  A    between atoms: C_5  and  C_6
REMARK    3  A    between atoms: C_6  and  C_7
REMARK    4  A    between atoms: C_6  and  N_13
REMARK    5  A    between atoms: C_7  and  C_8
REMARK    6  A    between atoms: C_14  and  C_16
REMARK    7  A    between atoms: N_20  and  C_21
REMARK    8  A    between atoms: N_24  and  C_25
REMARK                            x       y       z     vdW  Elec       q    Type
REMARK                         _______ _______ _______ _____ _____    ______ ____
ROOT
ATOM      1  N   UNL     1       2.405   6.871  20.008  0.00  0.00    +0.000 N 
ATOM      2  C   UNL     1       2.102   8.114  19.513  0.00  0.00    +0.000 C 
ATOM      3  O   UNL     1       2.533   8.511  18.437  0.00  0.00    +0.000 OA
ATOM      4  H   UNL     1       2.007   6.519  20.871  0.00  0.00    +0.000 HD
ENDROOT
BRANCH   2   5
ATOM      5  C   UNL     1       1.160   8.946  20.356  0.00  0.00    +0.000 A 
ATOM      6  C   UNL     1       1.298   8.864  21.685  0.00  0.00    +0.000 A 
ATOM      7  C   UNL     1       0.414   9.633  22.563  0.00  0.00    +0.000 A 
ATOM      8  O   UNL     1       0.535   9.484  23.780  0.00  0.00    +0.000 OA
ATOM      9  N   UNL     1      -0.488  10.463  21.948  0.00  0.00    +0.000 N 
ATOM     10  C   UNL     1      -1.388  11.246  22.775  0.00  0.00    +0.000 C 
ATOM     11  C   UNL     1      -0.610  10.610  20.570  0.00  0.00    +0.000 A 
ATOM     12  O   UNL     1      -1.416  11.404  20.080  0.00  0.00    +0.000 OA
ATOM     13  N   UNL     1       0.224   9.807  19.791  0.00  0.00    +0.000 N 
ATOM     14  C   UNL     1       0.088   9.911  18.341  0.00  0.00    +0.000 C 
ENDBRANCH   2   5
BRANCH   1  15
ATOM     15  C   UNL     1       3.259   5.911  19.302  0.00  0.00    +0.000 C 
BRANCH  15  20
ATOM     16  C   UNL     1       1.158   2.469  22.213  0.00  0.00    +0.000 C 
ATOM     17  C   UNL     1       2.194   2.979  21.277  0.00  0.00    +0.000 A 
ATOM     18  C   UNL     1       3.373   2.346  20.935  0.00  0.00    +0.000 A 
ATOM     19  S   UNL     1       4.327   3.369  19.948  0.00  0.00    +0.000 S 
ATOM     20  C   UNL     1       3.081   4.558  19.980  0.00  0.00    +0.000 A 
ATOM     21  N   UNL     1       2.018   4.228  20.699  0.00  0.00    +0.000 NA
ENDBRANCH  15  20
BRANCH  15  22
ATOM     22  C   UNL     1       3.002   5.891  17.778  0.00  0.00    +0.000 C 
BRANCH  22  23
ATOM     23  C   UNL     1       4.182   5.473  16.939  0.00  0.00    +0.000 A 
ATOM     24  C   UNL     1       5.182   6.368  16.436  0.00  0.00    +0.000 A 
ATOM     25  C   UNL     1       6.151   5.724  15.701  0.00  0.00    +0.000 A 
ATOM     26  S   UNL     1       5.861   4.044  15.592  0.00  0.00    +0.000 S 
ATOM     27  C   UNL     1       4.434   4.179  16.523  0.00  0.00    +0.000 A 
ENDBRANCH  22  23
ENDBRANCH  15  22
ENDBRANCH   1  15
TORSDOF 5
ENDMDL
MODEL 8
REMARK VINA RESULT:      -7.2      1.940      4.240
REMARK  Name = 
REMARK  8 active torsions:
REMARK  status: ('A' for Active; 'I' for Inactive)
REMARK    1  A    between atoms: C_1  and  C_2
REMARK    2  A    between atoms: C_5  and  C_6
REMARK    3  A    between atoms: C_6  and  C_7
REMARK    4  A    between atoms: C_6  and  N_13
REMARK    5  A    between atoms: C_7  and  C_8
REMARK    6  A    between atoms: C_14  and  C_16
REMARK    7  A    between atoms: N_20  and  C_21
REMARK    8  A    between atoms: N_24  and  C_25
REMARK                            x       y       z     vdW  Elec       q    Type
REMARK                         _______ _______ _______ _____ _____    ______ ____
ROOT
ATOM      1  N   UNL     1       1.937   7.428  19.422  0.00  0.00    +0.000 N 
ATOM      2  C   UNL     1       1.953   8.669  18.839  0.00  0.00    +0.000 C 
ATOM      3  O   UNL     1       2.784   8.981  17.993  0.00  0.00    +0.000 OA
ATOM      4  H   UNL     1       1.219   7.148  20.082  0.00  0.00    +0.000 HD
ENDROOT
BRANCH   2   5
ATOM      5  C   UNL     1       0.851   9.612  19.267  0.00  0.00    +0.000 A 
ATOM      6  C   UNL     1       0.099  10.151  18.299  0.00  0.00    +0.000 A 
ATOM      7  C   UNL     1      -0.979  11.081  18.640  0.00  0.00    +0.000 A 
ATOM      8  O   UNL     1      -1.608  11.600  17.717  0.00  0.00    +0.000 OA
ATOM      9  N   UNL     1      -1.198  11.301  19.976  0.00  0.00    +0.000 N 
ATOM     10  C   UNL     1      -2.256  12.216  20.366  0.00  0.00    +0.000 C 
ATOM     11  C   UNL     1      -0.470  10.707  21.001  0.00  0.00    +0.000 A 
ATOM     12  O   UNL     1      -0.744  10.915  22.185  0.00  0.00    +0.000 OA
ATOM     13  N   UNL     1       0.579   9.875  20.607  0.00  0.00    +0.000 N 
ATOM     14  C   UNL     1       1.386   9.270  21.662  0.00  0.00    +0.000 C 
ENDBRANCH   2   5
BRANCH   1  15
ATOM     15  C   UNL     1       2.895   6.370  19.089  0.00  0.00    +0.000 C 
BRANCH  15  20
ATOM     16  C   UNL     1       1.496   2.461  21.827  0.00  0.00    +0.000 C 
ATOM     17  C   UNL     1       1.582   3.254  20.574  0.00  0.00    +0.000 A 
ATOM     18  C   UNL     1       1.193   2.842  19.314  0.00  0.00    +0.000 A 
ATOM     19  S   UNL     1       1.619   4.022  18.149  0.00  0.00    +0.000 S 
ATOM     20  C   UNL     1       2.228   5.035  19.403  0.00  0.00    +0.000 A 
ATOM     21  N   UNL     1       2.141   4.523  20.621  0.00  0.00    +0.000 NA
ENDBRANCH  15  20
BRANCH  15  22
ATOM     22  C   UNL     1       3.431   6.482  17.644  0.00  0.00    +0.000 C 
BRANCH  22  23
ATOM     23  C   UNL     1       4.761   5.815  17.405  0.00  0.00    +0.000 A 
ATOM     24  C   UNL     1       5.167   5.229  16.161  0.00  0.00    +0.000 A 
ATOM     25  C   UNL     1       6.432   4.690  16.215  0.00  0.00    +0.000 A 
ATOM     26  S   UNL     1       7.137   4.864  17.761  0.00  0.00    +0.000 S 
ATOM     27  C   UNL     1       5.746   5.656  18.362  0.00  0.00    +0.000 A 
ENDBRANCH  22  23
ENDBRANCH  15  22
ENDBRANCH   1  15
TORSDOF 5
ENDMDL
MODEL 9
REMARK VINA RESULT:      -7.1      1.954      2.620
REMARK  Name = 
REMARK  8 active torsions:
REMARK  status: ('A' for Active; 'I' for Inactive)
REMARK    1  A    between atoms: C_1  and  C_2
REMARK    2  A    between atoms: C_5  and  C_6
REMARK    3  A    between atoms: C_6  and  C_7
REMARK    4  A    between atoms: C_6  and  N_13
REMARK    5  A    between atoms: C_7  and  C_8
REMARK    6  A    between atoms: C_14  and  C_16
REMARK    7  A    between atoms: N_20  and  C_21
REMARK    8  A    between atoms: N_24  and  C_25
REMARK                            x       y       z     vdW  Elec       q    Type
REMARK                         _______ _______ _______ _____ _____    ______ ____
ROOT
ATOM      1  N   UNL     1       2.758   8.015  18.510  0.00  0.00    +0.000 N 
ATOM      2  C   UNL     1       1.718   8.830  18.139  0.00  0.00    +0.000 C 
ATOM      3  O   UNL     1       0.833   8.453  17.380  0.00  0.00    +0.000 OA
ATOM      4  H   UNL     1       3.462   8.306  19.180  0.00  0.00    +0.000 HD
ENDROOT
BRANCH   2   5
ATOM      5  C   UNL     1       1.705  10.207  18.765  0.00  0.00    +0.000 A 
ATOM      6  C   UNL     1       2.244  11.205  18.053  0.00  0.00    +0.000 A 
ATOM      7  C   UNL     1       2.276  12.562  18.601  0.00  0.00    +0.000 A 
ATOM      8  O   UNL     1       2.833  13.440  17.940  0.00  0.00    +0.000 OA
ATOM      9  N   UNL     1       1.677  12.744  19.822  0.00  0.00    +0.000 N 
ATOM     10  C   UNL     1       1.682  14.072  20.408  0.00  0.00    +0.000 C 
ATOM     11  C   UNL     1       1.058  11.735  20.552  0.00  0.00    +0.000 A 
ATOM     12  O   UNL     1       0.501  11.972  21.626  0.00  0.00    +0.000 OA
ATOM     13  N   UNL     1       1.112  10.455  19.999  0.00  0.00    +0.000 N 
ATOM     14  C   UNL     1       0.506   9.369  20.765  0.00  0.00    +0.000 C 
ENDBRANCH   2   5
BRANCH   1  15
ATOM     15  C   UNL     1       2.903   6.633  18.044  0.00  0.00    +0.000 C 
BRANCH  15  20
ATOM     16  C   UNL     1       7.722   5.939  19.058  0.00  0.00    +0.000 C 
ATOM     17  C   UNL     1       6.555   6.097  18.152  0.00  0.00    +0.000 A 
ATOM     18  C   UNL     1       6.595   6.240  16.779  0.00  0.00    +0.000 A 
ATOM     19  S   UNL     1       5.025   6.547  16.170  0.00  0.00    +0.000 S 
ATOM     20  C   UNL     1       4.383   6.400  17.763  0.00  0.00    +0.000 A 
ATOM     21  N   UNL     1       5.283   6.155  18.703  0.00  0.00    +0.000 NA
ENDBRANCH  15  20
BRANCH  15  22
ATOM     22  C   UNL     1       2.277   5.607  19.015  0.00  0.00    +0.000 C 
BRANCH  22  23
ATOM     23  C   UNL     1       2.582   4.165  18.701  0.00  0.00    +0.000 A 
ATOM     24  C   UNL     1       2.163   3.485  17.511  0.00  0.00    +0.000 A 
ATOM     25  C   UNL     1       2.579   2.173  17.474  0.00  0.00    +0.000 A 
ATOM     26  S   UNL     1       3.458   1.741  18.873  0.00  0.00    +0.000 S 
ATOM     27  C   UNL     1       3.277   3.307  19.533  0.00  0.00    +0.000 A 
ENDBRANCH  22  23
ENDBRANCH  15  22
ENDBRANCH   1  15
TORSDOF 5
ENDMDL
