MODEL 1
REMARK VINA RESULT:      -6.8      0.000      0.000
REMARK  Name = 
REMARK  10 active torsions:
REMARK  status: ('A' for Active; 'I' for Inactive)
REMARK    1  A    between atoms: C_1  and  O_2
REMARK    2  A    between atoms: O_2  and  C_3
REMARK    3  A    between atoms: C_5  and  C_6
REMARK    4  A    between atoms: C_6  and  C_8
REMARK    5  A    between atoms: C_9  and  N_10
REMARK    6  A    between atoms: C_17  and  C_18
REMARK    7  A    between atoms: C_22  and  O_23
REMARK    8  A    between atoms: O_23  and  C_24
REMARK    9  A    between atoms: C_25  and  O_26
REMARK   10  A    between atoms: O_26  and  C_27
REMARK                            x       y       z     vdW  Elec       q    Type
REMARK                         _______ _______ _______ _____ _____    ______ ____
ROOT
ATOM      1  C   UNL     1       1.276   9.378  19.307  0.00  0.00    +0.000 A 
ATOM      2  C   UNL     1       2.027   9.783  18.202  0.00  0.00    +0.000 A 
ATOM      3  S   UNL     1       2.950   8.503  17.533  0.00  0.00    +0.000 S 
ATOM      4  C   UNL     1       2.476   7.428  18.750  0.00  0.00    +0.000 A 
ATOM      5  C   UNL     1       1.612   8.009  19.659  0.00  0.00    +0.000 A 
ATOM      6  C   UNL     1       1.076   7.196  20.816  0.00  0.00    +0.000 C 
ATOM      7  C   UNL     1       1.821   5.852  20.956  0.00  0.00    +0.000 C 
ATOM      8  N   UNL     1       2.096   5.237  19.646  0.00  0.00    +0.000 N 
ATOM      9  C   UNL     1       1.473   4.044  19.318  0.00  0.00    +0.000 C 
ATOM     10  C   UNL     1       1.727   3.393  17.980  0.00  0.00    +0.000 C 
ATOM     11  O   UNL     1       0.714   3.478  20.106  0.00  0.00    +0.000 OA
ATOM     12  C   UNL     1       2.987   6.021  18.785  0.00  0.00    +0.000 C 
ENDROOT
BRANCH   2  13
ATOM     13  N   UNL     1       2.132  10.989  17.604  0.00  0.00    +0.000 N 
ATOM     14  H   UNL     1       2.578  11.158  16.710  0.00  0.00    +0.000 HD
ATOM     15  H   UNL     1       1.890  11.828  18.120  0.00  0.00    +0.000 HD
ENDBRANCH   2  13
BRANCH   1  16
ATOM     16  C   UNL     1       0.325  10.217  20.059  0.00  0.00    +0.000 C 
ATOM     17  O   UNL     1       0.528  10.540  21.232  0.00  0.00    +0.000 OA
BRANCH  16  20
ATOM     18  C   UNL     1      -2.639  10.416  17.705  0.00  0.00    +0.000 A 
ATOM     19  C   UNL     1      -1.378  10.100  18.245  0.00  0.00    +0.000 A 
ATOM     20  C   UNL     1      -0.927  10.712  19.413  0.00  0.00    +0.000 A 
ATOM     21  C   UNL     1      -1.683  11.740  19.972  0.00  0.00    +0.000 A 
ATOM     22  C   UNL     1      -2.934  12.089  19.442  0.00  0.00    +0.000 A 
ATOM     23  C   UNL     1      -3.433  11.425  18.300  0.00  0.00    +0.000 A 
BRANCH  18  25
ATOM     24  C   UNL     1      -2.830  10.392  15.328  0.00  0.00    +0.000 C 
ATOM     25  O   UNL     1      -3.098   9.775  16.585  0.00  0.00    +0.000 OA
ENDBRANCH  18  25
BRANCH  22  26
ATOM     26  O   UNL     1      -3.529  13.066  20.202  0.00  0.00    +0.000 OA
ATOM     27  C   UNL     1      -3.179  13.218  21.565  0.00  0.00    +0.000 C 
ENDBRANCH  22  26
BRANCH  23  28
ATOM     28  O   UNL     1      -4.654  11.848  17.846  0.00  0.00    +0.000 OA
ATOM     29  C   UNL     1      -5.839  11.144  18.165  0.00  0.00    +0.000 C 
ENDBRANCH  23  28
ENDBRANCH  16  20
ENDBRANCH   1  16
TORSDOF 6
ENDMDL
MODEL 2
REMARK VINA RESULT:      -6.7      0.288      2.449
REMARK  Name = 
REMARK  10 active torsions:
REMARK  status: ('A' for Active; 'I' for Inactive)
REMARK    1  A    between atoms: C_1  and  O_2
REMARK    2  A    between atoms: O_2  and  C_3
REMARK    3  A    between atoms: C_5  and  C_6
REMARK    4  A    between atoms: C_6  and  C_8
REMARK    5  A    between atoms: C_9  and  N_10
REMARK    6  A    between atoms: C_17  and  C_18
REMARK    7  A    between atoms: C_22  and  O_23
REMARK    8  A    between atoms: O_23  and  C_24
REMARK    9  A    between atoms: C_25  and  O_26
REMARK   10  A    between atoms: O_26  and  C_27
REMARK                            x       y       z     vdW  Elec       q    Type
REMARK                         _______ _______ _______ _____ _____    ______ ____
ROOT
ATOM      1  C   UNL     1       1.305   9.399  19.350  0.00  0.00    +0.000 A 
ATOM      2  C   UNL     1       2.017   9.790  18.216  0.00  0.00    +0.000 A 
ATOM      3  S   UNL     1       2.896   8.495  17.515  0.00  0.00    +0.000 S 
ATOM      4  C   UNL     1       2.454   7.431  18.753  0.00  0.00    +0.000 A 
ATOM      5  C   UNL     1       1.634   8.027  19.694  0.00  0.00    +0.000 A 
ATOM      6  C   UNL     1       1.131   7.224  20.873  0.00  0.00    +0.000 C 
ATOM      7  C   UNL     1       1.862   5.871  20.988  0.00  0.00    +0.000 C 
ATOM      8  N   UNL     1       2.077   5.247  19.670  0.00  0.00    +0.000 N 
ATOM      9  C   UNL     1       1.425   4.063  19.370  0.00  0.00    +0.000 C 
ATOM     10  C   UNL     1       1.618   3.405  18.026  0.00  0.00    +0.000 C 
ATOM     11  O   UNL     1       0.689   3.511  20.189  0.00  0.00    +0.000 OA
ATOM     12  C   UNL     1       2.945   6.017  18.774  0.00  0.00    +0.000 C 
ENDROOT
BRANCH   2  13
ATOM     13  N   UNL     1       2.117  10.993  17.611  0.00  0.00    +0.000 N 
ATOM     14  H   UNL     1       1.786  11.869  17.999  0.00  0.00    +0.000 HD
ATOM     15  H   UNL     1       2.407  11.045  16.640  0.00  0.00    +0.000 HD
ENDBRANCH   2  13
BRANCH   1  16
ATOM     16  C   UNL     1       0.395  10.254  20.136  0.00  0.00    +0.000 C 
ATOM     17  O   UNL     1       0.710  10.692  21.246  0.00  0.00    +0.000 OA
BRANCH  16  20
ATOM     18  C   UNL     1      -2.844  12.155  19.630  0.00  0.00    +0.000 A 
ATOM     19  C   UNL     1      -1.661  11.658  20.207  0.00  0.00    +0.000 A 
ATOM     20  C   UNL     1      -0.949  10.625  19.602  0.00  0.00    +0.000 A 
ATOM     21  C   UNL     1      -1.492   9.996  18.484  0.00  0.00    +0.000 A 
ATOM     22  C   UNL     1      -2.682  10.457  17.899  0.00  0.00    +0.000 A 
ATOM     23  C   UNL     1      -3.372  11.551  18.465  0.00  0.00    +0.000 A 
BRANCH  18  25
ATOM     24  C   UNL     1      -4.383  12.904  21.291  0.00  0.00    +0.000 C 
ATOM     25  O   UNL     1      -3.512  13.205  20.203  0.00  0.00    +0.000 OA
ENDBRANCH  18  25
BRANCH  22  26
ATOM     26  O   UNL     1      -2.979   9.740  16.767  0.00  0.00    +0.000 OA
ATOM     27  C   UNL     1      -2.708  10.286  15.489  0.00  0.00    +0.000 C 
ENDBRANCH  22  26
BRANCH  23  28
ATOM     28  O   UNL     1      -4.532  11.917  17.835  0.00  0.00    +0.000 OA
ATOM     29  C   UNL     1      -5.763  11.289  18.141  0.00  0.00    +0.000 C 
ENDBRANCH  23  28
ENDBRANCH  16  20
ENDBRANCH   1  16
TORSDOF 6
ENDMDL
MODEL 3
REMARK VINA RESULT:      -6.6      4.511      9.110
REMARK  Name = 
REMARK  10 active torsions:
REMARK  status: ('A' for Active; 'I' for Inactive)
REMARK    1  A    between atoms: C_1  and  O_2
REMARK    2  A    between atoms: O_2  and  C_3
REMARK    3  A    between atoms: C_5  and  C_6
REMARK    4  A    between atoms: C_6  and  C_8
REMARK    5  A    between atoms: C_9  and  N_10
REMARK    6  A    between atoms: C_17  and  C_18
REMARK    7  A    between atoms: C_22  and  O_23
REMARK    8  A    between atoms: O_23  and  C_24
REMARK    9  A    between atoms: C_25  and  O_26
REMARK   10  A    between atoms: O_26  and  C_27
REMARK                            x       y       z     vdW  Elec       q    Type
REMARK                         _______ _______ _______ _____ _____    ______ ____
ROOT
ATOM      1  C   UNL     1       2.938   4.712  18.465  0.00  0.00    +0.000 A 
ATOM      2  C   UNL     1       2.830   4.113  19.721  0.00  0.00    +0.000 A 
ATOM      3  S   UNL     1       2.325   5.217  20.931  0.00  0.00    +0.000 S 
ATOM      4  C   UNL     1       2.355   6.521  19.856  0.00  0.00    +0.000 A 
ATOM      5  C   UNL     1       2.727   6.144  18.579  0.00  0.00    +0.000 A 
ATOM      6  C   UNL     1       2.802   7.179  17.478  0.00  0.00    +0.000 C 
ATOM      7  C   UNL     1       2.701   8.612  18.041  0.00  0.00    +0.000 C 
ATOM      8  N   UNL     1       1.702   8.709  19.121  0.00  0.00    +0.000 N 
ATOM      9  C   UNL     1       0.563   9.470  18.918  0.00  0.00    +0.000 C 
ATOM     10  C   UNL     1      -0.482   9.583  20.000  0.00  0.00    +0.000 C 
ATOM     11  O   UNL     1       0.380  10.083  17.866  0.00  0.00    +0.000 OA
ATOM     12  C   UNL     1       2.017   7.908  20.308  0.00  0.00    +0.000 C 
ENDROOT
BRANCH   2  13
ATOM     13  N   UNL     1       3.059   2.841  20.112  0.00  0.00    +0.000 N 
ATOM     14  H   UNL     1       2.708   2.015  19.640  0.00  0.00    +0.000 HD
ATOM     15  H   UNL     1       3.487   2.662  21.014  0.00  0.00    +0.000 HD
ENDBRANCH   2  13
BRANCH   1  16
ATOM     16  C   UNL     1       3.276   4.022  17.205  0.00  0.00    +0.000 C 
ATOM     17  O   UNL     1       2.512   3.205  16.685  0.00  0.00    +0.000 OA
BRANCH  16  20
ATOM     18  C   UNL     1       5.908   4.151  14.482  0.00  0.00    +0.000 A 
ATOM     19  C   UNL     1       4.787   3.769  15.241  0.00  0.00    +0.000 A 
ATOM     20  C   UNL     1       4.568   4.302  16.510  0.00  0.00    +0.000 A 
ATOM     21  C   UNL     1       5.542   5.119  17.077  0.00  0.00    +0.000 A 
ATOM     22  C   UNL     1       6.681   5.500  16.349  0.00  0.00    +0.000 A 
ATOM     23  C   UNL     1       6.876   5.023  15.035  0.00  0.00    +0.000 A 
BRANCH  18  25
ATOM     24  C   UNL     1       4.925   3.489  12.413  0.00  0.00    +0.000 C 
ATOM     25  O   UNL     1       6.091   3.663  13.215  0.00  0.00    +0.000 OA
ENDBRANCH  18  25
BRANCH  22  26
ATOM     26  O   UNL     1       7.456   6.369  17.076  0.00  0.00    +0.000 OA
ATOM     27  C   UNL     1       7.678   6.140  18.456  0.00  0.00    +0.000 C 
ENDBRANCH  22  26
BRANCH  23  28
ATOM     28  O   UNL     1       8.024   5.434  14.413  0.00  0.00    +0.000 OA
ATOM     29  C   UNL     1       8.100   5.536  13.003  0.00  0.00    +0.000 C 
ENDBRANCH  23  28
ENDBRANCH  16  20
ENDBRANCH   1  16
TORSDOF 6
ENDMDL
MODEL 4
REMARK VINA RESULT:      -6.6      2.690      8.422
REMARK  Name = 
REMARK  10 active torsions:
REMARK  status: ('A' for Active; 'I' for Inactive)
REMARK    1  A    between atoms: C_1  and  O_2
REMARK    2  A    between atoms: O_2  and  C_3
REMARK    3  A    between atoms: C_5  and  C_6
REMARK    4  A    between atoms: C_6  and  C_8
REMARK    5  A    between atoms: C_9  and  N_10
REMARK    6  A    between atoms: C_17  and  C_18
REMARK    7  A    between atoms: C_22  and  O_23
REMARK    8  A    between atoms: O_23  and  C_24
REMARK    9  A    between atoms: C_25  and  O_26
REMARK   10  A    between atoms: O_26  and  C_27
REMARK                            x       y       z     vdW  Elec       q    Type
REMARK                         _______ _______ _______ _____ _____    ______ ____
ROOT
ATOM      1  C   UNL     1       1.900   8.275  19.314  0.00  0.00    +0.000 A 
ATOM      2  C   UNL     1       1.630   7.624  20.518  0.00  0.00    +0.000 A 
ATOM      3  S   UNL     1       0.790   8.623  21.629  0.00  0.00    +0.000 S 
ATOM      4  C   UNL     1       0.872   9.961  20.598  0.00  0.00    +0.000 A 
ATOM      5  C   UNL     1       1.513   9.672  19.408  0.00  0.00    +0.000 A 
ATOM      6  C   UNL     1       1.675  10.747  18.357  0.00  0.00    +0.000 C 
ATOM      7  C   UNL     1       1.312  12.140  18.913  0.00  0.00    +0.000 C 
ATOM      8  N   UNL     1       0.127  12.092  19.788  0.00  0.00    +0.000 N 
ATOM      9  C   UNL     1      -1.033  12.734  19.387  0.00  0.00    +0.000 C 
ATOM     10  C   UNL     1      -2.265  12.696  20.256  0.00  0.00    +0.000 C 
ATOM     11  O   UNL     1      -1.086  13.361  18.328  0.00  0.00    +0.000 OA
ATOM     12  C   UNL     1       0.305  11.287  21.000  0.00  0.00    +0.000 C 
ENDROOT
BRANCH   2  13
ATOM     13  N   UNL     1       1.923   6.370  20.925  0.00  0.00    +0.000 N 
ATOM     14  H   UNL     1       2.325   6.130  21.825  0.00  0.00    +0.000 HD
ATOM     15  H   UNL     1       1.887   5.604  20.261  0.00  0.00    +0.000 HD
ENDBRANCH   2  13
BRANCH   1  16
ATOM     16  C   UNL     1       2.539   7.671  18.129  0.00  0.00    +0.000 C 
ATOM     17  O   UNL     1       2.703   8.305  17.084  0.00  0.00    +0.000 OA
BRANCH  16  20
ATOM     18  C   UNL     1       4.786   4.677  18.723  0.00  0.00    +0.000 A 
ATOM     19  C   UNL     1       4.343   5.996  18.508  0.00  0.00    +0.000 A 
ATOM     20  C   UNL     1       3.019   6.257  18.163  0.00  0.00    +0.000 A 
ATOM     21  C   UNL     1       2.165   5.188  17.904  0.00  0.00    +0.000 A 
ATOM     22  C   UNL     1       2.586   3.862  18.091  0.00  0.00    +0.000 A 
ATOM     23  C   UNL     1       3.907   3.590  18.511  0.00  0.00    +0.000 A 
BRANCH  18  25
ATOM     24  C   UNL     1       6.940   5.557  19.248  0.00  0.00    +0.000 C 
ATOM     25  O   UNL     1       6.076   4.431  19.112  0.00  0.00    +0.000 OA
ENDBRANCH  18  25
BRANCH  22  26
ATOM     26  O   UNL     1       1.557   2.985  17.855  0.00  0.00    +0.000 OA
ATOM     27  C   UNL     1       0.752   2.529  18.927  0.00  0.00    +0.000 C 
ENDBRANCH  22  26
BRANCH  23  28
ATOM     28  O   UNL     1       4.231   2.266  18.648  0.00  0.00    +0.000 OA
ATOM     29  C   UNL     1       4.397   1.679  19.925  0.00  0.00    +0.000 C 
ENDBRANCH  23  28
ENDBRANCH  16  20
ENDBRANCH   1  16
TORSDOF 6
ENDMDL
MODEL 5
REMARK VINA RESULT:      -6.5      4.510      9.385
REMARK  Name = 
REMARK  10 active torsions:
REMARK  status: ('A' for Active; 'I' for Inactive)
REMARK    1  A    between atoms: C_1  and  O_2
REMARK    2  A    between atoms: O_2  and  C_3
REMARK    3  A    between atoms: C_5  and  C_6
REMARK    4  A    between atoms: C_6  and  C_8
REMARK    5  A    between atoms: C_9  and  N_10
REMARK    6  A    between atoms: C_17  and  C_18
REMARK    7  A    between atoms: C_22  and  O_23
REMARK    8  A    between atoms: O_23  and  C_24
REMARK    9  A    between atoms: C_25  and  O_26
REMARK   10  A    between atoms: O_26  and  C_27
REMARK                            x       y       z     vdW  Elec       q    Type
REMARK                         _______ _______ _______ _____ _____    ______ ____
ROOT
ATOM      1  C   UNL     1       2.922   4.817  18.417  0.00  0.00    +0.000 A 
ATOM      2  C   UNL     1       2.867   4.218  19.676  0.00  0.00    +0.000 A 
ATOM      3  S   UNL     1       2.360   5.309  20.898  0.00  0.00    +0.000 S 
ATOM      4  C   UNL     1       2.321   6.611  19.820  0.00  0.00    +0.000 A 
ATOM      5  C   UNL     1       2.671   6.243  18.535  0.00  0.00    +0.000 A 
ATOM      6  C   UNL     1       2.685   7.277  17.431  0.00  0.00    +0.000 C 
ATOM      7  C   UNL     1       2.555   8.707  17.995  0.00  0.00    +0.000 C 
ATOM      8  N   UNL     1       1.583   8.776  19.100  0.00  0.00    +0.000 N 
ATOM      9  C   UNL     1       0.416   9.502  18.927  0.00  0.00    +0.000 C 
ATOM     10  C   UNL     1      -0.602   9.585  20.037  0.00  0.00    +0.000 C 
ATOM     11  O   UNL     1       0.186  10.107  17.879  0.00  0.00    +0.000 OA
ATOM     12  C   UNL     1       1.954   7.988  20.279  0.00  0.00    +0.000 C 
ENDROOT
BRANCH   2  13
ATOM     13  N   UNL     1       3.145   2.955  20.063  0.00  0.00    +0.000 N 
ATOM     14  H   UNL     1       3.238   2.648  21.025  0.00  0.00    +0.000 HD
ATOM     15  H   UNL     1       3.429   2.268  19.372  0.00  0.00    +0.000 HD
ENDBRANCH   2  13
BRANCH   1  16
ATOM     16  C   UNL     1       3.247   4.135  17.150  0.00  0.00    +0.000 C 
ATOM     17  O   UNL     1       2.532   3.242  16.689  0.00  0.00    +0.000 OA
BRANCH  16  20
ATOM     18  C   UNL     1       6.609   5.669  16.308  0.00  0.00    +0.000 A 
ATOM     19  C   UNL     1       5.369   5.420  16.925  0.00  0.00    +0.000 A 
ATOM     20  C   UNL     1       4.464   4.516  16.373  0.00  0.00    +0.000 A 
ATOM     21  C   UNL     1       4.743   3.956  15.129  0.00  0.00    +0.000 A 
ATOM     22  C   UNL     1       5.964   4.202  14.481  0.00  0.00    +0.000 A 
ATOM     23  C   UNL     1       6.918   5.061  15.068  0.00  0.00    +0.000 A 
BRANCH  18  25
ATOM     24  C   UNL     1       7.666   6.448  18.298  0.00  0.00    +0.000 C 
ATOM     25  O   UNL     1       7.515   6.520  16.882  0.00  0.00    +0.000 OA
ENDBRANCH  18  25
BRANCH  22  26
ATOM     26  O   UNL     1       6.051   3.483  13.315  0.00  0.00    +0.000 OA
ATOM     27  C   UNL     1       4.958   3.454  12.415  0.00  0.00    +0.000 C 
ENDBRANCH  22  26
BRANCH  23  28
ATOM     28  O   UNL     1       8.070   5.255  14.353  0.00  0.00    +0.000 OA
ATOM     29  C   UNL     1       8.033   5.603  12.982  0.00  0.00    +0.000 C 
ENDBRANCH  23  28
ENDBRANCH  16  20
ENDBRANCH   1  16
TORSDOF 6
ENDMDL
MODEL 6
REMARK VINA RESULT:      -6.4      2.222      2.713
REMARK  Name = 
REMARK  10 active torsions:
REMARK  status: ('A' for Active; 'I' for Inactive)
REMARK    1  A    between atoms: C_1  and  O_2
REMARK    2  A    between atoms: O_2  and  C_3
REMARK    3  A    between atoms: C_5  and  C_6
REMARK    4  A    between atoms: C_6  and  C_8
REMARK    5  A    between atoms: C_9  and  N_10
REMARK    6  A    between atoms: C_17  and  C_18
REMARK    7  A    between atoms: C_22  and  O_23
REMARK    8  A    between atoms: O_23  and  C_24
REMARK    9  A    between atoms: C_25  and  O_26
REMARK   10  A    between atoms: O_26  and  C_27
REMARK                            x       y       z     vdW  Elec       q    Type
REMARK                         _______ _______ _______ _____ _____    ______ ____
ROOT
ATOM      1  C   UNL     1       1.214   9.159  19.659  0.00  0.00    +0.000 A 
ATOM      2  C   UNL     1       0.754   8.600  20.851  0.00  0.00    +0.000 A 
ATOM      3  S   UNL     1       1.432   7.055  21.155  0.00  0.00    +0.000 S 
ATOM      4  C   UNL     1       2.245   7.041  19.672  0.00  0.00    +0.000 A 
ATOM      5  C   UNL     1       2.032   8.196  18.943  0.00  0.00    +0.000 A 
ATOM      6  C   UNL     1       2.686   8.365  17.590  0.00  0.00    +0.000 C 
ATOM      7  C   UNL     1       3.312   7.045  17.095  0.00  0.00    +0.000 C 
ATOM      8  N   UNL     1       3.978   6.309  18.184  0.00  0.00    +0.000 N 
ATOM      9  C   UNL     1       5.353   6.148  18.146  0.00  0.00    +0.000 C 
ATOM     10  C   UNL     1       6.065   5.407  19.251  0.00  0.00    +0.000 C 
ATOM     11  O   UNL     1       6.025   6.585  17.211  0.00  0.00    +0.000 OA
ATOM     12  C   UNL     1       3.077   5.868  19.253  0.00  0.00    +0.000 C 
ENDROOT
BRANCH   2  13
ATOM     13  N   UNL     1      -0.117   9.075  21.768  0.00  0.00    +0.000 N 
ATOM     14  H   UNL     1      -1.065   9.374  21.570  0.00  0.00    +0.000 HD
ATOM     15  H   UNL     1       0.209   9.298  22.702  0.00  0.00    +0.000 HD
ENDBRANCH   2  13
BRANCH   1  16
ATOM     16  C   UNL     1       0.882  10.503  19.151  0.00  0.00    +0.000 C 
ATOM     17  O   UNL     1       1.732  11.392  19.056  0.00  0.00    +0.000 OA
BRANCH  16  20
ATOM     18  C   UNL     1      -2.421  10.318  17.301  0.00  0.00    +0.000 A 
ATOM     19  C   UNL     1      -1.060  10.169  17.627  0.00  0.00    +0.000 A 
ATOM     20  C   UNL     1      -0.512  10.831  18.723  0.00  0.00    +0.000 A 
ATOM     21  C   UNL     1      -1.294  11.748  19.420  0.00  0.00    +0.000 A 
ATOM     22  C   UNL     1      -2.649  11.932  19.104  0.00  0.00    +0.000 A 
ATOM     23  C   UNL     1      -3.234  11.211  18.039  0.00  0.00    +0.000 A 
BRANCH  18  25
ATOM     24  C   UNL     1      -2.898  10.235  14.966  0.00  0.00    +0.000 C 
ATOM     25  O   UNL     1      -2.967   9.625  16.253  0.00  0.00    +0.000 OA
ENDBRANCH  18  25
BRANCH  22  26
ATOM     26  O   UNL     1      -3.237  12.819  19.971  0.00  0.00    +0.000 OA
ATOM     27  C   UNL     1      -2.859  12.834  21.336  0.00  0.00    +0.000 C 
ENDBRANCH  22  26
BRANCH  23  28
ATOM     28  O   UNL     1      -4.556  11.471  17.795  0.00  0.00    +0.000 OA
ATOM     29  C   UNL     1      -5.580  10.742  18.445  0.00  0.00    +0.000 C 
ENDBRANCH  23  28
ENDBRANCH  16  20
ENDBRANCH   1  16
TORSDOF 6
ENDMDL
MODEL 7
REMARK VINA RESULT:      -6.4      2.277      3.738
REMARK  Name = 
REMARK  10 active torsions:
REMARK  status: ('A' for Active; 'I' for Inactive)
REMARK    1  A    between atoms: C_1  and  O_2
REMARK    2  A    between atoms: O_2  and  C_3
REMARK    3  A    between atoms: C_5  and  C_6
REMARK    4  A    between atoms: C_6  and  C_8
REMARK    5  A    between atoms: C_9  and  N_10
REMARK    6  A    between atoms: C_17  and  C_18
REMARK    7  A    between atoms: C_22  and  O_23
REMARK    8  A    between atoms: O_23  and  C_24
REMARK    9  A    between atoms: C_25  and  O_26
REMARK   10  A    between atoms: O_26  and  C_27
REMARK                            x       y       z     vdW  Elec       q    Type
REMARK                         _______ _______ _______ _____ _____    ______ ____
ROOT
ATOM      1  C   UNL     1       1.361   8.885  19.517  0.00  0.00    +0.000 A 
ATOM      2  C   UNL     1       0.897   8.303  20.698  0.00  0.00    +0.000 A 
ATOM      3  S   UNL     1       1.653   6.801  21.029  0.00  0.00    +0.000 S 
ATOM      4  C   UNL     1       2.512   6.831  19.573  0.00  0.00    +0.000 A 
ATOM      5  C   UNL     1       2.255   7.969  18.831  0.00  0.00    +0.000 A 
ATOM      6  C   UNL     1       2.941   8.172  17.499  0.00  0.00    +0.000 C 
ATOM      7  C   UNL     1       3.657   6.889  17.030  0.00  0.00    +0.000 C 
ATOM      8  N   UNL     1       4.330   6.196  18.143  0.00  0.00    +0.000 N 
ATOM      9  C   UNL     1       5.713   6.114  18.148  0.00  0.00    +0.000 C 
ATOM     10  C   UNL     1       6.431   5.419  19.278  0.00  0.00    +0.000 C 
ATOM     11  O   UNL     1       6.387   6.588  17.233  0.00  0.00    +0.000 OA
ATOM     12  C   UNL     1       3.423   5.707  19.186  0.00  0.00    +0.000 C 
ENDROOT
BRANCH   2  13
ATOM     13  N   UNL     1      -0.028   8.730  21.585  0.00  0.00    +0.000 N 
ATOM     14  H   UNL     1      -1.031   8.697  21.441  0.00  0.00    +0.000 HD
ATOM     15  H   UNL     1       0.264   9.258  22.401  0.00  0.00    +0.000 HD
ENDBRANCH   2  13
BRANCH   1  16
ATOM     16  C   UNL     1       0.967  10.206  18.993  0.00  0.00    +0.000 C 
ATOM     17  O   UNL     1       1.798  11.087  18.758  0.00  0.00    +0.000 OA
BRANCH  16  20
ATOM     18  C   UNL     1      -2.415  11.905  19.185  0.00  0.00    +0.000 A 
ATOM     19  C   UNL     1      -1.124  11.453  19.517  0.00  0.00    +0.000 A 
ATOM     20  C   UNL     1      -0.468  10.519  18.719  0.00  0.00    +0.000 A 
ATOM     21  C   UNL     1      -1.155   9.933  17.659  0.00  0.00    +0.000 A 
ATOM     22  C   UNL     1      -2.451  10.350  17.318  0.00  0.00    +0.000 A 
ATOM     23  C   UNL     1      -3.098  11.350  18.077  0.00  0.00    +0.000 A 
BRANCH  18  25
ATOM     24  C   UNL     1      -2.215  13.615  20.835  0.00  0.00    +0.000 C 
ATOM     25  O   UNL     1      -3.035  12.862  19.944  0.00  0.00    +0.000 OA
ENDBRANCH  18  25
BRANCH  22  26
ATOM     26  O   UNL     1      -2.894   9.696  16.195  0.00  0.00    +0.000 OA
ATOM     27  C   UNL     1      -2.908  10.361  14.945  0.00  0.00    +0.000 C 
ENDBRANCH  22  26
BRANCH  23  28
ATOM     28  O   UNL     1      -4.367  11.677  17.679  0.00  0.00    +0.000 OA
ATOM     29  C   UNL     1      -5.496  10.997  18.196  0.00  0.00    +0.000 C 
ENDBRANCH  23  28
ENDBRANCH  16  20
ENDBRANCH   1  16
TORSDOF 6
ENDMDL
MODEL 8
REMARK VINA RESULT:      -6.3      3.428      8.736
REMARK  Name = 
REMARK  10 active torsions:
REMARK  status: ('A' for Active; 'I' for Inactive)
REMARK    1  A    between atoms: C_1  and  O_2
REMARK    2  A    between atoms: O_2  and  C_3
REMARK    3  A    between atoms: C_5  and  C_6
REMARK    4  A    between atoms: C_6  and  C_8
REMARK    5  A    between atoms: C_9  and  N_10
REMARK    6  A    between atoms: C_17  and  C_18
REMARK    7  A    between atoms: C_22  and  O_23
REMARK    8  A    between atoms: O_23  and  C_24
REMARK    9  A    between atoms: C_25  and  O_26
REMARK   10  A    between atoms: O_26  and  C_27
REMARK                            x       y       z     vdW  Elec       q    Type
REMARK                         _______ _______ _______ _____ _____    ______ ____
ROOT
ATOM      1  C   UNL     1       1.836   7.696  19.322  0.00  0.00    +0.000 A 
ATOM      2  C   UNL     1       1.650   7.253  20.632  0.00  0.00    +0.000 A 
ATOM      3  S   UNL     1       1.064   8.489  21.665  0.00  0.00    +0.000 S 
ATOM      4  C   UNL     1       1.159   9.654  20.443  0.00  0.00    +0.000 A 
ATOM      5  C   UNL     1       1.614   9.130  19.248  0.00  0.00    +0.000 A 
ATOM      6  C   UNL     1       1.757  10.025  18.037  0.00  0.00    +0.000 C 
ATOM      7  C   UNL     1       1.614  11.514  18.415  0.00  0.00    +0.000 C 
ATOM      8  N   UNL     1       0.547  11.730  19.408  0.00  0.00    +0.000 N 
ATOM      9  C   UNL     1      -0.579  12.448  19.042  0.00  0.00    +0.000 C 
ATOM     10  C   UNL     1      -1.692  12.678  20.035  0.00  0.00    +0.000 C 
ATOM     11  O   UNL     1      -0.696  12.928  17.914  0.00  0.00    +0.000 OA
ATOM     12  C   UNL     1       0.787  11.082  20.701  0.00  0.00    +0.000 C 
ENDROOT
BRANCH   2  13
ATOM     13  N   UNL     1       1.858   6.040  21.188  0.00  0.00    +0.000 N 
ATOM     14  H   UNL     1       2.763   5.593  21.289  0.00  0.00    +0.000 HD
ATOM     15  H   UNL     1       1.066   5.442  21.400  0.00  0.00    +0.000 HD
ENDBRANCH   2  13
BRANCH   1  16
ATOM     16  C   UNL     1       2.258   6.864  18.180  0.00  0.00    +0.000 C 
ATOM     17  O   UNL     1       1.501   6.622  17.236  0.00  0.00    +0.000 OA
BRANCH  16  20
ATOM     18  C   UNL     1       5.975   6.552  17.511  0.00  0.00    +0.000 A 
ATOM     19  C   UNL     1       4.633   6.968  17.437  0.00  0.00    +0.000 A 
ATOM     20  C   UNL     1       3.634   6.286  18.127  0.00  0.00    +0.000 A 
ATOM     21  C   UNL     1       3.957   5.104  18.790  0.00  0.00    +0.000 A 
ATOM     22  C   UNL     1       5.285   4.655  18.863  0.00  0.00    +0.000 A 
ATOM     23  C   UNL     1       6.316   5.380  18.227  0.00  0.00    +0.000 A 
BRANCH  18  25
ATOM     24  C   UNL     1       7.616   8.279  17.618  0.00  0.00    +0.000 C 
ATOM     25  O   UNL     1       6.960   7.257  16.871  0.00  0.00    +0.000 OA
ENDBRANCH  18  25
BRANCH  22  26
ATOM     26  O   UNL     1       5.374   3.522  19.632  0.00  0.00    +0.000 OA
ATOM     27  C   UNL     1       4.305   2.593  19.656  0.00  0.00    +0.000 C 
ENDBRANCH  22  26
BRANCH  23  28
ATOM     28  O   UNL     1       7.575   4.854  18.338  0.00  0.00    +0.000 OA
ATOM     29  C   UNL     1       8.435   5.226  19.399  0.00  0.00    +0.000 C 
ENDBRANCH  23  28
ENDBRANCH  16  20
ENDBRANCH   1  16
TORSDOF 6
ENDMDL
MODEL 9
REMARK VINA RESULT:      -6.3      2.891      8.393
REMARK  Name = 
REMARK  10 active torsions:
REMARK  status: ('A' for Active; 'I' for Inactive)
REMARK    1  A    between atoms: C_1  and  O_2
REMARK    2  A    between atoms: O_2  and  C_3
REMARK    3  A    between atoms: C_5  and  C_6
REMARK    4  A    between atoms: C_6  and  C_8
REMARK    5  A    between atoms: C_9  and  N_10
REMARK    6  A    between atoms: C_17  and  C_18
REMARK    7  A    between atoms: C_22  and  O_23
REMARK    8  A    between atoms: O_23  and  C_24
REMARK    9  A    between atoms: C_25  and  O_26
REMARK   10  A    between atoms: O_26  and  C_27
REMARK                            x       y       z     vdW  Elec       q    Type
REMARK                         _______ _______ _______ _____ _____    ______ ____
ROOT
ATOM      1  C   UNL     1       1.837   8.446  19.400  0.00  0.00    +0.000 A 
ATOM      2  C   UNL     1       1.508   7.866  20.626  0.00  0.00    +0.000 A 
ATOM      3  S   UNL     1       0.739   8.971  21.687  0.00  0.00    +0.000 S 
ATOM      4  C   UNL     1       0.933  10.257  20.605  0.00  0.00    +0.000 A 
ATOM      5  C   UNL     1       1.559   9.871  19.434  0.00  0.00    +0.000 A 
ATOM      6  C   UNL     1       1.811  10.888  18.344  0.00  0.00    +0.000 C 
ATOM      7  C   UNL     1       1.553  12.326  18.840  0.00  0.00    +0.000 C 
ATOM      8  N   UNL     1       0.361  12.404  19.703  0.00  0.00    +0.000 N 
ATOM      9  C   UNL     1      -0.742  13.117  19.264  0.00  0.00    +0.000 C 
ATOM     10  C   UNL     1      -1.981  13.209  20.121  0.00  0.00    +0.000 C 
ATOM     11  O   UNL     1      -0.738  13.704  18.182  0.00  0.00    +0.000 OA
ATOM     12  C   UNL     1       0.466  11.638  20.948  0.00  0.00    +0.000 C 
ENDROOT
BRANCH   2  13
ATOM     13  N   UNL     1       1.700   6.612  21.085  0.00  0.00    +0.000 N 
ATOM     14  H   UNL     1       1.385   6.267  21.986  0.00  0.00    +0.000 HD
ATOM     15  H   UNL     1       2.322   5.983  20.588  0.00  0.00    +0.000 HD
ENDBRANCH   2  13
BRANCH   1  16
ATOM     16  C   UNL     1       2.437   7.748  18.247  0.00  0.00    +0.000 C 
ATOM     17  O   UNL     1       2.599   8.307  17.160  0.00  0.00    +0.000 OA
BRANCH  16  20
ATOM     18  C   UNL     1       2.392   3.965  18.011  0.00  0.00    +0.000 A 
ATOM     19  C   UNL     1       1.971   5.306  18.083  0.00  0.00    +0.000 A 
ATOM     20  C   UNL     1       2.877   6.325  18.366  0.00  0.00    +0.000 A 
ATOM     21  C   UNL     1       4.185   5.991  18.709  0.00  0.00    +0.000 A 
ATOM     22  C   UNL     1       4.627   4.659  18.665  0.00  0.00    +0.000 A 
ATOM     23  C   UNL     1       3.733   3.626  18.308  0.00  0.00    +0.000 A 
BRANCH  18  25
ATOM     24  C   UNL     1       0.753   2.397  18.746  0.00  0.00    +0.000 C 
ATOM     25  O   UNL     1       1.506   2.974  17.681  0.00  0.00    +0.000 OA
ENDBRANCH  18  25
BRANCH  22  26
ATOM     26  O   UNL     1       5.965   4.580  18.961  0.00  0.00    +0.000 OA
ATOM     27  C   UNL     1       6.930   4.744  17.937  0.00  0.00    +0.000 C 
ENDBRANCH  22  26
BRANCH  23  28
ATOM     28  O   UNL     1       4.251   2.358  18.311  0.00  0.00    +0.000 OA
ATOM     29  C   UNL     1       4.324   1.598  19.503  0.00  0.00    +0.000 C 
ENDBRANCH  23  28
ENDBRANCH  16  20
ENDBRANCH   1  16
TORSDOF 6
ENDMDL
