MODEL 1
REMARK VINA RESULT:      -8.9      0.000      0.000
REMARK  Name = 
REMARK  1 active torsions:
REMARK  status: ('A' for Active; 'I' for Inactive)
REMARK    1  A    between atoms: C_14  and  C_15
REMARK                            x       y       z     vdW  Elec       q    Type
REMARK                         _______ _______ _______ _____ _____    ______ ____
ROOT
ATOM      1  F   UNL     1       6.491   3.904  13.872  0.00  0.00    +0.000 F 
ATOM      2  C   UNL     1       6.249   4.254  15.145  0.00  0.00    +0.000 A 
ATOM      3  C   UNL     1       7.122   5.105  15.801  0.00  0.00    +0.000 A 
ATOM      4  C   UNL     1       6.847   5.454  17.118  0.00  0.00    +0.000 A 
ATOM      5  F   UNL     1       7.693   6.277  17.755  0.00  0.00    +0.000 F 
ATOM      6  C   UNL     1       5.703   4.980  17.788  0.00  0.00    +0.000 A 
ATOM      7  C   UNL     1       4.855   4.078  17.118  0.00  0.00    +0.000 A 
ATOM      8  C   UNL     1       5.129   3.734  15.785  0.00  0.00    +0.000 A 
ATOM      9  C   UNL     1       3.687   3.446  17.818  0.00  0.00    +0.000 C 
ATOM     10  C   UNL     1       2.313   3.839  17.349  0.00  0.00    +0.000 C 
ATOM     11  C   UNL     1       1.442   3.852  18.369  0.00  0.00    +0.000 C 
ATOM     12  C   UNL     1       2.127   3.509  19.656  0.00  0.00    +0.000 C 
ATOM     13  C   UNL     1       3.602   3.769  19.320  0.00  0.00    +0.000 C 
ATOM     14  C   UNL     1       4.110   5.206  19.626  0.00  0.00    +0.000 C 
ATOM     15  N   UNL     1       5.500   5.324  19.146  0.00  0.00    +0.000 N 
ATOM     16  H   UNL     1       5.883   6.256  19.306  0.00  0.00    +0.000 HD
ENDROOT
BRANCH  14  17
ATOM     17  C   UNL     1       3.222   6.378  19.166  0.00  0.00    +0.000 A 
ATOM     18  C   UNL     1       3.474   6.992  17.937  0.00  0.00    +0.000 A 
ATOM     19  C   UNL     1       2.816   8.180  17.621  0.00  0.00    +0.000 A 
ATOM     20  C   UNL     1       1.901   8.713  18.518  0.00  0.00    +0.000 A 
ATOM     21  C   UNL     1       1.650   8.013  19.682  0.00  0.00    +0.000 A 
ATOM     22  N   UNL     1       2.277   6.865  20.016  0.00  0.00    +0.000 NA
ENDBRANCH  14  17
TORSDOF 1
ENDMDL
MODEL 2
REMARK VINA RESULT:      -8.8      1.200      1.747
REMARK  Name = 
REMARK  1 active torsions:
REMARK  status: ('A' for Active; 'I' for Inactive)
REMARK    1  A    between atoms: C_14  and  C_15
REMARK                            x       y       z     vdW  Elec       q    Type
REMARK                         _______ _______ _______ _____ _____    ______ ____
ROOT
ATOM      1  F   UNL     1       6.609   5.127  14.068  0.00  0.00    +0.000 F 
ATOM      2  C   UNL     1       6.364   4.790  15.343  0.00  0.00    +0.000 A 
ATOM      3  C   UNL     1       7.292   5.096  16.324  0.00  0.00    +0.000 A 
ATOM      4  C   UNL     1       7.013   4.739  17.638  0.00  0.00    +0.000 A 
ATOM      5  F   UNL     1       7.912   5.035  18.589  0.00  0.00    +0.000 F 
ATOM      6  C   UNL     1       5.813   4.095  17.994  0.00  0.00    +0.000 A 
ATOM      7  C   UNL     1       4.906   3.751  16.974  0.00  0.00    +0.000 A 
ATOM      8  C   UNL     1       5.185   4.120  15.649  0.00  0.00    +0.000 A 
ATOM      9  C   UNL     1       3.666   2.958  17.274  0.00  0.00    +0.000 C 
ATOM     10  C   UNL     1       2.347   3.660  17.106  0.00  0.00    +0.000 C 
ATOM     11  C   UNL     1       1.453   3.225  18.007  0.00  0.00    +0.000 C 
ATOM     12  C   UNL     1       2.067   2.206  18.916  0.00  0.00    +0.000 C 
ATOM     13  C   UNL     1       3.569   2.466  18.728  0.00  0.00    +0.000 C 
ATOM     14  C   UNL     1       4.196   3.485  19.720  0.00  0.00    +0.000 C 
ATOM     15  N   UNL     1       5.604   3.706  19.338  0.00  0.00    +0.000 N 
ATOM     16  H   UNL     1       6.065   4.382  19.948  0.00  0.00    +0.000 HD
ENDROOT
BRANCH  14  17
ATOM     17  C   UNL     1       3.430   4.802  19.952  0.00  0.00    +0.000 A 
ATOM     18  C   UNL     1       2.332   4.817  20.815  0.00  0.00    +0.000 A 
ATOM     19  C   UNL     1       1.515   5.946  20.858  0.00  0.00    +0.000 A 
ATOM     20  C   UNL     1       1.824   7.043  20.066  0.00  0.00    +0.000 A 
ATOM     21  C   UNL     1       2.966   6.983  19.291  0.00  0.00    +0.000 A 
ATOM     22  N   UNL     1       3.771   5.901  19.227  0.00  0.00    +0.000 NA
ENDBRANCH  14  17
TORSDOF 1
ENDMDL
MODEL 3
REMARK VINA RESULT:      -8.6      0.761      1.166
REMARK  Name = 
REMARK  1 active torsions:
REMARK  status: ('A' for Active; 'I' for Inactive)
REMARK    1  A    between atoms: C_14  and  C_15
REMARK                            x       y       z     vdW  Elec       q    Type
REMARK                         _______ _______ _______ _____ _____    ______ ____
ROOT
ATOM      1  F   UNL     1       6.646   3.974  13.766  0.00  0.00    +0.000 F 
ATOM      2  C   UNL     1       6.398   4.128  15.076  0.00  0.00    +0.000 A 
ATOM      3  C   UNL     1       7.354   4.710  15.891  0.00  0.00    +0.000 A 
ATOM      4  C   UNL     1       7.072   4.861  17.244  0.00  0.00    +0.000 A 
ATOM      5  F   UNL     1       7.998   5.424  18.034  0.00  0.00    +0.000 F 
ATOM      6  C   UNL     1       5.843   4.455  17.795  0.00  0.00    +0.000 A 
ATOM      7  C   UNL     1       4.904   3.822  16.957  0.00  0.00    +0.000 A 
ATOM      8  C   UNL     1       5.187   3.679  15.590  0.00  0.00    +0.000 A 
ATOM      9  C   UNL     1       3.626   3.261  17.510  0.00  0.00    +0.000 C 
ATOM     10  C   UNL     1       2.346   3.932  17.092  0.00  0.00    +0.000 C 
ATOM     11  C   UNL     1       1.441   3.897  18.081  0.00  0.00    +0.000 C 
ATOM     12  C   UNL     1       2.008   3.236  19.298  0.00  0.00    +0.000 C 
ATOM     13  C   UNL     1       3.520   3.325  19.043  0.00  0.00    +0.000 C 
ATOM     14  C   UNL     1       4.215   4.593  19.612  0.00  0.00    +0.000 C 
ATOM     15  N   UNL     1       5.628   4.583  19.189  0.00  0.00    +0.000 N 
ATOM     16  H   UNL     1       6.134   5.404  19.521  0.00  0.00    +0.000 HD
ENDROOT
BRANCH  14  17
ATOM     17  C   UNL     1       3.528   5.948  19.353  0.00  0.00    +0.000 A 
ATOM     18  C   UNL     1       2.551   6.405  20.241  0.00  0.00    +0.000 A 
ATOM     19  C   UNL     1       1.783   7.516  19.895  0.00  0.00    +0.000 A 
ATOM     20  C   UNL     1       2.022   8.164  18.691  0.00  0.00    +0.000 A 
ATOM     21  C   UNL     1       3.052   7.698  17.897  0.00  0.00    +0.000 A 
ATOM     22  N   UNL     1       3.806   6.622  18.205  0.00  0.00    +0.000 NA
ENDBRANCH  14  17
TORSDOF 1
ENDMDL
MODEL 4
REMARK VINA RESULT:      -7.8      2.710      5.392
REMARK  Name = 
REMARK  1 active torsions:
REMARK  status: ('A' for Active; 'I' for Inactive)
REMARK    1  A    between atoms: C_14  and  C_15
REMARK                            x       y       z     vdW  Elec       q    Type
REMARK                         _______ _______ _______ _____ _____    ______ ____
ROOT
ATOM      1  F   UNL     1       0.196   3.631  18.267  0.00  0.00    +0.000 F 
ATOM      2  C   UNL     1       1.534   3.559  18.217  0.00  0.00    +0.000 A 
ATOM      3  C   UNL     1       2.156   2.322  18.223  0.00  0.00    +0.000 A 
ATOM      4  C   UNL     1       3.544   2.276  18.167  0.00  0.00    +0.000 A 
ATOM      5  F   UNL     1       4.148   1.078  18.174  0.00  0.00    +0.000 F 
ATOM      6  C   UNL     1       4.324   3.445  18.086  0.00  0.00    +0.000 A 
ATOM      7  C   UNL     1       3.673   4.693  18.128  0.00  0.00    +0.000 A 
ATOM      8  C   UNL     1       2.271   4.737  18.176  0.00  0.00    +0.000 A 
ATOM      9  C   UNL     1       4.455   5.974  18.166  0.00  0.00    +0.000 C 
ATOM     10  C   UNL     1       4.362   6.869  16.961  0.00  0.00    +0.000 C 
ATOM     11  C   UNL     1       5.519   7.513  16.751  0.00  0.00    +0.000 C 
ATOM     12  C   UNL     1       6.546   7.106  17.762  0.00  0.00    +0.000 C 
ATOM     13  C   UNL     1       5.976   5.781  18.288  0.00  0.00    +0.000 C 
ATOM     14  C   UNL     1       6.454   4.507  17.536  0.00  0.00    +0.000 C 
ATOM     15  N   UNL     1       5.736   3.341  18.085  0.00  0.00    +0.000 N 
ATOM     16  H   UNL     1       5.998   2.474  17.616  0.00  0.00    +0.000 HD
ENDROOT
BRANCH  14  17
ATOM     17  C   UNL     1       6.427   4.549  15.995  0.00  0.00    +0.000 A 
ATOM     18  C   UNL     1       5.435   3.848  15.305  0.00  0.00    +0.000 A 
ATOM     19  C   UNL     1       5.536   3.710  13.922  0.00  0.00    +0.000 A 
ATOM     20  C   UNL     1       6.603   4.295  13.253  0.00  0.00    +0.000 A 
ATOM     21  C   UNL     1       7.506   5.033  13.993  0.00  0.00    +0.000 A 
ATOM     22  N   UNL     1       7.435   5.178  15.333  0.00  0.00    +0.000 NA
ENDBRANCH  14  17
TORSDOF 1
ENDMDL
MODEL 5
REMARK VINA RESULT:      -7.8      2.758      4.879
REMARK  Name = 
REMARK  1 active torsions:
REMARK  status: ('A' for Active; 'I' for Inactive)
REMARK    1  A    between atoms: C_14  and  C_15
REMARK                            x       y       z     vdW  Elec       q    Type
REMARK                         _______ _______ _______ _____ _____    ______ ____
ROOT
ATOM      1  F   UNL     1       1.904   1.400  19.202  0.00  0.00    +0.000 F 
ATOM      2  C   UNL     1       2.283   2.623  18.799  0.00  0.00    +0.000 A 
ATOM      3  C   UNL     1       1.741   3.744  19.403  0.00  0.00    +0.000 A 
ATOM      4  C   UNL     1       2.152   4.999  18.968  0.00  0.00    +0.000 A 
ATOM      5  F   UNL     1       1.626   6.085  19.552  0.00  0.00    +0.000 F 
ATOM      6  C   UNL     1       3.111   5.154  17.950  0.00  0.00    +0.000 A 
ATOM      7  C   UNL     1       3.614   4.000  17.317  0.00  0.00    +0.000 A 
ATOM      8  C   UNL     1       3.204   2.735  17.764  0.00  0.00    +0.000 A 
ATOM      9  C   UNL     1       4.548   4.104  16.146  0.00  0.00    +0.000 C 
ATOM     10  C   UNL     1       5.961   3.630  16.353  0.00  0.00    +0.000 C 
ATOM     11  C   UNL     1       6.823   4.364  15.634  0.00  0.00    +0.000 C 
ATOM     12  C   UNL     1       6.107   5.446  14.886  0.00  0.00    +0.000 C 
ATOM     13  C   UNL     1       4.777   5.541  15.647  0.00  0.00    +0.000 C 
ATOM     14  C   UNL     1       4.753   6.564  16.817  0.00  0.00    +0.000 C 
ATOM     15  N   UNL     1       3.455   6.454  17.509  0.00  0.00    +0.000 N 
ATOM     16  H   UNL     1       3.387   7.094  18.301  0.00  0.00    +0.000 HD
ENDROOT
BRANCH  14  17
ATOM     17  C   UNL     1       5.948   6.547  17.790  0.00  0.00    +0.000 A 
ATOM     18  C   UNL     1       7.047   7.373  17.545  0.00  0.00    +0.000 A 
ATOM     19  C   UNL     1       8.208   7.203  18.296  0.00  0.00    +0.000 A 
ATOM     20  C   UNL     1       8.241   6.237  19.293  0.00  0.00    +0.000 A 
ATOM     21  C   UNL     1       7.093   5.506  19.526  0.00  0.00    +0.000 A 
ATOM     22  N   UNL     1       5.957   5.647  18.809  0.00  0.00    +0.000 NA
ENDBRANCH  14  17
TORSDOF 1
ENDMDL
MODEL 6
REMARK VINA RESULT:      -7.7      2.737      5.265
REMARK  Name = 
REMARK  1 active torsions:
REMARK  status: ('A' for Active; 'I' for Inactive)
REMARK    1  A    between atoms: C_14  and  C_15
REMARK                            x       y       z     vdW  Elec       q    Type
REMARK                         _______ _______ _______ _____ _____    ______ ____
ROOT
ATOM      1  F   UNL     1       0.443   3.376  19.437  0.00  0.00    +0.000 F 
ATOM      2  C   UNL     1       1.775   3.437  19.293  0.00  0.00    +0.000 A 
ATOM      3  C   UNL     1       2.545   2.314  19.547  0.00  0.00    +0.000 A 
ATOM      4  C   UNL     1       3.923   2.403  19.387  0.00  0.00    +0.000 A 
ATOM      5  F   UNL     1       4.670   1.317  19.634  0.00  0.00    +0.000 F 
ATOM      6  C   UNL     1       4.546   3.591  18.960  0.00  0.00    +0.000 A 
ATOM      7  C   UNL     1       3.749   4.733  18.753  0.00  0.00    +0.000 A 
ATOM      8  C   UNL     1       2.357   4.639  18.907  0.00  0.00    +0.000 A 
ATOM      9  C   UNL     1       4.367   6.058  18.413  0.00  0.00    +0.000 C 
ATOM     10  C   UNL     1       4.097   6.608  17.039  0.00  0.00    +0.000 C 
ATOM     11  C   UNL     1       5.152   7.298  16.583  0.00  0.00    +0.000 C 
ATOM     12  C   UNL     1       6.275   7.269  17.572  0.00  0.00    +0.000 C 
ATOM     13  C   UNL     1       5.905   6.065  18.450  0.00  0.00    +0.000 C 
ATOM     14  C   UNL     1       6.494   4.702  17.992  0.00  0.00    +0.000 C 
ATOM     15  N   UNL     1       5.957   3.641  18.865  0.00  0.00    +0.000 N 
ATOM     16  H   UNL     1       6.299   2.717  18.600  0.00  0.00    +0.000 HD
ENDROOT
BRANCH  14  17
ATOM     17  C   UNL     1       6.377   4.354  16.495  0.00  0.00    +0.000 A 
ATOM     18  C   UNL     1       7.328   4.846  15.597  0.00  0.00    +0.000 A 
ATOM     19  C   UNL     1       7.105   4.713  14.228  0.00  0.00    +0.000 A 
ATOM     20  C   UNL     1       5.959   4.069  13.782  0.00  0.00    +0.000 A 
ATOM     21  C   UNL     1       5.099   3.545  14.728  0.00  0.00    +0.000 A 
ATOM     22  N   UNL     1       5.288   3.665  16.059  0.00  0.00    +0.000 NA
ENDBRANCH  14  17
TORSDOF 1
ENDMDL
MODEL 7
REMARK VINA RESULT:      -7.5      2.735      5.515
REMARK  Name = 
REMARK  1 active torsions:
REMARK  status: ('A' for Active; 'I' for Inactive)
REMARK    1  A    between atoms: C_14  and  C_15
REMARK                            x       y       z     vdW  Elec       q    Type
REMARK                         _______ _______ _______ _____ _____    ______ ____
ROOT
ATOM      1  F   UNL     1       0.904   5.034  20.021  0.00  0.00    +0.000 F 
ATOM      2  C   UNL     1       2.155   4.673  19.695  0.00  0.00    +0.000 A 
ATOM      3  C   UNL     1       2.501   3.333  19.683  0.00  0.00    +0.000 A 
ATOM      4  C   UNL     1       3.803   2.985  19.339  0.00  0.00    +0.000 A 
ATOM      5  F   UNL     1       4.139   1.687  19.328  0.00  0.00    +0.000 F 
ATOM      6  C   UNL     1       4.762   3.954  18.989  0.00  0.00    +0.000 A 
ATOM      7  C   UNL     1       4.401   5.313  19.053  0.00  0.00    +0.000 A 
ATOM      8  C   UNL     1       3.084   5.661  19.392  0.00  0.00    +0.000 A 
ATOM      9  C   UNL     1       5.411   6.396  18.807  0.00  0.00    +0.000 C 
ATOM     10  C   UNL     1       5.229   7.235  17.572  0.00  0.00    +0.000 C 
ATOM     11  C   UNL     1       6.414   7.605  17.064  0.00  0.00    +0.000 C 
ATOM     12  C   UNL     1       7.540   7.031  17.868  0.00  0.00    +0.000 C 
ATOM     13  C   UNL     1       6.851   5.885  18.622  0.00  0.00    +0.000 C 
ATOM     14  C   UNL     1       6.881   4.506  17.906  0.00  0.00    +0.000 C 
ATOM     15  N   UNL     1       6.086   3.548  18.698  0.00  0.00    +0.000 N 
ATOM     16  H   UNL     1       6.057   2.625  18.266  0.00  0.00    +0.000 HD
ENDROOT
BRANCH  14  17
ATOM     17  C   UNL     1       6.515   4.484  16.408  0.00  0.00    +0.000 A 
ATOM     18  C   UNL     1       5.305   3.916  16.004  0.00  0.00    +0.000 A 
ATOM     19  C   UNL     1       5.072   3.703  14.646  0.00  0.00    +0.000 A 
ATOM     20  C   UNL     1       6.034   4.084  13.721  0.00  0.00    +0.000 A 
ATOM     21  C   UNL     1       7.176   4.704  14.189  0.00  0.00    +0.000 A 
ATOM     22  N   UNL     1       7.428   4.917  15.498  0.00  0.00    +0.000 NA
ENDBRANCH  14  17
TORSDOF 1
ENDMDL
MODEL 8
REMARK VINA RESULT:      -7.5      2.770      4.945
REMARK  Name = 
REMARK  1 active torsions:
REMARK  status: ('A' for Active; 'I' for Inactive)
REMARK    1  A    between atoms: C_14  and  C_15
REMARK                            x       y       z     vdW  Elec       q    Type
REMARK                         _______ _______ _______ _____ _____    ______ ____
ROOT
ATOM      1  F   UNL     1       2.072   1.404  19.234  0.00  0.00    +0.000 F 
ATOM      2  C   UNL     1       2.455   2.621  18.819  0.00  0.00    +0.000 A 
ATOM      3  C   UNL     1       2.015   3.747  19.494  0.00  0.00    +0.000 A 
ATOM      4  C   UNL     1       2.428   4.996  19.045  0.00  0.00    +0.000 A 
ATOM      5  F   UNL     1       2.002   6.087  19.699  0.00  0.00    +0.000 F 
ATOM      6  C   UNL     1       3.290   5.140  17.942  0.00  0.00    +0.000 A 
ATOM      7  C   UNL     1       3.687   3.985  17.241  0.00  0.00    +0.000 A 
ATOM      8  C   UNL     1       3.275   2.725  17.701  0.00  0.00    +0.000 A 
ATOM      9  C   UNL     1       4.506   4.082  15.987  0.00  0.00    +0.000 C 
ATOM     10  C   UNL     1       5.914   3.555  16.046  0.00  0.00    +0.000 C 
ATOM     11  C   UNL     1       6.730   4.275  15.262  0.00  0.00    +0.000 C 
ATOM     12  C   UNL     1       5.985   5.397  14.608  0.00  0.00    +0.000 C 
ATOM     13  C   UNL     1       4.738   5.522  15.496  0.00  0.00    +0.000 C 
ATOM     14  C   UNL     1       4.865   6.518  16.681  0.00  0.00    +0.000 C 
ATOM     15  N   UNL     1       3.637   6.437  17.495  0.00  0.00    +0.000 N 
ATOM     16  H   UNL     1       3.669   7.062  18.301  0.00  0.00    +0.000 HD
ENDROOT
BRANCH  14  17
ATOM     17  C   UNL     1       6.147   6.438  17.534  0.00  0.00    +0.000 A 
ATOM     18  C   UNL     1       6.207   5.541  18.603  0.00  0.00    +0.000 A 
ATOM     19  C   UNL     1       7.273   5.619  19.498  0.00  0.00    +0.000 A 
ATOM     20  C   UNL     1       8.268   6.566  19.294  0.00  0.00    +0.000 A 
ATOM     21  C   UNL     1       8.178   7.371  18.176  0.00  0.00    +0.000 A 
ATOM     22  N   UNL     1       7.155   7.320  17.297  0.00  0.00    +0.000 NA
ENDBRANCH  14  17
TORSDOF 1
ENDMDL
MODEL 9
REMARK VINA RESULT:      -7.3      2.842      4.971
REMARK  Name = 
REMARK  1 active torsions:
REMARK  status: ('A' for Active; 'I' for Inactive)
REMARK    1  A    between atoms: C_14  and  C_15
REMARK                            x       y       z     vdW  Elec       q    Type
REMARK                         _______ _______ _______ _____ _____    ______ ____
ROOT
ATOM      1  F   UNL     1       1.562   2.020  20.870  0.00  0.00    +0.000 F 
ATOM      2  C   UNL     1       1.949   3.121  20.208  0.00  0.00    +0.000 A 
ATOM      3  C   UNL     1       1.604   4.371  20.693  0.00  0.00    +0.000 A 
ATOM      4  C   UNL     1       2.020   5.495  19.990  0.00  0.00    +0.000 A 
ATOM      5  F   UNL     1       1.684   6.706  20.459  0.00  0.00    +0.000 F 
ATOM      6  C   UNL     1       2.792   5.394  18.818  0.00  0.00    +0.000 A 
ATOM      7  C   UNL     1       3.092   4.113  18.317  0.00  0.00    +0.000 A 
ATOM      8  C   UNL     1       2.678   2.979  19.033  0.00  0.00    +0.000 A 
ATOM      9  C   UNL     1       3.809   3.940  17.009  0.00  0.00    +0.000 C 
ATOM     10  C   UNL     1       5.198   3.366  17.061  0.00  0.00    +0.000 C 
ATOM     11  C   UNL     1       5.970   3.891  16.097  0.00  0.00    +0.000 C 
ATOM     12  C   UNL     1       5.212   4.909  15.303  0.00  0.00    +0.000 C 
ATOM     13  C   UNL     1       4.047   5.253  16.243  0.00  0.00    +0.000 C 
ATOM     14  C   UNL     1       4.303   6.442  17.210  0.00  0.00    +0.000 C 
ATOM     15  N   UNL     1       3.144   6.570  18.113  0.00  0.00    +0.000 N 
ATOM     16  H   UNL     1       3.263   7.329  18.785  0.00  0.00    +0.000 HD
ENDROOT
BRANCH  14  17
ATOM     17  C   UNL     1       5.647   6.458  17.964  0.00  0.00    +0.000 A 
ATOM     18  C   UNL     1       6.710   7.213  17.462  0.00  0.00    +0.000 A 
ATOM     19  C   UNL     1       7.978   7.059  18.018  0.00  0.00    +0.000 A 
ATOM     20  C   UNL     1       8.157   6.181  19.078  0.00  0.00    +0.000 A 
ATOM     21  C   UNL     1       7.047   5.521  19.568  0.00  0.00    +0.000 A 
ATOM     22  N   UNL     1       5.809   5.648  19.045  0.00  0.00    +0.000 NA
ENDBRANCH  14  17
TORSDOF 1
ENDMDL
