MODEL 1
REMARK VINA RESULT:      -5.9      0.000      0.000
REMARK  Name = 
REMARK  8 active torsions:
REMARK  status: ('A' for Active; 'I' for Inactive)
REMARK    1  A    between atoms: C_1  and  C_2
REMARK    2  A    between atoms: C_2  and  C_3
REMARK    3  A    between atoms: C_8  and  O_9
REMARK    4  A    between atoms: O_9  and  C_10
REMARK    5  A    between atoms: C_10  and  C_11
REMARK    6  A    between atoms: C_11  and  O_12
REMARK    7  A    between atoms: C_11  and  C_13
REMARK    8  A    between atoms: C_13  and  O_14
REMARK                            x       y       z     vdW  Elec       q    Type
REMARK                         _______ _______ _______ _____ _____    ______ ____
ROOT
ATOM      1  C   UNL     1       2.399   5.077  19.198  0.00  0.00    +0.000 A 
ATOM      2  C   UNL     1       1.471   4.622  20.165  0.00  0.00    +0.000 A 
ATOM      3  C   UNL     1       0.860   3.373  20.068  0.00  0.00    +0.000 A 
ATOM      4  C   UNL     1       1.153   2.543  19.001  0.00  0.00    +0.000 A 
ATOM      5  C   UNL     1       2.057   2.975  18.027  0.00  0.00    +0.000 A 
ATOM      6  C   UNL     1       2.691   4.226  18.113  0.00  0.00    +0.000 A 
ENDROOT
BRANCH   1   8
ATOM      7  C   UNL     1       2.447   7.455  18.345  0.00  0.00    +0.000 C 
ATOM      8  C   UNL     1       2.919   6.481  19.412  0.00  0.00    +0.000 C 
ENDBRANCH   1   8
BRANCH   6   9
ATOM      9  O   UNL     1       3.497   4.462  17.031  0.00  0.00    +0.000 OA
BRANCH   9  10
ATOM     10  C   UNL     1       4.734   3.773  16.954  0.00  0.00    +0.000 C 
BRANCH  10  11
ATOM     11  C   UNL     1       5.820   4.508  17.745  0.00  0.00    +0.000 C 
BRANCH  11  12
ATOM     12  O   UNL     1       6.045   3.812  18.980  0.00  0.00    +0.000 OA
ATOM     13  H   UNL     1       6.984   3.917  19.215  0.00  0.00    +0.000 HD
ENDBRANCH  11  12
BRANCH  11  14
ATOM     14  C   UNL     1       7.124   4.596  16.935  0.00  0.00    +0.000 C 
BRANCH  14  15
ATOM     15  O   UNL     1       8.230   4.049  17.649  0.00  0.00    +0.000 OA
ATOM     16  H   UNL     1       8.755   3.521  17.023  0.00  0.00    +0.000 HD
ENDBRANCH  14  15
ENDBRANCH  11  14
ENDBRANCH  10  11
ENDBRANCH   9  10
ENDBRANCH   6   9
TORSDOF 7
ENDMDL
MODEL 2
REMARK VINA RESULT:      -5.8      1.941      3.368
REMARK  Name = 
REMARK  8 active torsions:
REMARK  status: ('A' for Active; 'I' for Inactive)
REMARK    1  A    between atoms: C_1  and  C_2
REMARK    2  A    between atoms: C_2  and  C_3
REMARK    3  A    between atoms: C_8  and  O_9
REMARK    4  A    between atoms: O_9  and  C_10
REMARK    5  A    between atoms: C_10  and  C_11
REMARK    6  A    between atoms: C_11  and  O_12
REMARK    7  A    between atoms: C_11  and  C_13
REMARK    8  A    between atoms: C_13  and  O_14
REMARK                            x       y       z     vdW  Elec       q    Type
REMARK                         _______ _______ _______ _____ _____    ______ ____
ROOT
ATOM      1  C   UNL     1       1.509   4.499  19.844  0.00  0.00    +0.000 A 
ATOM      2  C   UNL     1       1.591   5.710  20.573  0.00  0.00    +0.000 A 
ATOM      3  C   UNL     1       2.191   6.849  20.041  0.00  0.00    +0.000 A 
ATOM      4  C   UNL     1       2.732   6.813  18.768  0.00  0.00    +0.000 A 
ATOM      5  C   UNL     1       2.673   5.626  18.033  0.00  0.00    +0.000 A 
ATOM      6  C   UNL     1       2.062   4.471  18.549  0.00  0.00    +0.000 A 
ENDROOT
BRANCH   1   8
ATOM      7  C   UNL     1       1.708   2.903  21.793  0.00  0.00    +0.000 C 
ATOM      8  C   UNL     1       0.888   3.338  20.590  0.00  0.00    +0.000 C 
ENDBRANCH   1   8
BRANCH   6   9
ATOM      9  O   UNL     1       2.161   3.414  17.682  0.00  0.00    +0.000 OA
BRANCH   9  10
ATOM     10  C   UNL     1       3.408   2.747  17.578  0.00  0.00    +0.000 C 
BRANCH  10  11
ATOM     11  C   UNL     1       3.617   1.790  18.754  0.00  0.00    +0.000 C 
BRANCH  11  12
ATOM     12  O   UNL     1       4.133   0.548  18.254  0.00  0.00    +0.000 OA
ATOM     13  H   UNL     1       4.724   0.750  17.507  0.00  0.00    +0.000 HD
ENDBRANCH  11  12
BRANCH  11  14
ATOM     14  C   UNL     1       4.580   2.393  19.790  0.00  0.00    +0.000 C 
BRANCH  14  15
ATOM     15  O   UNL     1       5.465   3.343  19.200  0.00  0.00    +0.000 OA
ATOM     16  H   UNL     1       6.098   3.622  19.885  0.00  0.00    +0.000 HD
ENDBRANCH  14  15
ENDBRANCH  11  14
ENDBRANCH  10  11
ENDBRANCH   9  10
ENDBRANCH   6   9
TORSDOF 7
ENDMDL
MODEL 3
REMARK VINA RESULT:      -5.8      1.392      1.898
REMARK  Name = 
REMARK  8 active torsions:
REMARK  status: ('A' for Active; 'I' for Inactive)
REMARK    1  A    between atoms: C_1  and  C_2
REMARK    2  A    between atoms: C_2  and  C_3
REMARK    3  A    between atoms: C_8  and  O_9
REMARK    4  A    between atoms: O_9  and  C_10
REMARK    5  A    between atoms: C_10  and  C_11
REMARK    6  A    between atoms: C_11  and  O_12
REMARK    7  A    between atoms: C_11  and  C_13
REMARK    8  A    between atoms: C_13  and  O_14
REMARK                            x       y       z     vdW  Elec       q    Type
REMARK                         _______ _______ _______ _____ _____    ______ ____
ROOT
ATOM      1  C   UNL     1       2.921   4.626  19.258  0.00  0.00    +0.000 A 
ATOM      2  C   UNL     1       1.590   4.155  19.151  0.00  0.00    +0.000 A 
ATOM      3  C   UNL     1       1.302   2.816  18.898  0.00  0.00    +0.000 A 
ATOM      4  C   UNL     1       2.333   1.907  18.738  0.00  0.00    +0.000 A 
ATOM      5  C   UNL     1       3.655   2.350  18.828  0.00  0.00    +0.000 A 
ATOM      6  C   UNL     1       3.965   3.694  19.094  0.00  0.00    +0.000 A 
ENDROOT
BRANCH   1   8
ATOM      7  C   UNL     1       2.578   6.930  18.278  0.00  0.00    +0.000 C 
ATOM      8  C   UNL     1       3.063   6.118  19.467  0.00  0.00    +0.000 C 
ENDBRANCH   1   8
BRANCH   6   9
ATOM      9  O   UNL     1       5.318   3.914  19.091  0.00  0.00    +0.000 OA
BRANCH   9  10
ATOM     10  C   UNL     1       5.901   4.478  17.927  0.00  0.00    +0.000 C 
BRANCH  10  11
ATOM     11  C   UNL     1       7.423   4.570  18.069  0.00  0.00    +0.000 C 
BRANCH  11  12
ATOM     12  O   UNL     1       8.005   4.660  16.760  0.00  0.00    +0.000 OA
ATOM     13  H   UNL     1       7.591   5.412  16.300  0.00  0.00    +0.000 HD
ENDBRANCH  11  12
BRANCH  11  14
ATOM     14  C   UNL     1       7.823   5.788  18.918  0.00  0.00    +0.000 C 
BRANCH  14  15
ATOM     15  O   UNL     1       7.785   5.497  20.313  0.00  0.00    +0.000 OA
ATOM     16  H   UNL     1       8.355   4.723  20.469  0.00  0.00    +0.000 HD
ENDBRANCH  14  15
ENDBRANCH  11  14
ENDBRANCH  10  11
ENDBRANCH   9  10
ENDBRANCH   6   9
TORSDOF 7
ENDMDL
MODEL 4
REMARK VINA RESULT:      -5.7      2.604      5.038
REMARK  Name = 
REMARK  8 active torsions:
REMARK  status: ('A' for Active; 'I' for Inactive)
REMARK    1  A    between atoms: C_1  and  C_2
REMARK    2  A    between atoms: C_2  and  C_3
REMARK    3  A    between atoms: C_8  and  O_9
REMARK    4  A    between atoms: O_9  and  C_10
REMARK    5  A    between atoms: C_10  and  C_11
REMARK    6  A    between atoms: C_11  and  O_12
REMARK    7  A    between atoms: C_11  and  C_13
REMARK    8  A    between atoms: C_13  and  O_14
REMARK                            x       y       z     vdW  Elec       q    Type
REMARK                         _______ _______ _______ _____ _____    ______ ____
ROOT
ATOM      1  C   UNL     1       6.889   4.607  16.888  0.00  0.00    +0.000 A 
ATOM      2  C   UNL     1       7.487   4.901  15.639  0.00  0.00    +0.000 A 
ATOM      3  C   UNL     1       6.787   4.777  14.441  0.00  0.00    +0.000 A 
ATOM      4  C   UNL     1       5.470   4.352  14.453  0.00  0.00    +0.000 A 
ATOM      5  C   UNL     1       4.861   4.046  15.672  0.00  0.00    +0.000 A 
ATOM      6  C   UNL     1       5.548   4.175  16.891  0.00  0.00    +0.000 A 
ENDROOT
BRANCH   1   8
ATOM      7  C   UNL     1       7.708   6.081  18.770  0.00  0.00    +0.000 C 
ATOM      8  C   UNL     1       7.805   4.727  18.087  0.00  0.00    +0.000 C 
ENDBRANCH   1   8
BRANCH   6   9
ATOM      9  O   UNL     1       4.778   3.777  17.953  0.00  0.00    +0.000 OA
BRANCH   9  10
ATOM     10  C   UNL     1       3.587   3.056  17.683  0.00  0.00    +0.000 C 
BRANCH  10  11
ATOM     11  C   UNL     1       3.358   1.964  18.731  0.00  0.00    +0.000 C 
BRANCH  11  12
ATOM     12  O   UNL     1       3.945   0.742  18.262  0.00  0.00    +0.000 OA
ATOM     13  H   UNL     1       3.910   0.748  17.289  0.00  0.00    +0.000 HD
ENDBRANCH  11  12
BRANCH  11  14
ATOM     14  C   UNL     1       3.966   2.367  20.085  0.00  0.00    +0.000 C 
BRANCH  14  15
ATOM     15  O   UNL     1       5.256   1.793  20.278  0.00  0.00    +0.000 OA
ATOM     16  H   UNL     1       5.339   1.561  21.220  0.00  0.00    +0.000 HD
ENDBRANCH  14  15
ENDBRANCH  11  14
ENDBRANCH  10  11
ENDBRANCH   9  10
ENDBRANCH   6   9
TORSDOF 7
ENDMDL
MODEL 5
REMARK VINA RESULT:      -5.6      1.718      3.093
REMARK  Name = 
REMARK  8 active torsions:
REMARK  status: ('A' for Active; 'I' for Inactive)
REMARK    1  A    between atoms: C_1  and  C_2
REMARK    2  A    between atoms: C_2  and  C_3
REMARK    3  A    between atoms: C_8  and  O_9
REMARK    4  A    between atoms: O_9  and  C_10
REMARK    5  A    between atoms: C_10  and  C_11
REMARK    6  A    between atoms: C_11  and  O_12
REMARK    7  A    between atoms: C_11  and  C_13
REMARK    8  A    between atoms: C_13  and  O_14
REMARK                            x       y       z     vdW  Elec       q    Type
REMARK                         _______ _______ _______ _____ _____    ______ ____
ROOT
ATOM      1  C   UNL     1       3.969   4.134  17.163  0.00  0.00    +0.000 A 
ATOM      2  C   UNL     1       2.732   3.447  17.109  0.00  0.00    +0.000 A 
ATOM      3  C   UNL     1       1.686   3.747  17.979  0.00  0.00    +0.000 A 
ATOM      4  C   UNL     1       1.843   4.739  18.931  0.00  0.00    +0.000 A 
ATOM      5  C   UNL     1       3.059   5.423  19.011  0.00  0.00    +0.000 A 
ATOM      6  C   UNL     1       4.121   5.141  18.136  0.00  0.00    +0.000 A 
ENDROOT
BRANCH   1   8
ATOM      7  C   UNL     1       5.368   4.666  15.127  0.00  0.00    +0.000 C 
ATOM      8  C   UNL     1       5.023   3.642  16.195  0.00  0.00    +0.000 C 
ENDBRANCH   1   8
BRANCH   6   9
ATOM      9  O   UNL     1       5.229   5.895  18.423  0.00  0.00    +0.000 OA
BRANCH   9  10
ATOM     10  C   UNL     1       6.183   5.364  19.329  0.00  0.00    +0.000 C 
BRANCH  10  11
ATOM     11  C   UNL     1       7.608   5.575  18.809  0.00  0.00    +0.000 C 
BRANCH  11  12
ATOM     12  O   UNL     1       7.957   4.474  17.956  0.00  0.00    +0.000 OA
ATOM     13  H   UNL     1       8.417   4.835  17.177  0.00  0.00    +0.000 HD
ENDBRANCH  11  12
BRANCH  11  14
ATOM     14  C   UNL     1       7.723   6.903  18.044  0.00  0.00    +0.000 C 
BRANCH  14  15
ATOM     15  O   UNL     1       7.628   6.714  16.635  0.00  0.00    +0.000 OA
ATOM     16  H   UNL     1       7.897   7.545  16.205  0.00  0.00    +0.000 HD
ENDBRANCH  14  15
ENDBRANCH  11  14
ENDBRANCH  10  11
ENDBRANCH   9  10
ENDBRANCH   6   9
TORSDOF 7
ENDMDL
MODEL 6
REMARK VINA RESULT:      -5.6      1.392      1.810
REMARK  Name = 
REMARK  8 active torsions:
REMARK  status: ('A' for Active; 'I' for Inactive)
REMARK    1  A    between atoms: C_1  and  C_2
REMARK    2  A    between atoms: C_2  and  C_3
REMARK    3  A    between atoms: C_8  and  O_9
REMARK    4  A    between atoms: O_9  and  C_10
REMARK    5  A    between atoms: C_10  and  C_11
REMARK    6  A    between atoms: C_11  and  O_12
REMARK    7  A    between atoms: C_11  and  C_13
REMARK    8  A    between atoms: C_13  and  O_14
REMARK                            x       y       z     vdW  Elec       q    Type
REMARK                         _______ _______ _______ _____ _____    ______ ____
ROOT
ATOM      1  C   UNL     1       2.726   4.738  18.232  0.00  0.00    +0.000 A 
ATOM      2  C   UNL     1       1.447   4.232  18.565  0.00  0.00    +0.000 A 
ATOM      3  C   UNL     1       1.170   2.867  18.553  0.00  0.00    +0.000 A 
ATOM      4  C   UNL     1       2.160   1.965  18.204  0.00  0.00    +0.000 A 
ATOM      5  C   UNL     1       3.428   2.442  17.860  0.00  0.00    +0.000 A 
ATOM      6  C   UNL     1       3.729   3.814  17.877  0.00  0.00    +0.000 A 
ENDROOT
BRANCH   1   8
ATOM      7  C   UNL     1       2.415   6.876  19.543  0.00  0.00    +0.000 C 
ATOM      8  C   UNL     1       2.843   6.247  18.227  0.00  0.00    +0.000 C 
ENDBRANCH   1   8
BRANCH   6   9
ATOM      9  O   UNL     1       5.011   4.058  17.461  0.00  0.00    +0.000 OA
BRANCH   9  10
ATOM     10  C   UNL     1       5.238   4.262  16.076  0.00  0.00    +0.000 C 
BRANCH  10  11
ATOM     11  C   UNL     1       6.725   4.494  15.793  0.00  0.00    +0.000 C 
BRANCH  11  12
ATOM     12  O   UNL     1       6.850   5.387  14.677  0.00  0.00    +0.000 OA
ATOM     13  H   UNL     1       7.439   4.967  14.024  0.00  0.00    +0.000 HD
ENDBRANCH  11  12
BRANCH  11  14
ATOM     14  C   UNL     1       7.435   5.074  17.027  0.00  0.00    +0.000 C 
BRANCH  14  15
ATOM     15  O   UNL     1       7.966   4.050  17.864  0.00  0.00    +0.000 OA
ATOM     16  H   UNL     1       7.245   3.427  18.063  0.00  0.00    +0.000 HD
ENDBRANCH  14  15
ENDBRANCH  11  14
ENDBRANCH  10  11
ENDBRANCH   9  10
ENDBRANCH   6   9
TORSDOF 7
ENDMDL
MODEL 7
REMARK VINA RESULT:      -5.5      1.601      2.048
REMARK  Name = 
REMARK  8 active torsions:
REMARK  status: ('A' for Active; 'I' for Inactive)
REMARK    1  A    between atoms: C_1  and  C_2
REMARK    2  A    between atoms: C_2  and  C_3
REMARK    3  A    between atoms: C_8  and  O_9
REMARK    4  A    between atoms: O_9  and  C_10
REMARK    5  A    between atoms: C_10  and  C_11
REMARK    6  A    between atoms: C_11  and  O_12
REMARK    7  A    between atoms: C_11  and  C_13
REMARK    8  A    between atoms: C_13  and  O_14
REMARK                            x       y       z     vdW  Elec       q    Type
REMARK                         _______ _______ _______ _____ _____    ______ ____
ROOT
ATOM      1  C   UNL     1       3.147   4.647  18.104  0.00  0.00    +0.000 A 
ATOM      2  C   UNL     1       1.836   4.127  17.981  0.00  0.00    +0.000 A 
ATOM      3  C   UNL     1       1.523   2.823  18.358  0.00  0.00    +0.000 A 
ATOM      4  C   UNL     1       2.511   1.996  18.864  0.00  0.00    +0.000 A 
ATOM      5  C   UNL     1       3.815   2.483  18.985  0.00  0.00    +0.000 A 
ATOM      6  C   UNL     1       4.146   3.799  18.620  0.00  0.00    +0.000 A 
ENDROOT
BRANCH   1   8
ATOM      7  C   UNL     1       2.608   7.095  18.429  0.00  0.00    +0.000 C 
ATOM      8  C   UNL     1       3.333   6.057  17.587  0.00  0.00    +0.000 C 
ENDBRANCH   1   8
BRANCH   6   9
ATOM      9  O   UNL     1       5.485   4.047  18.776  0.00  0.00    +0.000 OA
BRANCH   9  10
ATOM     10  C   UNL     1       5.872   5.245  19.430  0.00  0.00    +0.000 C 
BRANCH  10  11
ATOM     11  C   UNL     1       7.338   5.578  19.139  0.00  0.00    +0.000 C 
BRANCH  11  12
ATOM     12  O   UNL     1       8.087   5.477  20.359  0.00  0.00    +0.000 OA
ATOM     13  H   UNL     1       7.483   5.161  21.054  0.00  0.00    +0.000 HD
ENDBRANCH  11  12
BRANCH  11  14
ATOM     14  C   UNL     1       7.916   4.631  18.075  0.00  0.00    +0.000 C 
BRANCH  14  15
ATOM     15  O   UNL     1       7.522   5.010  16.758  0.00  0.00    +0.000 OA
ATOM     16  H   UNL     1       6.775   5.628  16.839  0.00  0.00    +0.000 HD
ENDBRANCH  14  15
ENDBRANCH  11  14
ENDBRANCH  10  11
ENDBRANCH   9  10
ENDBRANCH   6   9
TORSDOF 7
ENDMDL
MODEL 8
REMARK VINA RESULT:      -5.5      1.259      2.852
REMARK  Name = 
REMARK  8 active torsions:
REMARK  status: ('A' for Active; 'I' for Inactive)
REMARK    1  A    between atoms: C_1  and  C_2
REMARK    2  A    between atoms: C_2  and  C_3
REMARK    3  A    between atoms: C_8  and  O_9
REMARK    4  A    between atoms: O_9  and  C_10
REMARK    5  A    between atoms: C_10  and  C_11
REMARK    6  A    between atoms: C_11  and  O_12
REMARK    7  A    between atoms: C_11  and  C_13
REMARK    8  A    between atoms: C_13  and  O_14
REMARK                            x       y       z     vdW  Elec       q    Type
REMARK                         _______ _______ _______ _____ _____    ______ ____
ROOT
ATOM      1  C   UNL     1       2.378   3.675  18.593  0.00  0.00    +0.000 A 
ATOM      2  C   UNL     1       1.320   3.500  19.518  0.00  0.00    +0.000 A 
ATOM      3  C   UNL     1       1.049   4.439  20.511  0.00  0.00    +0.000 A 
ATOM      4  C   UNL     1       1.827   5.579  20.614  0.00  0.00    +0.000 A 
ATOM      5  C   UNL     1       2.883   5.769  19.720  0.00  0.00    +0.000 A 
ATOM      6  C   UNL     1       3.165   4.839  18.705  0.00  0.00    +0.000 A 
ENDROOT
BRANCH   1   8
ATOM      7  C   UNL     1       3.582   1.503  18.124  0.00  0.00    +0.000 C 
ATOM      8  C   UNL     1       2.582   2.533  17.622  0.00  0.00    +0.000 C 
ENDBRANCH   1   8
BRANCH   6   9
ATOM      9  O   UNL     1       4.268   5.200  17.977  0.00  0.00    +0.000 OA
BRANCH   9  10
ATOM     10  C   UNL     1       5.548   4.878  18.497  0.00  0.00    +0.000 C 
BRANCH  10  11
ATOM     11  C   UNL     1       6.602   4.862  17.386  0.00  0.00    +0.000 C 
BRANCH  11  12
ATOM     12  O   UNL     1       7.777   4.198  17.872  0.00  0.00    +0.000 OA
ATOM     13  H   UNL     1       8.062   4.654  18.685  0.00  0.00    +0.000 HD
ENDBRANCH  11  12
BRANCH  11  14
ATOM     14  C   UNL     1       6.066   4.153  16.131  0.00  0.00    +0.000 C 
BRANCH  14  15
ATOM     15  O   UNL     1       5.415   5.061  15.246  0.00  0.00    +0.000 OA
ATOM     16  H   UNL     1       4.799   4.547  14.695  0.00  0.00    +0.000 HD
ENDBRANCH  14  15
ENDBRANCH  11  14
ENDBRANCH  10  11
ENDBRANCH   9  10
ENDBRANCH   6   9
TORSDOF 7
ENDMDL
MODEL 9
REMARK VINA RESULT:      -5.5      1.630      2.973
REMARK  Name = 
REMARK  8 active torsions:
REMARK  status: ('A' for Active; 'I' for Inactive)
REMARK    1  A    between atoms: C_1  and  C_2
REMARK    2  A    between atoms: C_2  and  C_3
REMARK    3  A    between atoms: C_8  and  O_9
REMARK    4  A    between atoms: O_9  and  C_10
REMARK    5  A    between atoms: C_10  and  C_11
REMARK    6  A    between atoms: C_11  and  O_12
REMARK    7  A    between atoms: C_11  and  C_13
REMARK    8  A    between atoms: C_13  and  O_14
REMARK                            x       y       z     vdW  Elec       q    Type
REMARK                         _______ _______ _______ _____ _____    ______ ____
ROOT
ATOM      1  C   UNL     1       2.214   3.678  18.529  0.00  0.00    +0.000 A 
ATOM      2  C   UNL     1       1.495   3.391  19.714  0.00  0.00    +0.000 A 
ATOM      3  C   UNL     1       1.268   4.359  20.690  0.00  0.00    +0.000 A 
ATOM      4  C   UNL     1       1.756   5.643  20.514  0.00  0.00    +0.000 A 
ATOM      5  C   UNL     1       2.478   5.947  19.358  0.00  0.00    +0.000 A 
ATOM      6  C   UNL     1       2.708   4.987  18.358  0.00  0.00    +0.000 A 
ENDROOT
BRANCH   1   8
ATOM      7  C   UNL     1       3.539   1.573  18.079  0.00  0.00    +0.000 C 
ATOM      8  C   UNL     1       2.432   2.500  17.604  0.00  0.00    +0.000 C 
ENDBRANCH   1   8
BRANCH   6   9
ATOM      9  O   UNL     1       3.475   5.488  17.339  0.00  0.00    +0.000 OA
BRANCH   9  10
ATOM     10  C   UNL     1       4.868   5.217  17.356  0.00  0.00    +0.000 C 
BRANCH  10  11
ATOM     11  C   UNL     1       5.460   5.314  15.947  0.00  0.00    +0.000 C 
BRANCH  11  12
ATOM     12  O   UNL     1       5.400   6.680  15.512  0.00  0.00    +0.000 OA
ATOM     13  H   UNL     1       5.963   7.208  16.106  0.00  0.00    +0.000 HD
ENDBRANCH  11  12
BRANCH  11  14
ATOM     14  C   UNL     1       6.912   4.808  15.926  0.00  0.00    +0.000 C 
BRANCH  14  15
ATOM     15  O   UNL     1       7.653   5.371  14.847  0.00  0.00    +0.000 OA
ATOM     16  H   UNL     1       7.232   5.084  14.017  0.00  0.00    +0.000 HD
ENDBRANCH  14  15
ENDBRANCH  11  14
ENDBRANCH  10  11
ENDBRANCH   9  10
ENDBRANCH   6   9
TORSDOF 7
ENDMDL
