MODEL 1
REMARK VINA RESULT:      -7.6      0.000      0.000
REMARK  Name = 
REMARK  4 active torsions:
REMARK  status: ('A' for Active; 'I' for Inactive)
REMARK    1  A    between atoms: C_1  and  O_2
REMARK    2  A    between atoms: O_2  and  C_3
REMARK    3  A    between atoms: C_8  and  N_9
REMARK    4  A    between atoms: C_13  and  C_15
REMARK                            x       y       z     vdW  Elec       q    Type
REMARK                         _______ _______ _______ _____ _____    ______ ____
ROOT
ATOM      1  N   UNL     1       7.317   6.954  17.296  0.00  0.00    +0.000 N 
ATOM      2  C   UNL     1       8.036   6.864  18.464  0.00  0.00    +0.000 C 
ATOM      3  O   UNL     1       8.277   5.844  19.102  0.00  0.00    +0.000 OA
ATOM      4  N   UNL     1       8.562   8.042  18.943  0.00  0.00    +0.000 N 
ATOM      5  C   UNL     1       8.481   9.292  18.368  0.00  0.00    +0.000 C 
ATOM      6  O   UNL     1       7.767   9.540  17.395  0.00  0.00    +0.000 OA
ATOM      7  H   UNL     1       7.358   7.842  16.795  0.00  0.00    +0.000 HD
ATOM      8  H   UNL     1       9.153   7.885  19.744  0.00  0.00    +0.000 HD
ENDROOT
BRANCH   1  14
ATOM      9  C   UNL     1       5.322   5.550  17.210  0.00  0.00    +0.000 A 
ATOM     10  C   UNL     1       4.619   4.484  16.628  0.00  0.00    +0.000 A 
ATOM     11  C   UNL     1       5.117   3.832  15.502  0.00  0.00    +0.000 A 
ATOM     12  C   UNL     1       6.329   4.227  14.955  0.00  0.00    +0.000 A 
ATOM     13  C   UNL     1       7.055   5.265  15.536  0.00  0.00    +0.000 A 
ATOM     14  C   UNL     1       6.567   5.934  16.667  0.00  0.00    +0.000 A 
BRANCH   9  16
ATOM     15  C   UNL     1       4.215   5.458  19.302  0.00  0.00    +0.000 C 
ATOM     16  O   UNL     1       4.852   6.249  18.299  0.00  0.00    +0.000 OA
ENDBRANCH   9  16
ENDBRANCH   1  14
BRANCH   5  17
ATOM     17  C   UNL     1       9.331  10.369  18.933  0.00  0.00    +0.000 A 
ATOM     18  C   UNL     1      10.122  11.076  18.011  0.00  0.00    +0.000 A 
ATOM     19  C   UNL     1      10.975  12.091  18.439  0.00  0.00    +0.000 A 
ATOM     20  C   UNL     1      11.039  12.413  19.791  0.00  0.00    +0.000 A 
ATOM     21  C   UNL     1      10.247  11.724  20.714  0.00  0.00    +0.000 A 
ATOM     22  C   UNL     1       9.390  10.704  20.290  0.00  0.00    +0.000 A 
ENDBRANCH   5  17
TORSDOF 3
ENDMDL
MODEL 2
REMARK VINA RESULT:      -7.5      1.064      2.330
REMARK  Name = 
REMARK  4 active torsions:
REMARK  status: ('A' for Active; 'I' for Inactive)
REMARK    1  A    between atoms: C_1  and  O_2
REMARK    2  A    between atoms: O_2  and  C_3
REMARK    3  A    between atoms: C_8  and  N_9
REMARK    4  A    between atoms: C_13  and  C_15
REMARK                            x       y       z     vdW  Elec       q    Type
REMARK                         _______ _______ _______ _____ _____    ______ ____
ROOT
ATOM      1  N   UNL     1       7.045   6.883  17.695  0.00  0.00    +0.000 N 
ATOM      2  C   UNL     1       7.997   6.819  18.683  0.00  0.00    +0.000 C 
ATOM      3  O   UNL     1       8.354   5.818  19.298  0.00  0.00    +0.000 OA
ATOM      4  N   UNL     1       8.636   8.000  18.986  0.00  0.00    +0.000 N 
ATOM      5  C   UNL     1       8.454   9.229  18.388  0.00  0.00    +0.000 C 
ATOM      6  O   UNL     1       7.550   9.457  17.583  0.00  0.00    +0.000 OA
ATOM      7  H   UNL     1       6.992   7.750  17.159  0.00  0.00    +0.000 HD
ATOM      8  H   UNL     1       9.383   7.859  19.647  0.00  0.00    +0.000 HD
ENDROOT
BRANCH   1  14
ATOM      9  C   UNL     1       6.367   5.210  16.052  0.00  0.00    +0.000 A 
ATOM     10  C   UNL     1       5.441   4.251  15.616  0.00  0.00    +0.000 A 
ATOM     11  C   UNL     1       4.345   3.908  16.405  0.00  0.00    +0.000 A 
ATOM     12  C   UNL     1       4.155   4.530  17.630  0.00  0.00    +0.000 A 
ATOM     13  C   UNL     1       5.049   5.505  18.067  0.00  0.00    +0.000 A 
ATOM     14  C   UNL     1       6.159   5.860  17.288  0.00  0.00    +0.000 A 
BRANCH   9  16
ATOM     15  C   UNL     1       7.470   5.149  13.956  0.00  0.00    +0.000 C 
ATOM     16  O   UNL     1       7.486   5.554  15.326  0.00  0.00    +0.000 OA
ENDBRANCH   9  16
ENDBRANCH   1  14
BRANCH   5  17
ATOM     17  C   UNL     1       9.425  10.303  18.710  0.00  0.00    +0.000 A 
ATOM     18  C   UNL     1       9.557  10.627  20.071  0.00  0.00    +0.000 A 
ATOM     19  C   UNL     1      10.423  11.638  20.480  0.00  0.00    +0.000 A 
ATOM     20  C   UNL     1      11.172  12.329  19.533  0.00  0.00    +0.000 A 
ATOM     21  C   UNL     1      11.058  12.006  18.178  0.00  0.00    +0.000 A 
ATOM     22  C   UNL     1      10.189  10.993  17.762  0.00  0.00    +0.000 A 
ENDBRANCH   5  17
TORSDOF 3
ENDMDL
MODEL 3
REMARK VINA RESULT:      -7.5      0.147      1.087
REMARK  Name = 
REMARK  4 active torsions:
REMARK  status: ('A' for Active; 'I' for Inactive)
REMARK    1  A    between atoms: C_1  and  O_2
REMARK    2  A    between atoms: O_2  and  C_3
REMARK    3  A    between atoms: C_8  and  N_9
REMARK    4  A    between atoms: C_13  and  C_15
REMARK                            x       y       z     vdW  Elec       q    Type
REMARK                         _______ _______ _______ _____ _____    ______ ____
ROOT
ATOM      1  N   UNL     1       7.288   6.912  17.239  0.00  0.00    +0.000 N 
ATOM      2  C   UNL     1       7.987   6.867  18.421  0.00  0.00    +0.000 C 
ATOM      3  O   UNL     1       8.207   5.873  19.107  0.00  0.00    +0.000 OA
ATOM      4  N   UNL     1       8.521   8.059  18.856  0.00  0.00    +0.000 N 
ATOM      5  C   UNL     1       8.464   9.283  18.225  0.00  0.00    +0.000 C 
ATOM      6  O   UNL     1       7.768   9.494  17.231  0.00  0.00    +0.000 OA
ATOM      7  H   UNL     1       7.348   7.777  16.699  0.00  0.00    +0.000 HD
ATOM      8  H   UNL     1       9.097   7.931  19.673  0.00  0.00    +0.000 HD
ENDROOT
BRANCH   1  14
ATOM      9  C   UNL     1       5.292   5.509  17.201  0.00  0.00    +0.000 A 
ATOM     10  C   UNL     1       4.587   4.426  16.653  0.00  0.00    +0.000 A 
ATOM     11  C   UNL     1       5.082   3.738  15.548  0.00  0.00    +0.000 A 
ATOM     12  C   UNL     1       6.294   4.114  14.986  0.00  0.00    +0.000 A 
ATOM     13  C   UNL     1       7.021   5.169  15.534  0.00  0.00    +0.000 A 
ATOM     14  C   UNL     1       6.537   5.874  16.643  0.00  0.00    +0.000 A 
BRANCH   9  16
ATOM     15  C   UNL     1       4.276   5.476  19.340  0.00  0.00    +0.000 C 
ATOM     16  O   UNL     1       4.824   6.243  18.267  0.00  0.00    +0.000 OA
ENDBRANCH   9  16
ENDBRANCH   1  14
BRANCH   5  17
ATOM     17  C   UNL     1       9.318  10.373  18.755  0.00  0.00    +0.000 A 
ATOM     18  C   UNL     1       9.287  10.557  20.148  0.00  0.00    +0.000 A 
ATOM     19  C   UNL     1      10.033  11.568  20.748  0.00  0.00    +0.000 A 
ATOM     20  C   UNL     1      10.822  12.402  19.962  0.00  0.00    +0.000 A 
ATOM     21  C   UNL     1      10.869  12.220  18.577  0.00  0.00    +0.000 A 
ATOM     22  C   UNL     1      10.121  11.206  17.969  0.00  0.00    +0.000 A 
ENDBRANCH   5  17
TORSDOF 3
ENDMDL
MODEL 4
REMARK VINA RESULT:      -7.4      1.087      2.079
REMARK  Name = 
REMARK  4 active torsions:
REMARK  status: ('A' for Active; 'I' for Inactive)
REMARK    1  A    between atoms: C_1  and  O_2
REMARK    2  A    between atoms: O_2  and  C_3
REMARK    3  A    between atoms: C_8  and  N_9
REMARK    4  A    between atoms: C_13  and  C_15
REMARK                            x       y       z     vdW  Elec       q    Type
REMARK                         _______ _______ _______ _____ _____    ______ ____
ROOT
ATOM      1  N   UNL     1       7.004   6.929  17.664  0.00  0.00    +0.000 N 
ATOM      2  C   UNL     1       7.968   6.824  18.637  0.00  0.00    +0.000 C 
ATOM      3  O   UNL     1       8.325   5.799  19.211  0.00  0.00    +0.000 OA
ATOM      4  N   UNL     1       8.619   7.989  18.974  0.00  0.00    +0.000 N 
ATOM      5  C   UNL     1       8.439   9.239  18.422  0.00  0.00    +0.000 C 
ATOM      6  O   UNL     1       7.527   9.502  17.636  0.00  0.00    +0.000 OA
ATOM      7  H   UNL     1       6.951   7.815  17.159  0.00  0.00    +0.000 HD
ATOM      8  H   UNL     1       9.373   7.819  19.620  0.00  0.00    +0.000 HD
ENDROOT
BRANCH   1  14
ATOM      9  C   UNL     1       6.336   5.269  16.003  0.00  0.00    +0.000 A 
ATOM     10  C   UNL     1       5.400   4.332  15.541  0.00  0.00    +0.000 A 
ATOM     11  C   UNL     1       4.272   4.018  16.297  0.00  0.00    +0.000 A 
ATOM     12  C   UNL     1       4.060   4.648  17.515  0.00  0.00    +0.000 A 
ATOM     13  C   UNL     1       4.965   5.602  17.977  0.00  0.00    +0.000 A 
ATOM     14  C   UNL     1       6.106   5.927  17.231  0.00  0.00    +0.000 A 
BRANCH   9  16
ATOM     15  C   UNL     1       7.510   5.152  13.950  0.00  0.00    +0.000 C 
ATOM     16  O   UNL     1       7.484   5.583  15.311  0.00  0.00    +0.000 OA
ENDBRANCH   9  16
ENDBRANCH   1  14
BRANCH   5  17
ATOM     17  C   UNL     1       9.422  10.295  18.769  0.00  0.00    +0.000 A 
ATOM     18  C   UNL     1      10.083  10.901  17.686  0.00  0.00    +0.000 A 
ATOM     19  C   UNL     1      11.042  11.887  17.901  0.00  0.00    +0.000 A 
ATOM     20  C   UNL     1      11.344  12.282  19.201  0.00  0.00    +0.000 A 
ATOM     21  C   UNL     1      10.683  11.696  20.283  0.00  0.00    +0.000 A 
ATOM     22  C   UNL     1       9.720  10.704  20.073  0.00  0.00    +0.000 A 
ENDBRANCH   5  17
TORSDOF 3
ENDMDL
MODEL 5
REMARK VINA RESULT:      -7.4      5.309      7.033
REMARK  Name = 
REMARK  4 active torsions:
REMARK  status: ('A' for Active; 'I' for Inactive)
REMARK    1  A    between atoms: C_1  and  O_2
REMARK    2  A    between atoms: O_2  and  C_3
REMARK    3  A    between atoms: C_8  and  N_9
REMARK    4  A    between atoms: C_13  and  C_15
REMARK                            x       y       z     vdW  Elec       q    Type
REMARK                         _______ _______ _______ _____ _____    ______ ____
ROOT
ATOM      1  N   UNL     1       4.202   3.833  18.212  0.00  0.00    +0.000 N 
ATOM      2  C   UNL     1       5.482   4.324  18.126  0.00  0.00    +0.000 C 
ATOM      3  O   UNL     1       6.247   4.552  19.059  0.00  0.00    +0.000 OA
ATOM      4  N   UNL     1       5.960   4.551  16.856  0.00  0.00    +0.000 N 
ATOM      5  C   UNL     1       5.316   4.308  15.662  0.00  0.00    +0.000 C 
ATOM      6  O   UNL     1       4.127   3.991  15.592  0.00  0.00    +0.000 OA
ATOM      7  H   UNL     1       3.764   3.529  17.342  0.00  0.00    +0.000 HD
ATOM      8  H   UNL     1       6.932   4.817  16.867  0.00  0.00    +0.000 HD
ENDROOT
BRANCH   1  14
ATOM      9  C   UNL     1       2.437   4.583  19.722  0.00  0.00    +0.000 A 
ATOM     10  C   UNL     1       1.729   4.429  20.924  0.00  0.00    +0.000 A 
ATOM     11  C   UNL     1       1.970   3.341  21.759  0.00  0.00    +0.000 A 
ATOM     12  C   UNL     1       2.931   2.402  21.411  0.00  0.00    +0.000 A 
ATOM     13  C   UNL     1       3.663   2.554  20.235  0.00  0.00    +0.000 A 
ATOM     14  C   UNL     1       3.432   3.641  19.381  0.00  0.00    +0.000 A 
BRANCH   9  16
ATOM     15  C   UNL     1       2.562   6.916  19.331  0.00  0.00    +0.000 C 
ATOM     16  O   UNL     1       2.206   5.620  18.846  0.00  0.00    +0.000 OA
ENDBRANCH   9  16
ENDBRANCH   1  14
BRANCH   5  17
ATOM     17  C   UNL     1       6.114   4.398  14.415  0.00  0.00    +0.000 A 
ATOM     18  C   UNL     1       5.690   3.582  13.352  0.00  0.00    +0.000 A 
ATOM     19  C   UNL     1       6.384   3.571  12.145  0.00  0.00    +0.000 A 
ATOM     20  C   UNL     1       7.503   4.381  11.985  0.00  0.00    +0.000 A 
ATOM     21  C   UNL     1       7.926   5.206  13.032  0.00  0.00    +0.000 A 
ATOM     22  C   UNL     1       7.234   5.220  14.247  0.00  0.00    +0.000 A 
ENDBRANCH   5  17
TORSDOF 3
ENDMDL
MODEL 6
REMARK VINA RESULT:      -7.3      5.457      7.365
REMARK  Name = 
REMARK  4 active torsions:
REMARK  status: ('A' for Active; 'I' for Inactive)
REMARK    1  A    between atoms: C_1  and  O_2
REMARK    2  A    between atoms: O_2  and  C_3
REMARK    3  A    between atoms: C_8  and  N_9
REMARK    4  A    between atoms: C_13  and  C_15
REMARK                            x       y       z     vdW  Elec       q    Type
REMARK                         _______ _______ _______ _____ _____    ______ ____
ROOT
ATOM      1  N   UNL     1       2.484   6.925  18.673  0.00  0.00    +0.000 N 
ATOM      2  C   UNL     1       2.171   8.211  18.304  0.00  0.00    +0.000 C 
ATOM      3  O   UNL     1       2.360   8.727  17.206  0.00  0.00    +0.000 OA
ATOM      4  N   UNL     1       1.553   8.983  19.261  0.00  0.00    +0.000 N 
ATOM      5  C   UNL     1       1.180   8.602  20.533  0.00  0.00    +0.000 C 
ATOM      6  O   UNL     1       1.510   7.528  21.036  0.00  0.00    +0.000 OA
ATOM      7  H   UNL     1       2.100   6.592  19.558  0.00  0.00    +0.000 HD
ATOM      8  H   UNL     1       1.269   9.876  18.891  0.00  0.00    +0.000 HD
ENDROOT
BRANCH   1  14
ATOM      9  C   UNL     1       2.725   4.669  17.773  0.00  0.00    +0.000 A 
ATOM     10  C   UNL     1       3.506   3.710  17.110  0.00  0.00    +0.000 A 
ATOM     11  C   UNL     1       4.751   4.045  16.582  0.00  0.00    +0.000 A 
ATOM     12  C   UNL     1       5.236   5.337  16.724  0.00  0.00    +0.000 A 
ATOM     13  C   UNL     1       4.487   6.295  17.404  0.00  0.00    +0.000 A 
ATOM     14  C   UNL     1       3.231   5.977  17.938  0.00  0.00    +0.000 A 
BRANCH   9  16
ATOM     15  C   UNL     1       1.262   3.042  18.679  0.00  0.00    +0.000 C 
ATOM     16  O   UNL     1       1.473   4.396  18.276  0.00  0.00    +0.000 OA
ENDBRANCH   9  16
ENDBRANCH   1  14
BRANCH   5  17
ATOM     17  C   UNL     1       0.309   9.524  21.301  0.00  0.00    +0.000 A 
ATOM     18  C   UNL     1      -0.145  10.661  20.611  0.00  0.00    +0.000 A 
ATOM     19  C   UNL     1      -0.949  11.604  21.247  0.00  0.00    +0.000 A 
ATOM     20  C   UNL     1      -1.314  11.415  22.576  0.00  0.00    +0.000 A 
ATOM     21  C   UNL     1      -0.878  10.281  23.268  0.00  0.00    +0.000 A 
ATOM     22  C   UNL     1      -0.070   9.332  22.634  0.00  0.00    +0.000 A 
ENDBRANCH   5  17
TORSDOF 3
ENDMDL
MODEL 7
REMARK VINA RESULT:      -7.2      5.335      7.027
REMARK  Name = 
REMARK  4 active torsions:
REMARK  status: ('A' for Active; 'I' for Inactive)
REMARK    1  A    between atoms: C_1  and  O_2
REMARK    2  A    between atoms: O_2  and  C_3
REMARK    3  A    between atoms: C_8  and  N_9
REMARK    4  A    between atoms: C_13  and  C_15
REMARK                            x       y       z     vdW  Elec       q    Type
REMARK                         _______ _______ _______ _____ _____    ______ ____
ROOT
ATOM      1  N   UNL     1       4.254   3.878  18.192  0.00  0.00    +0.000 N 
ATOM      2  C   UNL     1       5.568   4.257  18.056  0.00  0.00    +0.000 C 
ATOM      3  O   UNL     1       6.385   4.414  18.958  0.00  0.00    +0.000 OA
ATOM      4  N   UNL     1       6.014   4.446  16.768  0.00  0.00    +0.000 N 
ATOM      5  C   UNL     1       5.304   4.265  15.600  0.00  0.00    +0.000 C 
ATOM      6  O   UNL     1       4.091   4.052  15.576  0.00  0.00    +0.000 OA
ATOM      7  H   UNL     1       3.758   3.616  17.339  0.00  0.00    +0.000 HD
ATOM      8  H   UNL     1       7.005   4.627  16.741  0.00  0.00    +0.000 HD
ENDROOT
BRANCH   1  14
ATOM      9  C   UNL     1       2.788   4.854  19.882  0.00  0.00    +0.000 A 
ATOM     10  C   UNL     1       2.121   4.744  21.112  0.00  0.00    +0.000 A 
ATOM     11  C   UNL     1       2.138   3.549  21.828  0.00  0.00    +0.000 A 
ATOM     12  C   UNL     1       2.834   2.456  21.331  0.00  0.00    +0.000 A 
ATOM     13  C   UNL     1       3.525   2.556  20.125  0.00  0.00    +0.000 A 
ATOM     14  C   UNL     1       3.516   3.749  19.390  0.00  0.00    +0.000 A 
BRANCH   9  16
ATOM     15  C   UNL     1       2.234   7.154  19.772  0.00  0.00    +0.000 C 
ATOM     16  O   UNL     1       2.767   6.001  19.120  0.00  0.00    +0.000 OA
ENDBRANCH   9  16
ENDBRANCH   1  14
BRANCH   5  17
ATOM     17  C   UNL     1       6.059   4.290  14.323  0.00  0.00    +0.000 A 
ATOM     18  C   UNL     1       7.166   5.155  14.279  0.00  0.00    +0.000 A 
ATOM     19  C   UNL     1       7.929   5.273  13.120  0.00  0.00    +0.000 A 
ATOM     20  C   UNL     1       7.597   4.523  11.997  0.00  0.00    +0.000 A 
ATOM     21  C   UNL     1       6.506   3.651  12.034  0.00  0.00    +0.000 A 
ATOM     22  C   UNL     1       5.736   3.529  13.195  0.00  0.00    +0.000 A 
ENDBRANCH   5  17
TORSDOF 3
ENDMDL
MODEL 8
REMARK VINA RESULT:      -7.2      5.478      7.424
REMARK  Name = 
REMARK  4 active torsions:
REMARK  status: ('A' for Active; 'I' for Inactive)
REMARK    1  A    between atoms: C_1  and  O_2
REMARK    2  A    between atoms: O_2  and  C_3
REMARK    3  A    between atoms: C_8  and  N_9
REMARK    4  A    between atoms: C_13  and  C_15
REMARK                            x       y       z     vdW  Elec       q    Type
REMARK                         _______ _______ _______ _____ _____    ______ ____
ROOT
ATOM      1  N   UNL     1       2.465   6.950  18.690  0.00  0.00    +0.000 N 
ATOM      2  C   UNL     1       2.181   8.230  18.279  0.00  0.00    +0.000 C 
ATOM      3  O   UNL     1       2.386   8.707  17.167  0.00  0.00    +0.000 OA
ATOM      4  N   UNL     1       1.575   9.045  19.207  0.00  0.00    +0.000 N 
ATOM      5  C   UNL     1       1.188   8.713  20.488  0.00  0.00    +0.000 C 
ATOM      6  O   UNL     1       1.492   7.648  21.028  0.00  0.00    +0.000 OA
ATOM      7  H   UNL     1       2.070   6.654  19.583  0.00  0.00    +0.000 HD
ATOM      8  H   UNL     1       1.312   9.932  18.807  0.00  0.00    +0.000 HD
ENDROOT
BRANCH   1  14
ATOM      9  C   UNL     1       2.641   4.675  17.822  0.00  0.00    +0.000 A 
ATOM     10  C   UNL     1       3.402   3.677  17.195  0.00  0.00    +0.000 A 
ATOM     11  C   UNL     1       4.676   3.955  16.704  0.00  0.00    +0.000 A 
ATOM     12  C   UNL     1       5.210   5.228  16.848  0.00  0.00    +0.000 A 
ATOM     13  C   UNL     1       4.479   6.224  17.494  0.00  0.00    +0.000 A 
ATOM     14  C   UNL     1       3.195   5.964  17.990  0.00  0.00    +0.000 A 
BRANCH   9  16
ATOM     15  C   UNL     1       1.260   3.549  19.382  0.00  0.00    +0.000 C 
ATOM     16  O   UNL     1       1.363   4.460  18.287  0.00  0.00    +0.000 OA
ENDBRANCH   9  16
ENDBRANCH   1  14
BRANCH   5  17
ATOM     17  C   UNL     1       0.333   9.677  21.223  0.00  0.00    +0.000 A 
ATOM     18  C   UNL     1      -0.019   9.314  22.534  0.00  0.00    +0.000 A 
ATOM     19  C   UNL     1      -0.838  10.135  23.303  0.00  0.00    +0.000 A 
ATOM     20  C   UNL     1      -1.308  11.332  22.772  0.00  0.00    +0.000 A 
ATOM     21  C   UNL     1      -0.953  11.710  21.474  0.00  0.00    +0.000 A 
ATOM     22  C   UNL     1      -0.131  10.887  20.697  0.00  0.00    +0.000 A 
ENDBRANCH   5  17
TORSDOF 3
ENDMDL
MODEL 9
REMARK VINA RESULT:      -7.1      3.748      6.402
REMARK  Name = 
REMARK  4 active torsions:
REMARK  status: ('A' for Active; 'I' for Inactive)
REMARK    1  A    between atoms: C_1  and  O_2
REMARK    2  A    between atoms: O_2  and  C_3
REMARK    3  A    between atoms: C_8  and  N_9
REMARK    4  A    between atoms: C_13  and  C_15
REMARK                            x       y       z     vdW  Elec       q    Type
REMARK                         _______ _______ _______ _____ _____    ______ ____
ROOT
ATOM      1  N   UNL     1       4.040   6.244  17.921  0.00  0.00    +0.000 N 
ATOM      2  C   UNL     1       3.636   5.867  19.179  0.00  0.00    +0.000 C 
ATOM      3  O   UNL     1       4.051   4.913  19.830  0.00  0.00    +0.000 OA
ATOM      4  N   UNL     1       2.689   6.668  19.777  0.00  0.00    +0.000 N 
ATOM      5  C   UNL     1       2.128   7.822  19.273  0.00  0.00    +0.000 C 
ATOM      6  O   UNL     1       2.302   8.203  18.115  0.00  0.00    +0.000 OA
ATOM      7  H   UNL     1       3.732   7.160  17.591  0.00  0.00    +0.000 HD
ATOM      8  H   UNL     1       2.513   6.387  20.728  0.00  0.00    +0.000 HD
ENDROOT
BRANCH   1  14
ATOM      9  C   UNL     1       6.063   6.152  16.559  0.00  0.00    +0.000 A 
ATOM     10  C   UNL     1       6.861   5.473  15.625  0.00  0.00    +0.000 A 
ATOM     11  C   UNL     1       6.528   4.188  15.203  0.00  0.00    +0.000 A 
ATOM     12  C   UNL     1       5.386   3.573  15.697  0.00  0.00    +0.000 A 
ATOM     13  C   UNL     1       4.566   4.243  16.603  0.00  0.00    +0.000 A 
ATOM     14  C   UNL     1       4.889   5.535  17.042  0.00  0.00    +0.000 A 
BRANCH   9  16
ATOM     15  C   UNL     1       7.643   7.516  17.679  0.00  0.00    +0.000 C 
ATOM     16  O   UNL     1       6.373   7.406  17.035  0.00  0.00    +0.000 OA
ENDBRANCH   9  16
ENDBRANCH   1  14
BRANCH   5  17
ATOM     17  C   UNL     1       1.313   8.652  20.193  0.00  0.00    +0.000 A 
ATOM     18  C   UNL     1       0.633   9.734  19.607  0.00  0.00    +0.000 A 
ATOM     19  C   UNL     1      -0.141  10.591  20.385  0.00  0.00    +0.000 A 
ATOM     20  C   UNL     1      -0.250  10.370  21.754  0.00  0.00    +0.000 A 
ATOM     21  C   UNL     1       0.412   9.290  22.345  0.00  0.00    +0.000 A 
ATOM     22  C   UNL     1       1.192   8.427  21.568  0.00  0.00    +0.000 A 
ENDBRANCH   5  17
TORSDOF 3
ENDMDL
