MODEL 1
REMARK VINA RESULT:      -7.1      0.000      0.000
REMARK  Name = 
REMARK  14 active torsions:
REMARK  status: ('A' for Active; 'I' for Inactive)
REMARK    1  A    between atoms: C_1  and  C_2
REMARK    2  A    between atoms: C_2  and  C_3
REMARK    3  A    between atoms: C_2  and  C_4
REMARK    4  A    between atoms: C_4  and  N_5
REMARK    5  A    between atoms: C_4  and  C_15
REMARK    6  A    between atoms: C_6  and  O_8
REMARK    7  A    between atoms: O_8  and  C_9
REMARK    8  A    between atoms: C_9  and  C_10
REMARK    9  A    between atoms: N_17  and  C_18
REMARK   10  A    between atoms: C_18  and  C_19
REMARK   11  A    between atoms: C_18  and  C_23
REMARK   12  A    between atoms: C_19  and  C_20
REMARK   13  A    between atoms: C_20  and  O_22
REMARK   14  A    between atoms: C_23  and  C_25
REMARK                            x       y       z     vdW  Elec       q    Type
REMARK                         _______ _______ _______ _____ _____    ______ ____
ROOT
ATOM      1  C   UNL     1       3.182   4.069  19.463  0.00  0.00    +0.000 C 
ENDROOT
BRANCH   1   2
ATOM      2  N   UNL     1       3.032   5.522  19.500  0.00  0.00    +0.000 N 
ATOM      3  C   UNL     1       2.113   6.172  20.260  0.00  0.00    +0.000 C 
ATOM      4  O   UNL     1       1.330   5.630  21.023  0.00  0.00    +0.000 OA
ATOM      5  H   UNL     1       3.518   6.079  18.806  0.00  0.00    +0.000 HD
BRANCH   3   6
ATOM      6  O   UNL     1       2.148   7.499  19.988  0.00  0.00    +0.000 OA
BRANCH   6   7
ATOM      7  C   UNL     1       1.439   8.352  20.903  0.00  0.00    +0.000 C 
BRANCH   7   8
ATOM      8  C   UNL     1       0.936   9.662  20.299  0.00  0.00    +0.000 C 
ATOM      9  C   UNL     1       0.749   9.642  18.785  0.00  0.00    +0.000 C 
ATOM     10  C   UNL     1      -0.115  10.875  18.526  0.00  0.00    +0.000 C 
ATOM     11  C   UNL     1      -0.967  11.060  19.783  0.00  0.00    +0.000 C 
ATOM     12  C   UNL     1      -0.463  10.032  20.792  0.00  0.00    +0.000 C 
ENDBRANCH   7   8
ENDBRANCH   6   7
ENDBRANCH   3   6
ENDBRANCH   1   2
BRANCH   1  13
ATOM     13  C   UNL     1       4.674   3.788  19.165  0.00  0.00    +0.000 C 
ATOM     14  O   UNL     1       5.295   2.865  19.692  0.00  0.00    +0.000 OA
ATOM     15  N   UNL     1       5.270   4.626  18.253  0.00  0.00    +0.000 N 
ATOM     16  H   UNL     1       4.754   5.417  17.866  0.00  0.00    +0.000 HD
BRANCH  15  17
ATOM     17  C   UNL     1       6.716   4.612  17.993  0.00  0.00    +0.000 C 
BRANCH  17  18
ATOM     18  C   UNL     1       7.373   5.690  18.870  0.00  0.00    +0.000 C 
ATOM     19  O   UNL     1       7.531   5.512  20.082  0.00  0.00    +0.000 OA
BRANCH  18  20
ATOM     20  C   UNL     1       7.788   6.973  18.190  0.00  0.00    +0.000 C 
ATOM     21  F   UNL     1       8.738   7.633  18.912  0.00  0.00    +0.000 F 
ENDBRANCH  18  20
ENDBRANCH  17  18
BRANCH  17  22
ATOM     22  C   UNL     1       7.023   4.781  16.512  0.00  0.00    +0.000 C 
BRANCH  22  23
ATOM     23  C   UNL     1       5.768   5.079  15.744  0.00  0.00    +0.000 C 
ATOM     24  O   UNL     1       5.072   4.208  15.246  0.00  0.00    +0.000 OA
BRANCH  23  25
ATOM     25  O   UNL     1       5.516   6.396  15.597  0.00  0.00    +0.000 OA
ATOM     26  H   UNL     1       6.064   6.970  16.169  0.00  0.00    +0.000 HD
ENDBRANCH  23  25
ENDBRANCH  22  23
ENDBRANCH  17  22
ENDBRANCH  15  17
ENDBRANCH   1  13
BRANCH   1  28
ATOM     27  C   UNL     1       1.571   4.345  17.476  0.00  0.00    +0.000 C 
ATOM     28  C   UNL     1       2.226   3.372  18.460  0.00  0.00    +0.000 C 
ATOM     29  C   UNL     1       1.155   2.523  19.148  0.00  0.00    +0.000 C 
ENDBRANCH   1  28
TORSDOF 12
ENDMDL
MODEL 2
REMARK VINA RESULT:      -7.1      0.951      1.489
REMARK  Name = 
REMARK  14 active torsions:
REMARK  status: ('A' for Active; 'I' for Inactive)
REMARK    1  A    between atoms: C_1  and  C_2
REMARK    2  A    between atoms: C_2  and  C_3
REMARK    3  A    between atoms: C_2  and  C_4
REMARK    4  A    between atoms: C_4  and  N_5
REMARK    5  A    between atoms: C_4  and  C_15
REMARK    6  A    between atoms: C_6  and  O_8
REMARK    7  A    between atoms: O_8  and  C_9
REMARK    8  A    between atoms: C_9  and  C_10
REMARK    9  A    between atoms: N_17  and  C_18
REMARK   10  A    between atoms: C_18  and  C_19
REMARK   11  A    between atoms: C_18  and  C_23
REMARK   12  A    between atoms: C_19  and  C_20
REMARK   13  A    between atoms: C_20  and  O_22
REMARK   14  A    between atoms: C_23  and  C_25
REMARK                            x       y       z     vdW  Elec       q    Type
REMARK                         _______ _______ _______ _____ _____    ______ ____
ROOT
ATOM      1  C   UNL     1       3.016   4.575  19.118  0.00  0.00    +0.000 C 
ENDROOT
BRANCH   1   2
ATOM      2  N   UNL     1       2.824   5.792  18.332  0.00  0.00    +0.000 N 
ATOM      3  C   UNL     1       2.383   6.969  18.849  0.00  0.00    +0.000 C 
ATOM      4  O   UNL     1       2.128   7.160  20.027  0.00  0.00    +0.000 OA
ATOM      5  H   UNL     1       2.859   5.729  17.321  0.00  0.00    +0.000 HD
BRANCH   3   6
ATOM      6  O   UNL     1       2.202   7.868  17.852  0.00  0.00    +0.000 OA
BRANCH   6   7
ATOM      7  C   UNL     1       2.448   9.244  18.188  0.00  0.00    +0.000 C 
BRANCH   7   8
ATOM      8  C   UNL     1       1.193  10.102  18.336  0.00  0.00    +0.000 C 
ATOM      9  C   UNL     1      -0.075   9.494  17.747  0.00  0.00    +0.000 C 
ATOM     10  C   UNL     1      -1.187  10.329  18.379  0.00  0.00    +0.000 C 
ATOM     11  C   UNL     1      -0.655  10.769  19.744  0.00  0.00    +0.000 C 
ATOM     12  C   UNL     1       0.800  10.314  19.799  0.00  0.00    +0.000 C 
ENDBRANCH   7   8
ENDBRANCH   6   7
ENDBRANCH   3   6
ENDBRANCH   1   2
BRANCH   1  13
ATOM     13  C   UNL     1       4.493   4.156  18.928  0.00  0.00    +0.000 C 
ATOM     14  O   UNL     1       5.006   3.228  19.552  0.00  0.00    +0.000 OA
ATOM     15  N   UNL     1       5.203   4.876  17.997  0.00  0.00    +0.000 N 
ATOM     16  H   UNL     1       4.776   5.675  17.527  0.00  0.00    +0.000 HD
BRANCH  15  17
ATOM     17  C   UNL     1       6.655   4.729  17.823  0.00  0.00    +0.000 C 
BRANCH  17  18
ATOM     18  C   UNL     1       7.354   5.755  18.729  0.00  0.00    +0.000 C 
ATOM     19  O   UNL     1       7.562   5.510  19.923  0.00  0.00    +0.000 OA
BRANCH  18  20
ATOM     20  C   UNL     1       7.747   7.072  18.104  0.00  0.00    +0.000 C 
ATOM     21  F   UNL     1       8.687   7.717  18.852  0.00  0.00    +0.000 F 
ENDBRANCH  18  20
ENDBRANCH  17  18
BRANCH  17  22
ATOM     22  C   UNL     1       7.063   4.850  16.362  0.00  0.00    +0.000 C 
BRANCH  22  23
ATOM     23  C   UNL     1       5.885   5.241  15.517  0.00  0.00    +0.000 C 
ATOM     24  O   UNL     1       5.521   6.399  15.380  0.00  0.00    +0.000 OA
BRANCH  23  25
ATOM     25  O   UNL     1       5.227   4.194  14.978  0.00  0.00    +0.000 OA
ATOM     26  H   UNL     1       4.394   4.441  14.528  0.00  0.00    +0.000 HD
ENDBRANCH  23  25
ENDBRANCH  22  23
ENDBRANCH  17  22
ENDBRANCH  15  17
ENDBRANCH   1  13
BRANCH   1  28
ATOM     27  C   UNL     1       1.703   2.521  19.941  0.00  0.00    +0.000 C 
ATOM     28  C   UNL     1       2.018   3.442  18.760  0.00  0.00    +0.000 C 
ATOM     29  C   UNL     1       2.466   2.612  17.555  0.00  0.00    +0.000 C 
ENDBRANCH   1  28
TORSDOF 12
ENDMDL
MODEL 3
REMARK VINA RESULT:      -7.0      1.225      1.655
REMARK  Name = 
REMARK  14 active torsions:
REMARK  status: ('A' for Active; 'I' for Inactive)
REMARK    1  A    between atoms: C_1  and  C_2
REMARK    2  A    between atoms: C_2  and  C_3
REMARK    3  A    between atoms: C_2  and  C_4
REMARK    4  A    between atoms: C_4  and  N_5
REMARK    5  A    between atoms: C_4  and  C_15
REMARK    6  A    between atoms: C_6  and  O_8
REMARK    7  A    between atoms: O_8  and  C_9
REMARK    8  A    between atoms: C_9  and  C_10
REMARK    9  A    between atoms: N_17  and  C_18
REMARK   10  A    between atoms: C_18  and  C_19
REMARK   11  A    between atoms: C_18  and  C_23
REMARK   12  A    between atoms: C_19  and  C_20
REMARK   13  A    between atoms: C_20  and  O_22
REMARK   14  A    between atoms: C_23  and  C_25
REMARK                            x       y       z     vdW  Elec       q    Type
REMARK                         _______ _______ _______ _____ _____    ______ ____
ROOT
ATOM      1  C   UNL     1       3.260   4.933  19.280  0.00  0.00    +0.000 C 
ENDROOT
BRANCH   1   2
ATOM      2  N   UNL     1       3.184   6.186  18.533  0.00  0.00    +0.000 N 
ATOM      3  C   UNL     1       2.570   7.308  18.991  0.00  0.00    +0.000 C 
ATOM      4  O   UNL     1       2.043   7.416  20.087  0.00  0.00    +0.000 OA
ATOM      5  H   UNL     1       3.451   6.186  17.555  0.00  0.00    +0.000 HD
BRANCH   3   6
ATOM      6  O   UNL     1       2.570   8.258  18.025  0.00  0.00    +0.000 OA
BRANCH   6   7
ATOM      7  C   UNL     1       1.377   9.053  17.919  0.00  0.00    +0.000 C 
BRANCH   7   8
ATOM      8  C   UNL     1       1.436  10.398  18.642  0.00  0.00    +0.000 C 
ATOM      9  C   UNL     1       2.325  11.445  17.980  0.00  0.00    +0.000 C 
ATOM     10  C   UNL     1       1.885  12.747  18.646  0.00  0.00    +0.000 C 
ATOM     11  C   UNL     1       0.408  12.556  19.000  0.00  0.00    +0.000 C 
ATOM     12  C   UNL     1       0.079  11.102  18.676  0.00  0.00    +0.000 C 
ENDBRANCH   7   8
ENDBRANCH   6   7
ENDBRANCH   3   6
ENDBRANCH   1   2
BRANCH   1  13
ATOM     13  C   UNL     1       4.673   4.356  19.028  0.00  0.00    +0.000 C 
ATOM     14  O   UNL     1       5.100   3.362  19.616  0.00  0.00    +0.000 OA
ATOM     15  N   UNL     1       5.427   5.011  18.085  0.00  0.00    +0.000 N 
ATOM     16  H   UNL     1       5.077   5.863  17.645  0.00  0.00    +0.000 HD
BRANCH  15  17
ATOM     17  C   UNL     1       6.846   4.706  17.855  0.00  0.00    +0.000 C 
BRANCH  17  18
ATOM     18  C   UNL     1       7.689   5.698  18.671  0.00  0.00    +0.000 C 
ATOM     19  O   UNL     1       8.233   5.351  19.725  0.00  0.00    +0.000 OA
BRANCH  18  20
ATOM     20  C   UNL     1       7.799   7.108  18.142  0.00  0.00    +0.000 C 
ATOM     21  F   UNL     1       8.740   7.823  18.823  0.00  0.00    +0.000 F 
ENDBRANCH  18  20
ENDBRANCH  17  18
BRANCH  17  22
ATOM     22  C   UNL     1       7.191   4.712  16.373  0.00  0.00    +0.000 C 
BRANCH  22  23
ATOM     23  C   UNL     1       6.057   4.147  15.566  0.00  0.00    +0.000 C 
ATOM     24  O   UNL     1       5.364   4.829  14.826  0.00  0.00    +0.000 OA
BRANCH  23  25
ATOM     25  O   UNL     1       5.832   2.835  15.782  0.00  0.00    +0.000 OA
ATOM     26  H   UNL     1       5.162   2.446  15.185  0.00  0.00    +0.000 HD
ENDBRANCH  23  25
ENDBRANCH  22  23
ENDBRANCH  17  22
ENDBRANCH  15  17
ENDBRANCH   1  13
BRANCH   1  28
ATOM     27  C   UNL     1       1.471   4.215  17.576  0.00  0.00    +0.000 C 
ATOM     28  C   UNL     1       2.129   3.931  18.929  0.00  0.00    +0.000 C 
ATOM     29  C   UNL     1       1.060   3.832  20.019  0.00  0.00    +0.000 C 
ENDBRANCH   1  28
TORSDOF 12
ENDMDL
MODEL 4
REMARK VINA RESULT:      -6.8      2.166      4.663
REMARK  Name = 
REMARK  14 active torsions:
REMARK  status: ('A' for Active; 'I' for Inactive)
REMARK    1  A    between atoms: C_1  and  C_2
REMARK    2  A    between atoms: C_2  and  C_3
REMARK    3  A    between atoms: C_2  and  C_4
REMARK    4  A    between atoms: C_4  and  N_5
REMARK    5  A    between atoms: C_4  and  C_15
REMARK    6  A    between atoms: C_6  and  O_8
REMARK    7  A    between atoms: O_8  and  C_9
REMARK    8  A    between atoms: C_9  and  C_10
REMARK    9  A    between atoms: N_17  and  C_18
REMARK   10  A    between atoms: C_18  and  C_19
REMARK   11  A    between atoms: C_18  and  C_23
REMARK   12  A    between atoms: C_19  and  C_20
REMARK   13  A    between atoms: C_20  and  O_22
REMARK   14  A    between atoms: C_23  and  C_25
REMARK                            x       y       z     vdW  Elec       q    Type
REMARK                         _______ _______ _______ _____ _____    ______ ____
ROOT
ATOM      1  C   UNL     1       2.979   6.430  17.880  0.00  0.00    +0.000 C 
ENDROOT
BRANCH   1   2
ATOM      2  N   UNL     1       1.978   5.396  18.130  0.00  0.00    +0.000 N 
ATOM      3  C   UNL     1       1.959   4.189  17.504  0.00  0.00    +0.000 C 
ATOM      4  O   UNL     1       2.787   3.813  16.690  0.00  0.00    +0.000 OA
ATOM      5  H   UNL     1       1.154   5.635  18.671  0.00  0.00    +0.000 HD
BRANCH   3   6
ATOM      6  O   UNL     1       0.849   3.502  17.865  0.00  0.00    +0.000 OA
BRANCH   6   7
ATOM      7  C   UNL     1       1.061   2.169  18.360  0.00  0.00    +0.000 C 
BRANCH   7   8
ATOM      8  C   UNL     1       1.601   2.093  19.787  0.00  0.00    +0.000 C 
ATOM      9  C   UNL     1       3.104   2.312  19.918  0.00  0.00    +0.000 C 
ATOM     10  C   UNL     1       3.286   2.587  21.409  0.00  0.00    +0.000 C 
ATOM     11  C   UNL     1       1.988   3.248  21.874  0.00  0.00    +0.000 C 
ATOM     12  C   UNL     1       1.034   3.195  20.684  0.00  0.00    +0.000 C 
ENDBRANCH   7   8
ENDBRANCH   6   7
ENDBRANCH   3   6
ENDBRANCH   1   2
BRANCH   1  13
ATOM     13  C   UNL     1       4.344   5.828  18.288  0.00  0.00    +0.000 C 
ATOM     14  O   UNL     1       4.607   5.500  19.445  0.00  0.00    +0.000 OA
ATOM     15  N   UNL     1       5.253   5.661  17.271  0.00  0.00    +0.000 N 
ATOM     16  H   UNL     1       5.036   5.987  16.328  0.00  0.00    +0.000 HD
BRANCH  15  17
ATOM     17  C   UNL     1       6.650   5.274  17.512  0.00  0.00    +0.000 C 
BRANCH  17  18
ATOM     18  C   UNL     1       7.478   6.555  17.696  0.00  0.00    +0.000 C 
ATOM     19  O   UNL     1       7.545   7.402  16.799  0.00  0.00    +0.000 OA
BRANCH  18  20
ATOM     20  C   UNL     1       8.219   6.714  19.002  0.00  0.00    +0.000 C 
ATOM     21  F   UNL     1       7.972   5.670  19.845  0.00  0.00    +0.000 F 
ENDBRANCH  18  20
ENDBRANCH  17  18
BRANCH  17  22
ATOM     22  C   UNL     1       7.183   4.373  16.409  0.00  0.00    +0.000 C 
BRANCH  22  23
ATOM     23  C   UNL     1       6.429   4.601  15.131  0.00  0.00    +0.000 C 
ATOM     24  O   UNL     1       5.539   3.859  14.744  0.00  0.00    +0.000 OA
BRANCH  23  25
ATOM     25  O   UNL     1       6.866   5.660  14.418  0.00  0.00    +0.000 OA
ATOM     26  H   UNL     1       6.200   6.368  14.313  0.00  0.00    +0.000 HD
ENDBRANCH  23  25
ENDBRANCH  22  23
ENDBRANCH  17  22
ENDBRANCH  15  17
ENDBRANCH   1  13
BRANCH   1  28
ATOM     27  C   UNL     1       1.980   7.592  19.946  0.00  0.00    +0.000 C 
ATOM     28  C   UNL     1       2.675   7.773  18.594  0.00  0.00    +0.000 C 
ATOM     29  C   UNL     1       1.877   8.745  17.722  0.00  0.00    +0.000 C 
ENDBRANCH   1  28
TORSDOF 12
ENDMDL
MODEL 5
REMARK VINA RESULT:      -6.7      1.559      1.909
REMARK  Name = 
REMARK  14 active torsions:
REMARK  status: ('A' for Active; 'I' for Inactive)
REMARK    1  A    between atoms: C_1  and  C_2
REMARK    2  A    between atoms: C_2  and  C_3
REMARK    3  A    between atoms: C_2  and  C_4
REMARK    4  A    between atoms: C_4  and  N_5
REMARK    5  A    between atoms: C_4  and  C_15
REMARK    6  A    between atoms: C_6  and  O_8
REMARK    7  A    between atoms: O_8  and  C_9
REMARK    8  A    between atoms: C_9  and  C_10
REMARK    9  A    between atoms: N_17  and  C_18
REMARK   10  A    between atoms: C_18  and  C_19
REMARK   11  A    between atoms: C_18  and  C_23
REMARK   12  A    between atoms: C_19  and  C_20
REMARK   13  A    between atoms: C_20  and  O_22
REMARK   14  A    between atoms: C_23  and  C_25
REMARK                            x       y       z     vdW  Elec       q    Type
REMARK                         _______ _______ _______ _____ _____    ______ ____
ROOT
ATOM      1  C   UNL     1       3.048   5.055  19.131  0.00  0.00    +0.000 C 
ENDROOT
BRANCH   1   2
ATOM      2  N   UNL     1       2.541   6.181  18.352  0.00  0.00    +0.000 N 
ATOM      3  C   UNL     1       2.182   7.377  18.888  0.00  0.00    +0.000 C 
ATOM      4  O   UNL     1       2.271   7.665  20.071  0.00  0.00    +0.000 OA
ATOM      5  H   UNL     1       2.281   6.026  17.384  0.00  0.00    +0.000 HD
BRANCH   3   6
ATOM      6  O   UNL     1       1.646   8.169  17.928  0.00  0.00    +0.000 OA
BRANCH   6   7
ATOM      7  C   UNL     1       1.622   9.578  18.210  0.00  0.00    +0.000 C 
BRANCH   7   8
ATOM      8  C   UNL     1       0.270  10.117  18.674  0.00  0.00    +0.000 C 
ATOM      9  C   UNL     1       0.193  11.635  18.805  0.00  0.00    +0.000 C 
ATOM     10  C   UNL     1      -1.309  11.902  18.870  0.00  0.00    +0.000 C 
ATOM     11  C   UNL     1      -1.968  10.787  18.055  0.00  0.00    +0.000 C 
ATOM     12  C   UNL     1      -0.849   9.822  17.675  0.00  0.00    +0.000 C 
ENDBRANCH   7   8
ENDBRANCH   6   7
ENDBRANCH   3   6
ENDBRANCH   1   2
BRANCH   1  13
ATOM     13  C   UNL     1       4.254   4.485  18.347  0.00  0.00    +0.000 C 
ATOM     14  O   UNL     1       4.749   3.386  18.595  0.00  0.00    +0.000 OA
ATOM     15  N   UNL     1       4.736   5.277  17.332  0.00  0.00    +0.000 N 
ATOM     16  H   UNL     1       4.346   6.207  17.175  0.00  0.00    +0.000 HD
BRANCH  15  17
ATOM     17  C   UNL     1       5.979   4.970  16.611  0.00  0.00    +0.000 C 
BRANCH  17  18
ATOM     18  C   UNL     1       7.164   5.368  17.505  0.00  0.00    +0.000 C 
ATOM     19  O   UNL     1       7.849   4.509  18.070  0.00  0.00    +0.000 OA
BRANCH  18  20
ATOM     20  C   UNL     1       7.432   6.844  17.676  0.00  0.00    +0.000 C 
ATOM     21  F   UNL     1       8.345   7.072  18.664  0.00  0.00    +0.000 F 
ENDBRANCH  18  20
ENDBRANCH  17  18
BRANCH  17  22
ATOM     22  C   UNL     1       6.015   5.635  15.243  0.00  0.00    +0.000 C 
BRANCH  22  23
ATOM     23  C   UNL     1       6.859   4.837  14.291  0.00  0.00    +0.000 C 
ATOM     24  O   UNL     1       6.549   3.720  13.906  0.00  0.00    +0.000 OA
BRANCH  23  25
ATOM     25  O   UNL     1       8.018   5.437  13.952  0.00  0.00    +0.000 OA
ATOM     26  H   UNL     1       7.936   6.401  13.804  0.00  0.00    +0.000 HD
ENDBRANCH  23  25
ENDBRANCH  22  23
ENDBRANCH  17  22
ENDBRANCH  15  17
ENDBRANCH   1  13
BRANCH   1  28
ATOM     27  C   UNL     1       1.185   3.540  18.209  0.00  0.00    +0.000 C 
ATOM     28  C   UNL     1       1.973   3.983  19.445  0.00  0.00    +0.000 C 
ATOM     29  C   UNL     1       1.009   4.411  20.554  0.00  0.00    +0.000 C 
ENDBRANCH   1  28
TORSDOF 12
ENDMDL
MODEL 6
REMARK VINA RESULT:      -6.7      1.362      1.748
REMARK  Name = 
REMARK  14 active torsions:
REMARK  status: ('A' for Active; 'I' for Inactive)
REMARK    1  A    between atoms: C_1  and  C_2
REMARK    2  A    between atoms: C_2  and  C_3
REMARK    3  A    between atoms: C_2  and  C_4
REMARK    4  A    between atoms: C_4  and  N_5
REMARK    5  A    between atoms: C_4  and  C_15
REMARK    6  A    between atoms: C_6  and  O_8
REMARK    7  A    between atoms: O_8  and  C_9
REMARK    8  A    between atoms: C_9  and  C_10
REMARK    9  A    between atoms: N_17  and  C_18
REMARK   10  A    between atoms: C_18  and  C_19
REMARK   11  A    between atoms: C_18  and  C_23
REMARK   12  A    between atoms: C_19  and  C_20
REMARK   13  A    between atoms: C_20  and  O_22
REMARK   14  A    between atoms: C_23  and  C_25
REMARK                            x       y       z     vdW  Elec       q    Type
REMARK                         _______ _______ _______ _____ _____    ______ ____
ROOT
ATOM      1  C   UNL     1       3.306   4.749  19.137  0.00  0.00    +0.000 C 
ENDROOT
BRANCH   1   2
ATOM      2  N   UNL     1       2.934   5.887  18.300  0.00  0.00    +0.000 N 
ATOM      3  C   UNL     1       2.433   7.054  18.783  0.00  0.00    +0.000 C 
ATOM      4  O   UNL     1       2.266   7.305  19.966  0.00  0.00    +0.000 OA
ATOM      5  H   UNL     1       2.885   5.757  17.295  0.00  0.00    +0.000 HD
BRANCH   3   6
ATOM      6  O   UNL     1       2.081   7.863  17.754  0.00  0.00    +0.000 OA
BRANCH   6   7
ATOM      7  C   UNL     1       1.969   9.264  18.060  0.00  0.00    +0.000 C 
BRANCH   7   8
ATOM      8  C   UNL     1       0.684   9.661  18.784  0.00  0.00    +0.000 C 
ATOM      9  C   UNL     1       0.766  10.965  19.570  0.00  0.00    +0.000 C 
ATOM     10  C   UNL     1      -0.700  11.309  19.825  0.00  0.00    +0.000 C 
ATOM     11  C   UNL     1      -1.477  10.733  18.640  0.00  0.00    +0.000 C 
ATOM     12  C   UNL     1      -0.468   9.938  17.817  0.00  0.00    +0.000 C 
ENDBRANCH   7   8
ENDBRANCH   6   7
ENDBRANCH   3   6
ENDBRANCH   1   2
BRANCH   1  13
ATOM     13  C   UNL     1       4.840   4.590  19.005  0.00  0.00    +0.000 C 
ATOM     14  O   UNL     1       5.471   3.716  19.600  0.00  0.00    +0.000 OA
ATOM     15  N   UNL     1       5.463   5.477  18.161  0.00  0.00    +0.000 N 
ATOM     16  H   UNL     1       4.932   6.227  17.717  0.00  0.00    +0.000 HD
BRANCH  15  17
ATOM     17  C   UNL     1       6.926   5.580  18.061  0.00  0.00    +0.000 C 
BRANCH  17  18
ATOM     18  C   UNL     1       7.280   7.022  17.664  0.00  0.00    +0.000 C 
ATOM     19  O   UNL     1       6.733   7.566  16.698  0.00  0.00    +0.000 OA
BRANCH  18  20
ATOM     20  C   UNL     1       8.334   7.724  18.486  0.00  0.00    +0.000 C 
ATOM     21  F   UNL     1       8.581   8.978  18.011  0.00  0.00    +0.000 F 
ENDBRANCH  18  20
ENDBRANCH  17  18
BRANCH  17  22
ATOM     22  C   UNL     1       7.500   4.542  17.108  0.00  0.00    +0.000 C 
BRANCH  22  23
ATOM     23  C   UNL     1       6.771   4.571  15.795  0.00  0.00    +0.000 C 
ATOM     24  O   UNL     1       5.723   3.973  15.604  0.00  0.00    +0.000 OA
BRANCH  23  25
ATOM     25  O   UNL     1       7.410   5.262  14.830  0.00  0.00    +0.000 OA
ATOM     26  H   UNL     1       7.078   6.174  14.710  0.00  0.00    +0.000 HD
ENDBRANCH  23  25
ENDBRANCH  22  23
ENDBRANCH  17  22
ENDBRANCH  15  17
ENDBRANCH   1  13
BRANCH   1  28
ATOM     27  C   UNL     1       2.468   3.165  17.292  0.00  0.00    +0.000 C 
ATOM     28  C   UNL     1       2.535   3.448  18.794  0.00  0.00    +0.000 C 
ATOM     29  C   UNL     1       1.128   3.414  19.396  0.00  0.00    +0.000 C 
ENDBRANCH   1  28
TORSDOF 12
ENDMDL
MODEL 7
REMARK VINA RESULT:      -6.6      1.435      2.029
REMARK  Name = 
REMARK  14 active torsions:
REMARK  status: ('A' for Active; 'I' for Inactive)
REMARK    1  A    between atoms: C_1  and  C_2
REMARK    2  A    between atoms: C_2  and  C_3
REMARK    3  A    between atoms: C_2  and  C_4
REMARK    4  A    between atoms: C_4  and  N_5
REMARK    5  A    between atoms: C_4  and  C_15
REMARK    6  A    between atoms: C_6  and  O_8
REMARK    7  A    between atoms: O_8  and  C_9
REMARK    8  A    between atoms: C_9  and  C_10
REMARK    9  A    between atoms: N_17  and  C_18
REMARK   10  A    between atoms: C_18  and  C_19
REMARK   11  A    between atoms: C_18  and  C_23
REMARK   12  A    between atoms: C_19  and  C_20
REMARK   13  A    between atoms: C_20  and  O_22
REMARK   14  A    between atoms: C_23  and  C_25
REMARK                            x       y       z     vdW  Elec       q    Type
REMARK                         _______ _______ _______ _____ _____    ______ ____
ROOT
ATOM      1  C   UNL     1       3.316   4.060  19.752  0.00  0.00    +0.000 C 
ENDROOT
BRANCH   1   2
ATOM      2  N   UNL     1       2.970   5.380  20.274  0.00  0.00    +0.000 N 
ATOM      3  C   UNL     1       2.501   6.401  19.509  0.00  0.00    +0.000 C 
ATOM      4  O   UNL     1       2.282   6.330  18.310  0.00  0.00    +0.000 OA
ATOM      5  H   UNL     1       3.243   5.616  21.221  0.00  0.00    +0.000 HD
BRANCH   3   6
ATOM      6  O   UNL     1       2.385   7.522  20.261  0.00  0.00    +0.000 OA
BRANCH   6   7
ATOM      7  C   UNL     1       1.140   7.689  20.961  0.00  0.00    +0.000 C 
BRANCH   7   8
ATOM      8  C   UNL     1       0.792   9.133  21.315  0.00  0.00    +0.000 C 
ATOM      9  C   UNL     1      -0.256   9.781  20.417  0.00  0.00    +0.000 C 
ATOM     10  C   UNL     1      -0.691  11.006  21.218  0.00  0.00    +0.000 C 
ATOM     11  C   UNL     1      -0.521  10.625  22.690  0.00  0.00    +0.000 C 
ATOM     12  C   UNL     1       0.152   9.256  22.699  0.00  0.00    +0.000 C 
ENDBRANCH   7   8
ENDBRANCH   6   7
ENDBRANCH   3   6
ENDBRANCH   1   2
BRANCH   1  13
ATOM     13  C   UNL     1       4.634   4.233  18.959  0.00  0.00    +0.000 C 
ATOM     14  O   UNL     1       5.733   3.926  19.421  0.00  0.00    +0.000 OA
ATOM     15  N   UNL     1       4.504   4.735  17.687  0.00  0.00    +0.000 N 
ATOM     16  H   UNL     1       3.592   5.032  17.339  0.00  0.00    +0.000 HD
BRANCH  15  17
ATOM     17  C   UNL     1       5.661   5.128  16.869  0.00  0.00    +0.000 C 
BRANCH  17  18
ATOM     18  C   UNL     1       6.090   6.542  17.291  0.00  0.00    +0.000 C 
ATOM     19  O   UNL     1       5.332   7.506  17.143  0.00  0.00    +0.000 OA
BRANCH  18  20
ATOM     20  C   UNL     1       7.478   6.697  17.866  0.00  0.00    +0.000 C 
ATOM     21  F   UNL     1       8.018   5.489  18.194  0.00  0.00    +0.000 F 
ENDBRANCH  18  20
ENDBRANCH  17  18
BRANCH  17  22
ATOM     22  C   UNL     1       5.364   5.015  15.381  0.00  0.00    +0.000 C 
BRANCH  22  23
ATOM     23  C   UNL     1       6.590   4.584  14.629  0.00  0.00    +0.000 C 
ATOM     24  O   UNL     1       7.616   5.246  14.597  0.00  0.00    +0.000 OA
BRANCH  23  25
ATOM     25  O   UNL     1       6.434   3.435  13.941  0.00  0.00    +0.000 OA
ATOM     26  H   UNL     1       6.853   3.443  13.057  0.00  0.00    +0.000 HD
ENDBRANCH  23  25
ENDBRANCH  22  23
ENDBRANCH  17  22
ENDBRANCH  15  17
ENDBRANCH   1  13
BRANCH   1  28
ATOM     27  C   UNL     1       0.891   3.204  19.696  0.00  0.00    +0.000 C 
ATOM     28  C   UNL     1       2.187   3.411  18.909  0.00  0.00    +0.000 C 
ATOM     29  C   UNL     1       2.615   2.097  18.252  0.00  0.00    +0.000 C 
ENDBRANCH   1  28
TORSDOF 12
ENDMDL
MODEL 8
REMARK VINA RESULT:      -6.6      1.396      1.937
REMARK  Name = 
REMARK  14 active torsions:
REMARK  status: ('A' for Active; 'I' for Inactive)
REMARK    1  A    between atoms: C_1  and  C_2
REMARK    2  A    between atoms: C_2  and  C_3
REMARK    3  A    between atoms: C_2  and  C_4
REMARK    4  A    between atoms: C_4  and  N_5
REMARK    5  A    between atoms: C_4  and  C_15
REMARK    6  A    between atoms: C_6  and  O_8
REMARK    7  A    between atoms: O_8  and  C_9
REMARK    8  A    between atoms: C_9  and  C_10
REMARK    9  A    between atoms: N_17  and  C_18
REMARK   10  A    between atoms: C_18  and  C_19
REMARK   11  A    between atoms: C_18  and  C_23
REMARK   12  A    between atoms: C_19  and  C_20
REMARK   13  A    between atoms: C_20  and  O_22
REMARK   14  A    between atoms: C_23  and  C_25
REMARK                            x       y       z     vdW  Elec       q    Type
REMARK                         _______ _______ _______ _____ _____    ______ ____
ROOT
ATOM      1  C   UNL     1       2.962   4.892  19.573  0.00  0.00    +0.000 C 
ENDROOT
BRANCH   1   2
ATOM      2  N   UNL     1       3.018   6.195  18.915  0.00  0.00    +0.000 N 
ATOM      3  C   UNL     1       2.435   7.321  19.405  0.00  0.00    +0.000 C 
ATOM      4  O   UNL     1       1.827   7.387  20.462  0.00  0.00    +0.000 OA
ATOM      5  H   UNL     1       3.364   6.245  17.963  0.00  0.00    +0.000 HD
BRANCH   3   6
ATOM      6  O   UNL     1       2.567   8.332  18.514  0.00  0.00    +0.000 OA
BRANCH   6   7
ATOM      7  C   UNL     1       1.395   8.659  17.749  0.00  0.00    +0.000 C 
BRANCH   7   8
ATOM      8  C   UNL     1       0.771  10.014  18.079  0.00  0.00    +0.000 C 
ATOM      9  C   UNL     1      -0.145  10.020  19.298  0.00  0.00    +0.000 C 
ATOM     10  C   UNL     1      -0.281  11.506  19.623  0.00  0.00    +0.000 C 
ATOM     11  C   UNL     1       1.029  12.154  19.171  0.00  0.00    +0.000 C 
ATOM     12  C   UNL     1       1.819  11.062  18.457  0.00  0.00    +0.000 C 
ENDBRANCH   7   8
ENDBRANCH   6   7
ENDBRANCH   3   6
ENDBRANCH   1   2
BRANCH   1  13
ATOM     13  C   UNL     1       4.065   4.023  18.924  0.00  0.00    +0.000 C 
ATOM     14  O   UNL     1       4.380   2.915  19.357  0.00  0.00    +0.000 OA
ATOM     15  N   UNL     1       4.667   4.556  17.810  0.00  0.00    +0.000 N 
ATOM     16  H   UNL     1       4.430   5.498  17.496  0.00  0.00    +0.000 HD
BRANCH  15  17
ATOM     17  C   UNL     1       5.849   3.948  17.181  0.00  0.00    +0.000 C 
BRANCH  17  18
ATOM     18  C   UNL     1       7.102   4.626  17.757  0.00  0.00    +0.000 C 
ATOM     19  O   UNL     1       8.233   4.232  17.454  0.00  0.00    +0.000 OA
BRANCH  18  20
ATOM     20  C   UNL     1       6.885   5.769  18.721  0.00  0.00    +0.000 C 
ATOM     21  F   UNL     1       7.805   5.750  19.728  0.00  0.00    +0.000 F 
ENDBRANCH  18  20
ENDBRANCH  17  18
BRANCH  17  22
ATOM     22  C   UNL     1       5.778   4.019  15.663  0.00  0.00    +0.000 C 
BRANCH  22  23
ATOM     23  C   UNL     1       6.150   5.392  15.181  0.00  0.00    +0.000 C 
ATOM     24  O   UNL     1       5.380   6.339  15.219  0.00  0.00    +0.000 OA
BRANCH  23  25
ATOM     25  O   UNL     1       7.385   5.467  14.644  0.00  0.00    +0.000 OA
ATOM     26  H   UNL     1       7.543   4.823  13.926  0.00  0.00    +0.000 HD
ENDBRANCH  23  25
ENDBRANCH  22  23
ENDBRANCH  17  22
ENDBRANCH  15  17
ENDBRANCH   1  13
BRANCH   1  28
ATOM     27  C   UNL     1       1.250   3.372  20.747  0.00  0.00    +0.000 C 
ATOM     28  C   UNL     1       1.561   4.229  19.517  0.00  0.00    +0.000 C 
ATOM     29  C   UNL     1       1.339   3.412  18.241  0.00  0.00    +0.000 C 
ENDBRANCH   1  28
TORSDOF 12
ENDMDL
MODEL 9
REMARK VINA RESULT:      -6.6      1.237      1.756
REMARK  Name = 
REMARK  14 active torsions:
REMARK  status: ('A' for Active; 'I' for Inactive)
REMARK    1  A    between atoms: C_1  and  C_2
REMARK    2  A    between atoms: C_2  and  C_3
REMARK    3  A    between atoms: C_2  and  C_4
REMARK    4  A    between atoms: C_4  and  N_5
REMARK    5  A    between atoms: C_4  and  C_15
REMARK    6  A    between atoms: C_6  and  O_8
REMARK    7  A    between atoms: O_8  and  C_9
REMARK    8  A    between atoms: C_9  and  C_10
REMARK    9  A    between atoms: N_17  and  C_18
REMARK   10  A    between atoms: C_18  and  C_19
REMARK   11  A    between atoms: C_18  and  C_23
REMARK   12  A    between atoms: C_19  and  C_20
REMARK   13  A    between atoms: C_20  and  O_22
REMARK   14  A    between atoms: C_23  and  C_25
REMARK                            x       y       z     vdW  Elec       q    Type
REMARK                         _______ _______ _______ _____ _____    ______ ____
ROOT
ATOM      1  C   UNL     1       3.136   4.879  19.031  0.00  0.00    +0.000 C 
ENDROOT
BRANCH   1   2
ATOM      2  N   UNL     1       3.134   6.236  18.490  0.00  0.00    +0.000 N 
ATOM      3  C   UNL     1       2.543   7.297  19.101  0.00  0.00    +0.000 C 
ATOM      4  O   UNL     1       1.978   7.252  20.182  0.00  0.00    +0.000 OA
ATOM      5  H   UNL     1       3.439   6.380  17.534  0.00  0.00    +0.000 HD
BRANCH   3   6
ATOM      6  O   UNL     1       2.614   8.386  18.299  0.00  0.00    +0.000 OA
BRANCH   6   7
ATOM      7  C   UNL     1       1.361   8.911  17.831  0.00  0.00    +0.000 C 
BRANCH   7   8
ATOM      8  C   UNL     1       1.050  10.334  18.290  0.00  0.00    +0.000 C 
ATOM      9  C   UNL     1       0.758  10.480  19.780  0.00  0.00    +0.000 C 
ATOM     10  C   UNL     1       0.893  11.983  20.015  0.00  0.00    +0.000 C 
ATOM     11  C   UNL     1       1.922  12.475  18.995  0.00  0.00    +0.000 C 
ATOM     12  C   UNL     1       2.236  11.281  18.099  0.00  0.00    +0.000 C 
ENDBRANCH   7   8
ENDBRANCH   6   7
ENDBRANCH   3   6
ENDBRANCH   1   2
BRANCH   1  13
ATOM     13  C   UNL     1       4.558   4.316  18.800  0.00  0.00    +0.000 C 
ATOM     14  O   UNL     1       5.015   3.375  19.450  0.00  0.00    +0.000 OA
ATOM     15  N   UNL     1       5.286   4.920  17.803  0.00  0.00    +0.000 N 
ATOM     16  H   UNL     1       4.911   5.731  17.310  0.00  0.00    +0.000 HD
BRANCH  15  17
ATOM     17  C   UNL     1       6.709   4.630  17.575  0.00  0.00    +0.000 C 
BRANCH  17  18
ATOM     18  C   UNL     1       7.539   5.600  18.430  0.00  0.00    +0.000 C 
ATOM     19  O   UNL     1       8.286   5.181  19.320  0.00  0.00    +0.000 OA
BRANCH  18  20
ATOM     20  C   UNL     1       7.381   7.075  18.148  0.00  0.00    +0.000 C 
ATOM     21  F   UNL     1       8.071   7.445  17.031  0.00  0.00    +0.000 F 
ENDBRANCH  18  20
ENDBRANCH  17  18
BRANCH  17  22
ATOM     22  C   UNL     1       7.065   4.685  16.097  0.00  0.00    +0.000 C 
BRANCH  22  23
ATOM     23  C   UNL     1       5.859   5.044  15.277  0.00  0.00    +0.000 C 
ATOM     24  O   UNL     1       5.202   4.216  14.665  0.00  0.00    +0.000 OA
BRANCH  23  25
ATOM     25  O   UNL     1       5.608   6.368  15.224  0.00  0.00    +0.000 OA
ATOM     26  H   UNL     1       5.503   6.786  16.102  0.00  0.00    +0.000 HD
ENDBRANCH  23  25
ENDBRANCH  22  23
ENDBRANCH  17  22
ENDBRANCH  15  17
ENDBRANCH   1  13
BRANCH   1  28
ATOM     27  C   UNL     1       1.383   3.049  19.474  0.00  0.00    +0.000 C 
ATOM     28  C   UNL     1       2.026   3.972  18.437  0.00  0.00    +0.000 C 
ATOM     29  C   UNL     1       2.504   3.155  17.234  0.00  0.00    +0.000 C 
ENDBRANCH   1  28
TORSDOF 12
ENDMDL
