MODEL 1
REMARK VINA RESULT:      -8.1      0.000      0.000
REMARK  Name = 
REMARK  11 active torsions:
REMARK  status: ('A' for Active; 'I' for Inactive)
REMARK    1  A    between atoms: C_1  and  C_2
REMARK    2  A    between atoms: C_2  and  C_3
REMARK    3  A    between atoms: C_2  and  C_5
REMARK    4  A    between atoms: C_2  and  N_19
REMARK    5  A    between atoms: C_5  and  O_6
REMARK    6  A    between atoms: O_6  and  C_7
REMARK    7  A    between atoms: C_9  and  C_10
REMARK    8  A    between atoms: C_14  and  C_15
REMARK    9  A    between atoms: C_20  and  C_22
REMARK   10  A    between atoms: C_25  and  S_26
REMARK   11  A    between atoms: S_26  and  C_27
REMARK                            x       y       z     vdW  Elec       q    Type
REMARK                         _______ _______ _______ _____ _____    ______ ____
ROOT
ATOM      1  C   UNL     1       2.126   2.056  19.059  0.00  0.00    +0.000 C 
ATOM      2  C   UNL     1       3.389   2.924  19.128  0.00  0.00    +0.000 C 
ENDROOT
BRANCH   2   3
ATOM      3  N   UNL     1       3.046   4.296  19.613  0.00  0.00    +0.000 N 
ATOM      4  C   UNL     1       2.281   5.156  18.840  0.00  0.00    +0.000 C 
ATOM      5  O   UNL     1       1.840   4.842  17.742  0.00  0.00    +0.000 OA
ATOM      6  H   UNL     1       3.656   4.692  20.320  0.00  0.00    +0.000 HD
BRANCH   4   7
ATOM      7  C   UNL     1       2.003   6.531  19.338  0.00  0.00    +0.000 A 
ATOM      8  C   UNL     1       1.645   6.656  20.690  0.00  0.00    +0.000 A 
ATOM      9  C   UNL     1       1.299   7.897  21.228  0.00  0.00    +0.000 A 
ATOM     10  C   UNL     1       1.329   9.038  20.426  0.00  0.00    +0.000 A 
ATOM     11  C   UNL     1       1.738   8.925  19.090  0.00  0.00    +0.000 A 
ATOM     12  C   UNL     1       2.086   7.677  18.547  0.00  0.00    +0.000 A 
BRANCH  10  13
ATOM     13  S   UNL     1       0.705  10.564  21.096  0.00  0.00    +0.000 S 
BRANCH  13  14
ATOM     14  C   UNL     1      -0.160   9.999  22.565  0.00  0.00    +0.000 C 
ATOM     15  F   UNL     1      -0.904  10.956  23.163  0.00  0.00    +0.000 F 
ATOM     16  F   UNL     1      -0.999   8.979  22.255  0.00  0.00    +0.000 F 
ATOM     17  F   UNL     1       0.713   9.529  23.488  0.00  0.00    +0.000 F 
ENDBRANCH  13  14
ENDBRANCH  10  13
ENDBRANCH   4   7
ENDBRANCH   2   3
BRANCH   2  18
ATOM     18  C   UNL     1       4.386   2.301  20.090  0.00  0.00    +0.000 C 
ATOM     19  N   UNL     1       5.214   1.785  20.889  0.00  0.00    +0.000 NA
ENDBRANCH   2  18
BRANCH   2  20
ATOM     20  C   UNL     1       4.088   3.005  17.750  0.00  0.00    +0.000 C 
BRANCH  20  21
ATOM     21  O   UNL     1       5.347   3.679  17.884  0.00  0.00    +0.000 OA
BRANCH  21  22
ATOM     22  C   UNL     1       5.953   4.114  16.737  0.00  0.00    +0.000 A 
ATOM     23  C   UNL     1       5.682   3.581  15.470  0.00  0.00    +0.000 A 
ATOM     24  C   UNL     1       6.282   4.114  14.320  0.00  0.00    +0.000 A 
ATOM     25  C   UNL     1       7.156   5.201  14.442  0.00  0.00    +0.000 A 
ATOM     26  C   UNL     1       7.427   5.736  15.702  0.00  0.00    +0.000 A 
ATOM     27  C   UNL     1       6.836   5.202  16.865  0.00  0.00    +0.000 A 
BRANCH  27  28
ATOM     28  C   UNL     1       7.203   5.817  18.197  0.00  0.00    +0.000 C 
ATOM     29  F   UNL     1       6.181   5.964  19.088  0.00  0.00    +0.000 F 
ATOM     30  F   UNL     1       8.137   5.068  18.853  0.00  0.00    +0.000 F 
ATOM     31  F   UNL     1       7.758   7.053  18.059  0.00  0.00    +0.000 F 
ENDBRANCH  27  28
BRANCH  24  32
ATOM     32  C   UNL     1       5.992   3.570  13.030  0.00  0.00    +0.000 C 
ATOM     33  N   UNL     1       5.756   3.145  11.978  0.00  0.00    +0.000 NA
ENDBRANCH  24  32
ENDBRANCH  21  22
ENDBRANCH  20  21
ENDBRANCH   2  20
TORSDOF 10
ENDMDL
MODEL 2
REMARK VINA RESULT:      -8.1      1.951      2.389
REMARK  Name = 
REMARK  11 active torsions:
REMARK  status: ('A' for Active; 'I' for Inactive)
REMARK    1  A    between atoms: C_1  and  C_2
REMARK    2  A    between atoms: C_2  and  C_3
REMARK    3  A    between atoms: C_2  and  C_5
REMARK    4  A    between atoms: C_2  and  N_19
REMARK    5  A    between atoms: C_5  and  O_6
REMARK    6  A    between atoms: O_6  and  C_7
REMARK    7  A    between atoms: C_9  and  C_10
REMARK    8  A    between atoms: C_14  and  C_15
REMARK    9  A    between atoms: C_20  and  C_22
REMARK   10  A    between atoms: C_25  and  S_26
REMARK   11  A    between atoms: S_26  and  C_27
REMARK                            x       y       z     vdW  Elec       q    Type
REMARK                         _______ _______ _______ _____ _____    ______ ____
ROOT
ATOM      1  C   UNL     1       2.211   2.616  17.554  0.00  0.00    +0.000 C 
ATOM      2  C   UNL     1       3.050   3.587  18.394  0.00  0.00    +0.000 C 
ENDROOT
BRANCH   2   3
ATOM      3  N   UNL     1       2.385   4.925  18.453  0.00  0.00    +0.000 N 
ATOM      4  C   UNL     1       2.939   5.965  19.186  0.00  0.00    +0.000 C 
ATOM      5  O   UNL     1       3.991   5.852  19.802  0.00  0.00    +0.000 OA
ATOM      6  H   UNL     1       1.391   4.946  18.256  0.00  0.00    +0.000 HD
BRANCH   4   7
ATOM      7  C   UNL     1       2.222   7.267  19.258  0.00  0.00    +0.000 A 
ATOM      8  C   UNL     1       2.130   8.009  18.070  0.00  0.00    +0.000 A 
ATOM      9  C   UNL     1       1.537   9.273  18.058  0.00  0.00    +0.000 A 
ATOM     10  C   UNL     1       1.003   9.804  19.232  0.00  0.00    +0.000 A 
ATOM     11  C   UNL     1       1.045   9.043  20.409  0.00  0.00    +0.000 A 
ATOM     12  C   UNL     1       1.641   7.771  20.423  0.00  0.00    +0.000 A 
BRANCH  10  13
ATOM     13  S   UNL     1       0.424  11.487  19.218  0.00  0.00    +0.000 S 
BRANCH  13  14
ATOM     14  C   UNL     1      -1.306  11.280  18.785  0.00  0.00    +0.000 C 
ATOM     15  F   UNL     1      -2.159  11.903  19.629  0.00  0.00    +0.000 F 
ATOM     16  F   UNL     1      -1.544  11.773  17.544  0.00  0.00    +0.000 F 
ATOM     17  F   UNL     1      -1.645   9.968  18.763  0.00  0.00    +0.000 F 
ENDBRANCH  13  14
ENDBRANCH  10  13
ENDBRANCH   4   7
ENDBRANCH   2   3
BRANCH   2  18
ATOM     18  C   UNL     1       3.191   3.051  19.808  0.00  0.00    +0.000 C 
ATOM     19  N   UNL     1       3.309   2.605  20.982  0.00  0.00    +0.000 NA
ENDBRANCH   2  18
BRANCH   2  20
ATOM     20  C   UNL     1       4.481   3.728  17.823  0.00  0.00    +0.000 C 
BRANCH  20  21
ATOM     21  O   UNL     1       4.521   4.802  16.873  0.00  0.00    +0.000 OA
BRANCH  21  22
ATOM     22  C   UNL     1       5.411   4.695  15.840  0.00  0.00    +0.000 A 
ATOM     23  C   UNL     1       5.184   3.911  14.701  0.00  0.00    +0.000 A 
ATOM     24  C   UNL     1       6.102   3.895  13.642  0.00  0.00    +0.000 A 
ATOM     25  C   UNL     1       7.256   4.682  13.721  0.00  0.00    +0.000 A 
ATOM     26  C   UNL     1       7.486   5.466  14.852  0.00  0.00    +0.000 A 
ATOM     27  C   UNL     1       6.574   5.483  15.927  0.00  0.00    +0.000 A 
BRANCH  27  28
ATOM     28  C   UNL     1       6.907   6.335  17.131  0.00  0.00    +0.000 C 
ATOM     29  F   UNL     1       7.928   7.224  16.968  0.00  0.00    +0.000 F 
ATOM     30  F   UNL     1       5.840   7.093  17.518  0.00  0.00    +0.000 F 
ATOM     31  F   UNL     1       7.235   5.585  18.219  0.00  0.00    +0.000 F 
ENDBRANCH  27  28
BRANCH  24  32
ATOM     32  C   UNL     1       5.857   3.099  12.479  0.00  0.00    +0.000 C 
ATOM     33  N   UNL     1       5.647   2.464  11.533  0.00  0.00    +0.000 NA
ENDBRANCH  24  32
ENDBRANCH  21  22
ENDBRANCH  20  21
ENDBRANCH   2  20
TORSDOF 10
ENDMDL
MODEL 3
REMARK VINA RESULT:      -8.0      2.097      2.391
REMARK  Name = 
REMARK  11 active torsions:
REMARK  status: ('A' for Active; 'I' for Inactive)
REMARK    1  A    between atoms: C_1  and  C_2
REMARK    2  A    between atoms: C_2  and  C_3
REMARK    3  A    between atoms: C_2  and  C_5
REMARK    4  A    between atoms: C_2  and  N_19
REMARK    5  A    between atoms: C_5  and  O_6
REMARK    6  A    between atoms: O_6  and  C_7
REMARK    7  A    between atoms: C_9  and  C_10
REMARK    8  A    between atoms: C_14  and  C_15
REMARK    9  A    between atoms: C_20  and  C_22
REMARK   10  A    between atoms: C_25  and  S_26
REMARK   11  A    between atoms: S_26  and  C_27
REMARK                            x       y       z     vdW  Elec       q    Type
REMARK                         _______ _______ _______ _____ _____    ______ ____
ROOT
ATOM      1  C   UNL     1       2.111   2.678  17.565  0.00  0.00    +0.000 C 
ATOM      2  C   UNL     1       3.013   3.656  18.326  0.00  0.00    +0.000 C 
ENDROOT
BRANCH   2   3
ATOM      3  N   UNL     1       2.410   5.025  18.321  0.00  0.00    +0.000 N 
ATOM      4  C   UNL     1       2.972   6.054  19.062  0.00  0.00    +0.000 C 
ATOM      5  O   UNL     1       3.982   5.907  19.738  0.00  0.00    +0.000 OA
ATOM      6  H   UNL     1       1.430   5.088  18.069  0.00  0.00    +0.000 HD
BRANCH   4   7
ATOM      7  C   UNL     1       2.315   7.389  19.068  0.00  0.00    +0.000 A 
ATOM      8  C   UNL     1       1.666   7.773  20.253  0.00  0.00    +0.000 A 
ATOM      9  C   UNL     1       0.964   8.977  20.328  0.00  0.00    +0.000 A 
ATOM     10  C   UNL     1       0.920   9.830  19.224  0.00  0.00    +0.000 A 
ATOM     11  C   UNL     1       1.611   9.475  18.058  0.00  0.00    +0.000 A 
ATOM     12  C   UNL     1       2.319   8.264  17.980  0.00  0.00    +0.000 A 
BRANCH  10  13
ATOM     13  S   UNL     1      -0.135  11.261  19.297  0.00  0.00    +0.000 S 
BRANCH  13  14
ATOM     14  C   UNL     1      -1.398  10.853  18.087  0.00  0.00    +0.000 C 
ATOM     15  F   UNL     1      -1.094   9.781  17.320  0.00  0.00    +0.000 F 
ATOM     16  F   UNL     1      -2.573  10.578  18.706  0.00  0.00    +0.000 F 
ATOM     17  F   UNL     1      -1.622  11.897  17.252  0.00  0.00    +0.000 F 
ENDBRANCH  13  14
ENDBRANCH  10  13
ENDBRANCH   4   7
ENDBRANCH   2   3
BRANCH   2  18
ATOM     18  C   UNL     1       3.165   3.197  19.767  0.00  0.00    +0.000 C 
ATOM     19  N   UNL     1       3.292   2.815  20.962  0.00  0.00    +0.000 NA
ENDBRANCH   2  18
BRANCH   2  20
ATOM     20  C   UNL     1       4.434   3.698  17.717  0.00  0.00    +0.000 C 
BRANCH  20  21
ATOM     21  O   UNL     1       4.546   4.814  16.822  0.00  0.00    +0.000 OA
BRANCH  21  22
ATOM     22  C   UNL     1       5.432   4.702  15.785  0.00  0.00    +0.000 A 
ATOM     23  C   UNL     1       5.195   3.920  14.647  0.00  0.00    +0.000 A 
ATOM     24  C   UNL     1       6.109   3.899  13.584  0.00  0.00    +0.000 A 
ATOM     25  C   UNL     1       7.268   4.680  13.659  0.00  0.00    +0.000 A 
ATOM     26  C   UNL     1       7.507   5.461  14.790  0.00  0.00    +0.000 A 
ATOM     27  C   UNL     1       6.599   5.483  15.869  0.00  0.00    +0.000 A 
BRANCH  27  28
ATOM     28  C   UNL     1       6.942   6.332  17.072  0.00  0.00    +0.000 C 
ATOM     29  F   UNL     1       5.945   7.136  17.539  0.00  0.00    +0.000 F 
ATOM     30  F   UNL     1       7.303   5.561  18.140  0.00  0.00    +0.000 F 
ATOM     31  F   UNL     1       8.004   7.151  16.839  0.00  0.00    +0.000 F 
ENDBRANCH  27  28
BRANCH  24  32
ATOM     32  C   UNL     1       5.855   3.106  12.421  0.00  0.00    +0.000 C 
ATOM     33  N   UNL     1       5.653   2.476  11.470  0.00  0.00    +0.000 NA
ENDBRANCH  24  32
ENDBRANCH  21  22
ENDBRANCH  20  21
ENDBRANCH   2  20
TORSDOF 10
ENDMDL
MODEL 4
REMARK VINA RESULT:      -7.9      4.477      8.063
REMARK  Name = 
REMARK  11 active torsions:
REMARK  status: ('A' for Active; 'I' for Inactive)
REMARK    1  A    between atoms: C_1  and  C_2
REMARK    2  A    between atoms: C_2  and  C_3
REMARK    3  A    between atoms: C_2  and  C_5
REMARK    4  A    between atoms: C_2  and  N_19
REMARK    5  A    between atoms: C_5  and  O_6
REMARK    6  A    between atoms: O_6  and  C_7
REMARK    7  A    between atoms: C_9  and  C_10
REMARK    8  A    between atoms: C_14  and  C_15
REMARK    9  A    between atoms: C_20  and  C_22
REMARK   10  A    between atoms: C_25  and  S_26
REMARK   11  A    between atoms: S_26  and  C_27
REMARK                            x       y       z     vdW  Elec       q    Type
REMARK                         _______ _______ _______ _____ _____    ______ ____
ROOT
ATOM      1  C   UNL     1       7.627   4.714  17.654  0.00  0.00    +0.000 C 
ATOM      2  C   UNL     1       6.762   5.697  16.855  0.00  0.00    +0.000 C 
ENDROOT
BRANCH   2   3
ATOM      3  N   UNL     1       7.248   7.097  17.059  0.00  0.00    +0.000 N 
ATOM      4  C   UNL     1       7.944   7.450  18.206  0.00  0.00    +0.000 C 
ATOM      5  O   UNL     1       8.206   6.648  19.093  0.00  0.00    +0.000 OA
ATOM      6  H   UNL     1       6.769   7.823  16.540  0.00  0.00    +0.000 HD
BRANCH   4   7
ATOM      7  C   UNL     1       8.368   8.864  18.394  0.00  0.00    +0.000 A 
ATOM      8  C   UNL     1       7.968   9.783  17.412  0.00  0.00    +0.000 A 
ATOM      9  C   UNL     1       8.377  11.117  17.468  0.00  0.00    +0.000 A 
ATOM     10  C   UNL     1       9.176  11.557  18.523  0.00  0.00    +0.000 A 
ATOM     11  C   UNL     1       9.534  10.655  19.534  0.00  0.00    +0.000 A 
ATOM     12  C   UNL     1       9.122   9.313  19.479  0.00  0.00    +0.000 A 
BRANCH  10  13
ATOM     13  S   UNL     1       9.829  13.211  18.461  0.00  0.00    +0.000 S 
BRANCH  13  14
ATOM     14  C   UNL     1      11.343  12.978  17.524  0.00  0.00    +0.000 C 
ATOM     15  F   UNL     1      11.869  11.737  17.634  0.00  0.00    +0.000 F 
ATOM     16  F   UNL     1      11.120  13.199  16.204  0.00  0.00    +0.000 F 
ATOM     17  F   UNL     1      12.296  13.857  17.919  0.00  0.00    +0.000 F 
ENDBRANCH  13  14
ENDBRANCH  10  13
ENDBRANCH   4   7
ENDBRANCH   2   3
BRANCH   2  18
ATOM     18  C   UNL     1       6.845   5.365  15.374  0.00  0.00    +0.000 C 
ATOM     19  N   UNL     1       6.914   5.090  14.145  0.00  0.00    +0.000 NA
ENDBRANCH   2  18
BRANCH   2  20
ATOM     20  C   UNL     1       5.272   5.586  17.256  0.00  0.00    +0.000 C 
BRANCH  20  21
ATOM     21  O   UNL     1       5.161   4.946  18.535  0.00  0.00    +0.000 OA
BRANCH  21  22
ATOM     22  C   UNL     1       3.950   5.014  19.169  0.00  0.00    +0.000 A 
ATOM     23  C   UNL     1       3.385   6.210  19.631  0.00  0.00    +0.000 A 
ATOM     24  C   UNL     1       2.109   6.228  20.211  0.00  0.00    +0.000 A 
ATOM     25  C   UNL     1       1.387   5.034  20.319  0.00  0.00    +0.000 A 
ATOM     26  C   UNL     1       1.945   3.841  19.858  0.00  0.00    +0.000 A 
ATOM     27  C   UNL     1       3.231   3.810  19.281  0.00  0.00    +0.000 A 
BRANCH  27  28
ATOM     28  C   UNL     1       3.779   2.474  18.834  0.00  0.00    +0.000 C 
ATOM     29  F   UNL     1       4.288   2.432  17.570  0.00  0.00    +0.000 F 
ATOM     30  F   UNL     1       4.801   2.058  19.639  0.00  0.00    +0.000 F 
ATOM     31  F   UNL     1       2.843   1.486  18.893  0.00  0.00    +0.000 F 
ENDBRANCH  27  28
BRANCH  24  32
ATOM     32  C   UNL     1       1.536   7.454  20.671  0.00  0.00    +0.000 C 
ATOM     33  N   UNL     1       1.082   8.456  21.036  0.00  0.00    +0.000 NA
ENDBRANCH  24  32
ENDBRANCH  21  22
ENDBRANCH  20  21
ENDBRANCH   2  20
TORSDOF 10
ENDMDL
MODEL 5
REMARK VINA RESULT:      -7.9      1.605      1.875
REMARK  Name = 
REMARK  11 active torsions:
REMARK  status: ('A' for Active; 'I' for Inactive)
REMARK    1  A    between atoms: C_1  and  C_2
REMARK    2  A    between atoms: C_2  and  C_3
REMARK    3  A    between atoms: C_2  and  C_5
REMARK    4  A    between atoms: C_2  and  N_19
REMARK    5  A    between atoms: C_5  and  O_6
REMARK    6  A    between atoms: O_6  and  C_7
REMARK    7  A    between atoms: C_9  and  C_10
REMARK    8  A    between atoms: C_14  and  C_15
REMARK    9  A    between atoms: C_20  and  C_22
REMARK   10  A    between atoms: C_25  and  S_26
REMARK   11  A    between atoms: S_26  and  C_27
REMARK                            x       y       z     vdW  Elec       q    Type
REMARK                         _______ _______ _______ _____ _____    ______ ____
ROOT
ATOM      1  C   UNL     1       1.637   2.575  18.326  0.00  0.00    +0.000 C 
ATOM      2  C   UNL     1       2.920   3.250  18.826  0.00  0.00    +0.000 C 
ENDROOT
BRANCH   2   3
ATOM      3  N   UNL     1       2.753   4.736  18.836  0.00  0.00    +0.000 N 
ATOM      4  C   UNL     1       1.942   5.356  19.775  0.00  0.00    +0.000 C 
ATOM      5  O   UNL     1       1.340   4.735  20.642  0.00  0.00    +0.000 OA
ATOM      6  H   UNL     1       2.944   5.219  17.966  0.00  0.00    +0.000 HD
BRANCH   4   7
ATOM      7  C   UNL     1       1.764   6.832  19.722  0.00  0.00    +0.000 A 
ATOM      8  C   UNL     1       1.303   7.460  20.890  0.00  0.00    +0.000 A 
ATOM      9  C   UNL     1       1.040   8.830  20.911  0.00  0.00    +0.000 A 
ATOM     10  C   UNL     1       1.258   9.601  19.769  0.00  0.00    +0.000 A 
ATOM     11  C   UNL     1       1.770   8.988  18.617  0.00  0.00    +0.000 A 
ATOM     12  C   UNL     1       2.035   7.608  18.594  0.00  0.00    +0.000 A 
BRANCH  10  13
ATOM     13  S   UNL     1       0.738  11.303  19.779  0.00  0.00    +0.000 S 
BRANCH  13  14
ATOM     14  C   UNL     1      -0.948  11.179  19.174  0.00  0.00    +0.000 C 
ATOM     15  F   UNL     1      -1.847  11.867  19.915  0.00  0.00    +0.000 F 
ATOM     16  F   UNL     1      -1.031  11.654  17.907  0.00  0.00    +0.000 F 
ATOM     17  F   UNL     1      -1.356   9.887  19.143  0.00  0.00    +0.000 F 
ENDBRANCH  13  14
ENDBRANCH  10  13
ENDBRANCH   4   7
ENDBRANCH   2   3
BRANCH   2  18
ATOM     18  C   UNL     1       3.225   2.785  20.240  0.00  0.00    +0.000 C 
ATOM     19  N   UNL     1       3.477   2.401  21.415  0.00  0.00    +0.000 NA
ENDBRANCH   2  18
BRANCH   2  20
ATOM     20  C   UNL     1       4.137   2.856  17.954  0.00  0.00    +0.000 C 
BRANCH  20  21
ATOM     21  O   UNL     1       5.128   3.892  18.009  0.00  0.00    +0.000 OA
BRANCH  21  22
ATOM     22  C   UNL     1       5.777   4.204  16.846  0.00  0.00    +0.000 A 
ATOM     23  C   UNL     1       5.398   3.707  15.592  0.00  0.00    +0.000 A 
ATOM     24  C   UNL     1       6.058   4.116  14.425  0.00  0.00    +0.000 A 
ATOM     25  C   UNL     1       7.103   5.043  14.515  0.00  0.00    +0.000 A 
ATOM     26  C   UNL     1       7.482   5.542  15.761  0.00  0.00    +0.000 A 
ATOM     27  C   UNL     1       6.832   5.130  16.943  0.00  0.00    +0.000 A 
BRANCH  27  28
ATOM     28  C   UNL     1       7.321   5.693  18.258  0.00  0.00    +0.000 C 
ATOM     29  F   UNL     1       8.221   4.926  18.936  0.00  0.00    +0.000 F 
ATOM     30  F   UNL     1       7.942   6.897  18.087  0.00  0.00    +0.000 F 
ATOM     31  F   UNL     1       6.301   5.930  19.129  0.00  0.00    +0.000 F 
ENDBRANCH  27  28
BRANCH  24  32
ATOM     32  C   UNL     1       5.657   3.612  13.148  0.00  0.00    +0.000 C 
ATOM     33  N   UNL     1       5.348   3.199  12.110  0.00  0.00    +0.000 NA
ENDBRANCH  24  32
ENDBRANCH  21  22
ENDBRANCH  20  21
ENDBRANCH   2  20
TORSDOF 10
ENDMDL
MODEL 6
REMARK VINA RESULT:      -7.9      1.305      1.682
REMARK  Name = 
REMARK  11 active torsions:
REMARK  status: ('A' for Active; 'I' for Inactive)
REMARK    1  A    between atoms: C_1  and  C_2
REMARK    2  A    between atoms: C_2  and  C_3
REMARK    3  A    between atoms: C_2  and  C_5
REMARK    4  A    between atoms: C_2  and  N_19
REMARK    5  A    between atoms: C_5  and  O_6
REMARK    6  A    between atoms: O_6  and  C_7
REMARK    7  A    between atoms: C_9  and  C_10
REMARK    8  A    between atoms: C_14  and  C_15
REMARK    9  A    between atoms: C_20  and  C_22
REMARK   10  A    between atoms: C_25  and  S_26
REMARK   11  A    between atoms: S_26  and  C_27
REMARK                            x       y       z     vdW  Elec       q    Type
REMARK                         _______ _______ _______ _____ _____    ______ ____
ROOT
ATOM      1  C   UNL     1       2.185   2.342  18.754  0.00  0.00    +0.000 C 
ATOM      2  C   UNL     1       3.507   3.106  18.890  0.00  0.00    +0.000 C 
ENDROOT
BRANCH   2   3
ATOM      3  N   UNL     1       3.243   4.538  19.232  0.00  0.00    +0.000 N 
ATOM      4  C   UNL     1       2.291   5.272  18.540  0.00  0.00    +0.000 C 
ATOM      5  O   UNL     1       1.615   4.795  17.638  0.00  0.00    +0.000 OA
ATOM      6  H   UNL     1       3.988   5.035  19.707  0.00  0.00    +0.000 HD
BRANCH   4   7
ATOM      7  C   UNL     1       2.091   6.708  18.879  0.00  0.00    +0.000 A 
ATOM      8  C   UNL     1       1.776   7.008  20.213  0.00  0.00    +0.000 A 
ATOM      9  C   UNL     1       1.504   8.319  20.608  0.00  0.00    +0.000 A 
ATOM     10  C   UNL     1       1.566   9.356  19.677  0.00  0.00    +0.000 A 
ATOM     11  C   UNL     1       1.933   9.067  18.355  0.00  0.00    +0.000 A 
ATOM     12  C   UNL     1       2.208   7.748  17.956  0.00  0.00    +0.000 A 
BRANCH  10  13
ATOM     13  S   UNL     1       1.034  10.979  20.174  0.00  0.00    +0.000 S 
BRANCH  13  14
ATOM     14  C   UNL     1      -0.733  10.903  19.858  0.00  0.00    +0.000 C 
ATOM     15  F   UNL     1      -1.149   9.715  19.362  0.00  0.00    +0.000 F 
ATOM     16  F   UNL     1      -1.427  11.121  21.002  0.00  0.00    +0.000 F 
ATOM     17  F   UNL     1      -1.107  11.862  18.976  0.00  0.00    +0.000 F 
ENDBRANCH  13  14
ENDBRANCH  10  13
ENDBRANCH   4   7
ENDBRANCH   2   3
BRANCH   2  18
ATOM     18  C   UNL     1       4.344   2.489  19.998  0.00  0.00    +0.000 C 
ATOM     19  N   UNL     1       5.038   1.976  20.918  0.00  0.00    +0.000 NA
ENDBRANCH   2  18
BRANCH   2  20
ATOM     20  C   UNL     1       4.344   3.014  17.592  0.00  0.00    +0.000 C 
BRANCH  20  21
ATOM     21  O   UNL     1       4.862   4.309  17.256  0.00  0.00    +0.000 OA
BRANCH  21  22
ATOM     22  C   UNL     1       5.591   4.415  16.103  0.00  0.00    +0.000 A 
ATOM     23  C   UNL     1       5.291   3.707  14.932  0.00  0.00    +0.000 A 
ATOM     24  C   UNL     1       6.031   3.909  13.758  0.00  0.00    +0.000 A 
ATOM     25  C   UNL     1       7.077   4.839  13.757  0.00  0.00    +0.000 A 
ATOM     26  C   UNL     1       7.378   5.548  14.920  0.00  0.00    +0.000 A 
ATOM     27  C   UNL     1       6.646   5.346  16.108  0.00  0.00    +0.000 A 
BRANCH  27  28
ATOM     28  C   UNL     1       7.051   6.130  17.336  0.00  0.00    +0.000 C 
ATOM     29  F   UNL     1       7.907   7.170  17.124  0.00  0.00    +0.000 F 
ATOM     30  F   UNL     1       5.968   6.686  17.955  0.00  0.00    +0.000 F 
ATOM     31  F   UNL     1       7.644   5.344  18.277  0.00  0.00    +0.000 F 
ENDBRANCH  27  28
BRANCH  24  32
ATOM     32  C   UNL     1       5.712   3.190  12.564  0.00  0.00    +0.000 C 
ATOM     33  N   UNL     1       5.469   2.605  11.594  0.00  0.00    +0.000 NA
ENDBRANCH  24  32
ENDBRANCH  21  22
ENDBRANCH  20  21
ENDBRANCH   2  20
TORSDOF 10
ENDMDL
MODEL 7
REMARK VINA RESULT:      -7.8      5.372     10.416
REMARK  Name = 
REMARK  11 active torsions:
REMARK  status: ('A' for Active; 'I' for Inactive)
REMARK    1  A    between atoms: C_1  and  C_2
REMARK    2  A    between atoms: C_2  and  C_3
REMARK    3  A    between atoms: C_2  and  C_5
REMARK    4  A    between atoms: C_2  and  N_19
REMARK    5  A    between atoms: C_5  and  O_6
REMARK    6  A    between atoms: O_6  and  C_7
REMARK    7  A    between atoms: C_9  and  C_10
REMARK    8  A    between atoms: C_14  and  C_15
REMARK    9  A    between atoms: C_20  and  C_22
REMARK   10  A    between atoms: C_25  and  S_26
REMARK   11  A    between atoms: S_26  and  C_27
REMARK                            x       y       z     vdW  Elec       q    Type
REMARK                         _______ _______ _______ _____ _____    ______ ____
ROOT
ATOM      1  C   UNL     1       1.415  11.441  18.890  0.00  0.00    +0.000 C 
ATOM      2  C   UNL     1       0.542  10.402  19.604  0.00  0.00    +0.000 C 
ENDROOT
BRANCH   2   3
ATOM      3  N   UNL     1       1.238   9.079  19.639  0.00  0.00    +0.000 N 
ATOM      4  C   UNL     1       1.892   8.588  18.519  0.00  0.00    +0.000 C 
ATOM      5  O   UNL     1       1.949   9.204  17.463  0.00  0.00    +0.000 OA
ATOM      6  H   UNL     1       0.928   8.423  20.347  0.00  0.00    +0.000 HD
BRANCH   4   7
ATOM      7  C   UNL     1       2.532   7.245  18.581  0.00  0.00    +0.000 A 
ATOM      8  C   UNL     1       2.124   6.393  19.619  0.00  0.00    +0.000 A 
ATOM      9  C   UNL     1       2.718   5.143  19.797  0.00  0.00    +0.000 A 
ATOM     10  C   UNL     1       3.716   4.714  18.922  0.00  0.00    +0.000 A 
ATOM     11  C   UNL     1       4.089   5.539  17.852  0.00  0.00    +0.000 A 
ATOM     12  C   UNL     1       3.492   6.798  17.671  0.00  0.00    +0.000 A 
BRANCH  10  13
ATOM     13  S   UNL     1       4.577   3.201  19.289  0.00  0.00    +0.000 S 
BRANCH  13  14
ATOM     14  C   UNL     1       3.424   1.963  18.686  0.00  0.00    +0.000 C 
ATOM     15  F   UNL     1       2.923   2.234  17.459  0.00  0.00    +0.000 F 
ATOM     16  F   UNL     1       4.029   0.751  18.609  0.00  0.00    +0.000 F 
ATOM     17  F   UNL     1       2.372   1.830  19.531  0.00  0.00    +0.000 F 
ENDBRANCH  13  14
ENDBRANCH  10  13
ENDBRANCH   4   7
ENDBRANCH   2   3
BRANCH   2  18
ATOM     18  C   UNL     1       0.277  10.850  21.031  0.00  0.00    +0.000 C 
ATOM     19  N   UNL     1       0.055  11.222  22.216  0.00  0.00    +0.000 NA
ENDBRANCH   2  18
BRANCH   2  20
ATOM     20  C   UNL     1      -0.837  10.261  18.915  0.00  0.00    +0.000 C 
BRANCH  20  21
ATOM     21  O   UNL     1      -1.330  11.558  18.548  0.00  0.00    +0.000 OA
BRANCH  21  22
ATOM     22  C   UNL     1      -2.589  11.892  18.966  0.00  0.00    +0.000 A 
ATOM     23  C   UNL     1      -2.855  12.539  20.180  0.00  0.00    +0.000 A 
ATOM     24  C   UNL     1      -4.159  12.920  20.524  0.00  0.00    +0.000 A 
ATOM     25  C   UNL     1      -5.208  12.659  19.635  0.00  0.00    +0.000 A 
ATOM     26  C   UNL     1      -4.948  12.017  18.424  0.00  0.00    +0.000 A 
ATOM     27  C   UNL     1      -3.641  11.621  18.072  0.00  0.00    +0.000 A 
BRANCH  27  28
ATOM     28  C   UNL     1      -3.444  10.903  16.756  0.00  0.00    +0.000 C 
ATOM     29  F   UNL     1      -4.486  10.969  15.879  0.00  0.00    +0.000 F 
ATOM     30  F   UNL     1      -2.374  11.402  16.070  0.00  0.00    +0.000 F 
ATOM     31  F   UNL     1      -3.183   9.578  16.926  0.00  0.00    +0.000 F 
ENDBRANCH  27  28
BRANCH  24  32
ATOM     32  C   UNL     1      -4.420  13.590  21.761  0.00  0.00    +0.000 C 
ATOM     33  N   UNL     1      -4.617  14.139  22.762  0.00  0.00    +0.000 NA
ENDBRANCH  24  32
ENDBRANCH  21  22
ENDBRANCH  20  21
ENDBRANCH   2  20
TORSDOF 10
ENDMDL
MODEL 8
REMARK VINA RESULT:      -7.7      5.205     10.460
REMARK  Name = 
REMARK  11 active torsions:
REMARK  status: ('A' for Active; 'I' for Inactive)
REMARK    1  A    between atoms: C_1  and  C_2
REMARK    2  A    between atoms: C_2  and  C_3
REMARK    3  A    between atoms: C_2  and  C_5
REMARK    4  A    between atoms: C_2  and  N_19
REMARK    5  A    between atoms: C_5  and  O_6
REMARK    6  A    between atoms: O_6  and  C_7
REMARK    7  A    between atoms: C_9  and  C_10
REMARK    8  A    between atoms: C_14  and  C_15
REMARK    9  A    between atoms: C_20  and  C_22
REMARK   10  A    between atoms: C_25  and  S_26
REMARK   11  A    between atoms: S_26  and  C_27
REMARK                            x       y       z     vdW  Elec       q    Type
REMARK                         _______ _______ _______ _____ _____    ______ ____
ROOT
ATOM      1  C   UNL     1       1.075  11.658  19.339  0.00  0.00    +0.000 C 
ATOM      2  C   UNL     1       0.446  10.379  19.905  0.00  0.00    +0.000 C 
ENDROOT
BRANCH   2   3
ATOM      3  N   UNL     1       1.364   9.217  19.701  0.00  0.00    +0.000 N 
ATOM      4  C   UNL     1       1.914   8.953  18.455  0.00  0.00    +0.000 C 
ATOM      5  O   UNL     1       1.694   9.651  17.474  0.00  0.00    +0.000 OA
ATOM      6  H   UNL     1       1.291   8.458  20.370  0.00  0.00    +0.000 HD
BRANCH   4   7
ATOM      7  C   UNL     1       2.786   7.759  18.283  0.00  0.00    +0.000 A 
ATOM      8  C   UNL     1       2.764   6.802  19.310  0.00  0.00    +0.000 A 
ATOM      9  C   UNL     1       3.600   5.685  19.267  0.00  0.00    +0.000 A 
ATOM     10  C   UNL     1       4.455   5.494  18.181  0.00  0.00    +0.000 A 
ATOM     11  C   UNL     1       4.440   6.418  17.128  0.00  0.00    +0.000 A 
ATOM     12  C   UNL     1       3.599   7.544  17.169  0.00  0.00    +0.000 A 
BRANCH  10  13
ATOM     13  S   UNL     1       5.633   4.162  18.251  0.00  0.00    +0.000 S 
BRANCH  13  14
ATOM     14  C   UNL     1       7.138   4.970  17.696  0.00  0.00    +0.000 C 
ATOM     15  F   UNL     1       7.131   5.299  16.385  0.00  0.00    +0.000 F 
ATOM     16  F   UNL     1       7.343   6.116  18.393  0.00  0.00    +0.000 F 
ATOM     17  F   UNL     1       8.217   4.178  17.908  0.00  0.00    +0.000 F 
ENDBRANCH  13  14
ENDBRANCH  10  13
ENDBRANCH   4   7
ENDBRANCH   2   3
BRANCH   2  18
ATOM     18  C   UNL     1       0.198  10.547  21.395  0.00  0.00    +0.000 C 
ATOM     19  N   UNL     1      -0.008  10.686  22.632  0.00  0.00    +0.000 NA
ENDBRANCH   2  18
BRANCH   2  20
ATOM     20  C   UNL     1      -0.928  10.094  19.252  0.00  0.00    +0.000 C 
BRANCH  20  21
ATOM     21  O   UNL     1      -1.391  11.266  18.566  0.00  0.00    +0.000 OA
BRANCH  21  22
ATOM     22  C   UNL     1      -2.661  11.694  18.842  0.00  0.00    +0.000 A 
ATOM     23  C   UNL     1      -3.006  12.391  20.007  0.00  0.00    +0.000 A 
ATOM     24  C   UNL     1      -4.310  12.867  20.203  0.00  0.00    +0.000 A 
ATOM     25  C   UNL     1      -5.276  12.651  19.214  0.00  0.00    +0.000 A 
ATOM     26  C   UNL     1      -4.936  11.960  18.051  0.00  0.00    +0.000 A 
ATOM     27  C   UNL     1      -3.630  11.469  17.847  0.00  0.00    +0.000 A 
BRANCH  27  28
ATOM     28  C   UNL     1      -3.347  10.703  16.575  0.00  0.00    +0.000 C 
ATOM     29  F   UNL     1      -2.990   9.397  16.732  0.00  0.00    +0.000 F 
ATOM     30  F   UNL     1      -4.440  10.673  15.756  0.00  0.00    +0.000 F 
ATOM     31  F   UNL     1      -2.355  11.275  15.838  0.00  0.00    +0.000 F 
ENDBRANCH  27  28
BRANCH  24  32
ATOM     32  C   UNL     1      -4.652  13.586  21.391  0.00  0.00    +0.000 C 
ATOM     33  N   UNL     1      -4.940  14.175  22.346  0.00  0.00    +0.000 NA
ENDBRANCH  24  32
ENDBRANCH  21  22
ENDBRANCH  20  21
ENDBRANCH   2  20
TORSDOF 10
ENDMDL
MODEL 9
REMARK VINA RESULT:      -7.7      1.717      1.870
REMARK  Name = 
REMARK  11 active torsions:
REMARK  status: ('A' for Active; 'I' for Inactive)
REMARK    1  A    between atoms: C_1  and  C_2
REMARK    2  A    between atoms: C_2  and  C_3
REMARK    3  A    between atoms: C_2  and  C_5
REMARK    4  A    between atoms: C_2  and  N_19
REMARK    5  A    between atoms: C_5  and  O_6
REMARK    6  A    between atoms: O_6  and  C_7
REMARK    7  A    between atoms: C_9  and  C_10
REMARK    8  A    between atoms: C_14  and  C_15
REMARK    9  A    between atoms: C_20  and  C_22
REMARK   10  A    between atoms: C_25  and  S_26
REMARK   11  A    between atoms: S_26  and  C_27
REMARK                            x       y       z     vdW  Elec       q    Type
REMARK                         _______ _______ _______ _____ _____    ______ ____
ROOT
ATOM      1  C   UNL     1       1.660   2.578  18.714  0.00  0.00    +0.000 C 
ATOM      2  C   UNL     1       3.003   3.317  18.671  0.00  0.00    +0.000 C 
ENDROOT
BRANCH   2   3
ATOM      3  N   UNL     1       2.778   4.796  18.652  0.00  0.00    +0.000 N 
ATOM      4  C   UNL     1       2.192   5.442  19.730  0.00  0.00    +0.000 C 
ATOM      5  O   UNL     1       1.845   4.852  20.745  0.00  0.00    +0.000 OA
ATOM      6  H   UNL     1       2.733   5.235  17.740  0.00  0.00    +0.000 HD
BRANCH   4   7
ATOM      7  C   UNL     1       1.943   6.907  19.652  0.00  0.00    +0.000 A 
ATOM      8  C   UNL     1       1.422   7.525  20.800  0.00  0.00    +0.000 A 
ATOM      9  C   UNL     1       1.092   8.881  20.797  0.00  0.00    +0.000 A 
ATOM     10  C   UNL     1       1.300   9.648  19.651  0.00  0.00    +0.000 A 
ATOM     11  C   UNL     1       1.869   9.047  18.520  0.00  0.00    +0.000 A 
ATOM     12  C   UNL     1       2.203   7.682  18.521  0.00  0.00    +0.000 A 
BRANCH  10  13
ATOM     13  S   UNL     1       0.696  11.321  19.625  0.00  0.00    +0.000 S 
BRANCH  13  14
ATOM     14  C   UNL     1      -0.920  11.121  18.867  0.00  0.00    +0.000 C 
ATOM     15  F   UNL     1      -1.145  11.961  17.831  0.00  0.00    +0.000 F 
ATOM     16  F   UNL     1      -1.066   9.859  18.394  0.00  0.00    +0.000 F 
ATOM     17  F   UNL     1      -1.907  11.324  19.773  0.00  0.00    +0.000 F 
ENDBRANCH  13  14
ENDBRANCH  10  13
ENDBRANCH   4   7
ENDBRANCH   2   3
BRANCH   2  18
ATOM     18  C   UNL     1       3.820   2.965  19.903  0.00  0.00    +0.000 C 
ATOM     19  N   UNL     1       4.499   2.674  20.925  0.00  0.00    +0.000 NA
ENDBRANCH   2  18
BRANCH   2  20
ATOM     20  C   UNL     1       3.839   2.889  17.442  0.00  0.00    +0.000 C 
BRANCH  20  21
ATOM     21  O   UNL     1       5.147   3.474  17.517  0.00  0.00    +0.000 OA
BRANCH  21  22
ATOM     22  C   UNL     1       5.734   3.854  16.341  0.00  0.00    +0.000 A 
ATOM     23  C   UNL     1       5.272   3.453  15.081  0.00  0.00    +0.000 A 
ATOM     24  C   UNL     1       5.872   3.930  13.907  0.00  0.00    +0.000 A 
ATOM     25  C   UNL     1       6.941   4.829  13.999  0.00  0.00    +0.000 A 
ATOM     26  C   UNL     1       7.403   5.233  15.251  0.00  0.00    +0.000 A 
ATOM     27  C   UNL     1       6.813   4.752  16.438  0.00  0.00    +0.000 A 
BRANCH  27  28
ATOM     28  C   UNL     1       7.390   5.213  17.758  0.00  0.00    +0.000 C 
ATOM     29  F   UNL     1       6.508   5.308  18.793  0.00  0.00    +0.000 F 
ATOM     30  F   UNL     1       8.363   4.364  18.202  0.00  0.00    +0.000 F 
ATOM     31  F   UNL     1       7.987   6.433  17.662  0.00  0.00    +0.000 F 
ENDBRANCH  27  28
BRANCH  24  32
ATOM     32  C   UNL     1       5.387   3.523  12.625  0.00  0.00    +0.000 C 
ATOM     33  N   UNL     1       4.981   3.190  11.592  0.00  0.00    +0.000 NA
ENDBRANCH  24  32
ENDBRANCH  21  22
ENDBRANCH  20  21
ENDBRANCH   2  20
TORSDOF 10
ENDMDL
