MODEL 1
REMARK VINA RESULT:      -6.1      0.000      0.000
REMARK  Name = 
REMARK  5 active torsions:
REMARK  status: ('A' for Active; 'I' for Inactive)
REMARK    1  A    between atoms: C_1  and  O_2
REMARK    2  A    between atoms: O_2  and  C_3
REMARK    3  A    between atoms: C_3  and  C_4
REMARK    4  A    between atoms: C_4  and  S_5
REMARK    5  A    between atoms: S_5  and  N_8
REMARK                            x       y       z     vdW  Elec       q    Type
REMARK                         _______ _______ _______ _____ _____    ______ ____
ROOT
ATOM      1  N   UNL     1       4.254   4.077  19.333  0.00  0.00    +0.000 N 
ATOM      2  C   UNL     1       5.169   4.224  18.269  0.00  0.00    +0.000 A 
ATOM      3  C   UNL     1       4.826   4.119  16.942  0.00  0.00    +0.000 A 
ATOM      4  C   UNL     1       5.848   4.302  16.025  0.00  0.00    +0.000 A 
ATOM      5 CL   UNL     1       5.508   4.252  14.337  0.00  0.00    +0.000 Cl
ATOM      6  C   UNL     1       7.154   4.542  16.450  0.00  0.00    +0.000 A 
ATOM      7  C   UNL     1       7.378   4.619  17.811  0.00  0.00    +0.000 A 
ATOM      8  N   UNL     1       6.405   4.493  18.731  0.00  0.00    +0.000 NA
ATOM      9  H   UNL     1       4.741   4.530  20.107  0.00  0.00    +0.000 HD
ENDROOT
BRANCH   1  10
ATOM     10  S   UNL     1       3.989   2.453  19.757  0.00  0.00    +0.000 S 
ATOM     11  O   UNL     1       5.193   1.957  20.386  0.00  0.00    +0.000 OA
ATOM     12  O   UNL     1       3.402   1.779  18.616  0.00  0.00    +0.000 OA
BRANCH  10  13
ATOM     13  C   UNL     1       2.738   2.606  21.021  0.00  0.00    +0.000 C 
BRANCH  13  14
ATOM     14  C   UNL     1       1.763   3.718  20.694  0.00  0.00    +0.000 C 
BRANCH  14  16
ATOM     15  C   UNL     1       1.657   6.062  20.572  0.00  0.00    +0.000 C 
ATOM     16  O   UNL     1       2.206   4.947  21.271  0.00  0.00    +0.000 OA
ENDBRANCH  14  16
ENDBRANCH  13  14
ENDBRANCH  10  13
ENDBRANCH   1  10
TORSDOF 4
ENDMDL
MODEL 2
REMARK VINA RESULT:      -6.1      3.351      5.321
REMARK  Name = 
REMARK  5 active torsions:
REMARK  status: ('A' for Active; 'I' for Inactive)
REMARK    1  A    between atoms: C_1  and  O_2
REMARK    2  A    between atoms: O_2  and  C_3
REMARK    3  A    between atoms: C_3  and  C_4
REMARK    4  A    between atoms: C_4  and  S_5
REMARK    5  A    between atoms: S_5  and  N_8
REMARK                            x       y       z     vdW  Elec       q    Type
REMARK                         _______ _______ _______ _____ _____    ______ ____
ROOT
ATOM      1  N   UNL     1       5.456   3.782  17.857  0.00  0.00    +0.000 N 
ATOM      2  C   UNL     1       4.531   3.585  18.903  0.00  0.00    +0.000 A 
ATOM      3  C   UNL     1       3.442   4.393  19.126  0.00  0.00    +0.000 A 
ATOM      4  C   UNL     1       2.627   4.049  20.193  0.00  0.00    +0.000 A 
ATOM      5 CL   UNL     1       1.204   4.962  20.517  0.00  0.00    +0.000 Cl
ATOM      6  C   UNL     1       2.937   2.959  21.004  0.00  0.00    +0.000 A 
ATOM      7  C   UNL     1       4.064   2.225  20.685  0.00  0.00    +0.000 A 
ATOM      8  N   UNL     1       4.853   2.499  19.631  0.00  0.00    +0.000 NA
ATOM      9  H   UNL     1       5.902   2.867  17.780  0.00  0.00    +0.000 HD
ENDROOT
BRANCH   1  10
ATOM     10  S   UNL     1       6.657   4.921  18.243  0.00  0.00    +0.000 S 
ATOM     11  O   UNL     1       7.893   4.487  17.630  0.00  0.00    +0.000 OA
ATOM     12  O   UNL     1       6.576   5.199  19.663  0.00  0.00    +0.000 OA
BRANCH  10  13
ATOM     13  C   UNL     1       6.090   6.364  17.357  0.00  0.00    +0.000 C 
BRANCH  13  14
ATOM     14  C   UNL     1       5.371   5.974  16.082  0.00  0.00    +0.000 C 
BRANCH  14  16
ATOM     15  C   UNL     1       6.133   4.517  14.405  0.00  0.00    +0.000 C 
ATOM     16  O   UNL     1       6.310   5.789  15.023  0.00  0.00    +0.000 OA
ENDBRANCH  14  16
ENDBRANCH  13  14
ENDBRANCH  10  13
ENDBRANCH   1  10
TORSDOF 4
ENDMDL
MODEL 3
REMARK VINA RESULT:      -6.0      1.136      1.271
REMARK  Name = 
REMARK  5 active torsions:
REMARK  status: ('A' for Active; 'I' for Inactive)
REMARK    1  A    between atoms: C_1  and  O_2
REMARK    2  A    between atoms: O_2  and  C_3
REMARK    3  A    between atoms: C_3  and  C_4
REMARK    4  A    between atoms: C_4  and  S_5
REMARK    5  A    between atoms: S_5  and  N_8
REMARK                            x       y       z     vdW  Elec       q    Type
REMARK                         _______ _______ _______ _____ _____    ______ ____
ROOT
ATOM      1  N   UNL     1       4.292   4.029  19.128  0.00  0.00    +0.000 N 
ATOM      2  C   UNL     1       5.230   4.186  18.085  0.00  0.00    +0.000 A 
ATOM      3  C   UNL     1       4.915   4.092  16.751  0.00  0.00    +0.000 A 
ATOM      4  C   UNL     1       5.957   4.284  15.857  0.00  0.00    +0.000 A 
ATOM      5 CL   UNL     1       5.654   4.249  14.163  0.00  0.00    +0.000 Cl
ATOM      6  C   UNL     1       7.253   4.520  16.313  0.00  0.00    +0.000 A 
ATOM      7  C   UNL     1       7.448   4.585  17.679  0.00  0.00    +0.000 A 
ATOM      8  N   UNL     1       6.455   4.451  18.577  0.00  0.00    +0.000 NA
ATOM      9  H   UNL     1       4.762   4.475  19.917  0.00  0.00    +0.000 HD
ENDROOT
BRANCH   1  10
ATOM     10  S   UNL     1       4.018   2.401  19.531  0.00  0.00    +0.000 S 
ATOM     11  O   UNL     1       5.031   2.005  20.485  0.00  0.00    +0.000 OA
ATOM     12  O   UNL     1       3.808   1.661  18.303  0.00  0.00    +0.000 OA
BRANCH  10  13
ATOM     13  C   UNL     1       2.462   2.497  20.400  0.00  0.00    +0.000 C 
BRANCH  13  14
ATOM     14  C   UNL     1       1.612   3.634  19.873  0.00  0.00    +0.000 C 
BRANCH  14  16
ATOM     15  C   UNL     1       1.326   4.403  17.672  0.00  0.00    +0.000 C 
ATOM     16  O   UNL     1       1.116   3.318  18.572  0.00  0.00    +0.000 OA
ENDBRANCH  14  16
ENDBRANCH  13  14
ENDBRANCH  10  13
ENDBRANCH   1  10
TORSDOF 4
ENDMDL
MODEL 4
REMARK VINA RESULT:      -6.0      1.611      1.965
REMARK  Name = 
REMARK  5 active torsions:
REMARK  status: ('A' for Active; 'I' for Inactive)
REMARK    1  A    between atoms: C_1  and  O_2
REMARK    2  A    between atoms: O_2  and  C_3
REMARK    3  A    between atoms: C_3  and  C_4
REMARK    4  A    between atoms: C_4  and  S_5
REMARK    5  A    between atoms: S_5  and  N_8
REMARK                            x       y       z     vdW  Elec       q    Type
REMARK                         _______ _______ _______ _____ _____    ______ ____
ROOT
ATOM      1  N   UNL     1       4.046   4.178  19.455  0.00  0.00    +0.000 N 
ATOM      2  C   UNL     1       5.137   4.322  18.572  0.00  0.00    +0.000 A 
ATOM      3  C   UNL     1       5.089   4.005  17.236  0.00  0.00    +0.000 A 
ATOM      4  C   UNL     1       6.250   4.218  16.510  0.00  0.00    +0.000 A 
ATOM      5 CL   UNL     1       6.273   3.912  14.816  0.00  0.00    +0.000 Cl
ATOM      6  C   UNL     1       7.403   4.694  17.132  0.00  0.00    +0.000 A 
ATOM      7  C   UNL     1       7.332   4.970  18.484  0.00  0.00    +0.000 A 
ATOM      8  N   UNL     1       6.211   4.821  19.213  0.00  0.00    +0.000 NA
ATOM      9  H   UNL     1       4.307   4.789  20.231  0.00  0.00    +0.000 HD
ENDROOT
BRANCH   1  10
ATOM     10  S   UNL     1       3.889   2.598  20.060  0.00  0.00    +0.000 S 
ATOM     11  O   UNL     1       2.963   2.639  21.170  0.00  0.00    +0.000 OA
ATOM     12  O   UNL     1       5.217   2.037  20.206  0.00  0.00    +0.000 OA
BRANCH  10  13
ATOM     13  C   UNL     1       3.076   1.768  18.705  0.00  0.00    +0.000 C 
BRANCH  13  14
ATOM     14  C   UNL     1       1.717   2.378  18.427  0.00  0.00    +0.000 C 
BRANCH  14  16
ATOM     15  C   UNL     1       1.359   4.569  17.661  0.00  0.00    +0.000 C 
ATOM     16  O   UNL     1       1.791   3.258  17.306  0.00  0.00    +0.000 OA
ENDBRANCH  14  16
ENDBRANCH  13  14
ENDBRANCH  10  13
ENDBRANCH   1  10
TORSDOF 4
ENDMDL
MODEL 5
REMARK VINA RESULT:      -5.9      3.654      5.243
REMARK  Name = 
REMARK  5 active torsions:
REMARK  status: ('A' for Active; 'I' for Inactive)
REMARK    1  A    between atoms: C_1  and  O_2
REMARK    2  A    between atoms: O_2  and  C_3
REMARK    3  A    between atoms: C_3  and  C_4
REMARK    4  A    between atoms: C_4  and  S_5
REMARK    5  A    between atoms: S_5  and  N_8
REMARK                            x       y       z     vdW  Elec       q    Type
REMARK                         _______ _______ _______ _____ _____    ______ ____
ROOT
ATOM      1  N   UNL     1       6.139   4.122  18.767  0.00  0.00    +0.000 N 
ATOM      2  C   UNL     1       4.742   4.222  18.942  0.00  0.00    +0.000 A 
ATOM      3  C   UNL     1       3.854   3.228  18.605  0.00  0.00    +0.000 A 
ATOM      4  C   UNL     1       2.516   3.488  18.853  0.00  0.00    +0.000 A 
ATOM      5 CL   UNL     1       1.331   2.283  18.525  0.00  0.00    +0.000 Cl
ATOM      6  C   UNL     1       2.113   4.713  19.383  0.00  0.00    +0.000 A 
ATOM      7  C   UNL     1       3.098   5.638  19.674  0.00  0.00    +0.000 A 
ATOM      8  N   UNL     1       4.410   5.406  19.491  0.00  0.00    +0.000 NA
ATOM      9  H   UNL     1       6.493   4.842  19.398  0.00  0.00    +0.000 HD
ENDROOT
BRANCH   1  10
ATOM     10  S   UNL     1       6.637   4.513  17.190  0.00  0.00    +0.000 S 
ATOM     11  O   UNL     1       5.688   3.930  16.268  0.00  0.00    +0.000 OA
ATOM     12  O   UNL     1       8.056   4.239  17.085  0.00  0.00    +0.000 OA
BRANCH  10  13
ATOM     13  C   UNL     1       6.405   6.282  17.162  0.00  0.00    +0.000 C 
BRANCH  13  14
ATOM     14  C   UNL     1       7.562   6.996  17.830  0.00  0.00    +0.000 C 
BRANCH  14  16
ATOM     15  C   UNL     1       8.283   9.214  18.106  0.00  0.00    +0.000 C 
ATOM     16  O   UNL     1       7.819   8.239  17.176  0.00  0.00    +0.000 OA
ENDBRANCH  14  16
ENDBRANCH  13  14
ENDBRANCH  10  13
ENDBRANCH   1  10
TORSDOF 4
ENDMDL
MODEL 6
REMARK VINA RESULT:      -5.9      2.457      3.100
REMARK  Name = 
REMARK  5 active torsions:
REMARK  status: ('A' for Active; 'I' for Inactive)
REMARK    1  A    between atoms: C_1  and  O_2
REMARK    2  A    between atoms: O_2  and  C_3
REMARK    3  A    between atoms: C_3  and  C_4
REMARK    4  A    between atoms: C_4  and  S_5
REMARK    5  A    between atoms: S_5  and  N_8
REMARK                            x       y       z     vdW  Elec       q    Type
REMARK                         _______ _______ _______ _____ _____    ______ ____
ROOT
ATOM      1  N   UNL     1       3.507   3.530  18.204  0.00  0.00    +0.000 N 
ATOM      2  C   UNL     1       4.780   4.008  17.830  0.00  0.00    +0.000 A 
ATOM      3  C   UNL     1       5.628   4.677  18.679  0.00  0.00    +0.000 A 
ATOM      4  C   UNL     1       6.848   5.068  18.150  0.00  0.00    +0.000 A 
ATOM      5 CL   UNL     1       8.006   5.856  19.152  0.00  0.00    +0.000 Cl
ATOM      6  C   UNL     1       7.160   4.817  16.815  0.00  0.00    +0.000 A 
ATOM      7  C   UNL     1       6.223   4.143  16.056  0.00  0.00    +0.000 A 
ATOM      8  N   UNL     1       5.048   3.706  16.545  0.00  0.00    +0.000 NA
ATOM      9  H   UNL     1       3.313   2.831  17.485  0.00  0.00    +0.000 HD
ENDROOT
BRANCH   1  10
ATOM     10  S   UNL     1       2.300   4.724  18.115  0.00  0.00    +0.000 S 
ATOM     11  O   UNL     1       1.174   4.163  17.403  0.00  0.00    +0.000 OA
ATOM     12  O   UNL     1       2.921   5.962  17.689  0.00  0.00    +0.000 OA
BRANCH  10  13
ATOM     13  C   UNL     1       1.829   4.894  19.828  0.00  0.00    +0.000 C 
BRANCH  13  14
ATOM     14  C   UNL     1       0.877   3.792  20.245  0.00  0.00    +0.000 C 
BRANCH  14  16
ATOM     15  C   UNL     1       2.440   2.673  21.596  0.00  0.00    +0.000 C 
ATOM     16  O   UNL     1       1.594   2.574  20.453  0.00  0.00    +0.000 OA
ENDBRANCH  14  16
ENDBRANCH  13  14
ENDBRANCH  10  13
ENDBRANCH   1  10
TORSDOF 4
ENDMDL
MODEL 7
REMARK VINA RESULT:      -5.9      3.532      5.610
REMARK  Name = 
REMARK  5 active torsions:
REMARK  status: ('A' for Active; 'I' for Inactive)
REMARK    1  A    between atoms: C_1  and  O_2
REMARK    2  A    between atoms: O_2  and  C_3
REMARK    3  A    between atoms: C_3  and  C_4
REMARK    4  A    between atoms: C_4  and  S_5
REMARK    5  A    between atoms: S_5  and  N_8
REMARK                            x       y       z     vdW  Elec       q    Type
REMARK                         _______ _______ _______ _____ _____    ______ ____
ROOT
ATOM      1  N   UNL     1       4.110   5.568  19.300  0.00  0.00    +0.000 N 
ATOM      2  C   UNL     1       3.025   4.681  19.457  0.00  0.00    +0.000 A 
ATOM      3  C   UNL     1       2.708   4.058  20.640  0.00  0.00    +0.000 A 
ATOM      4  C   UNL     1       1.601   3.225  20.621  0.00  0.00    +0.000 A 
ATOM      5 CL   UNL     1       1.085   2.448  22.069  0.00  0.00    +0.000 Cl
ATOM      6  C   UNL     1       0.885   3.016  19.444  0.00  0.00    +0.000 A 
ATOM      7  C   UNL     1       1.304   3.693  18.313  0.00  0.00    +0.000 A 
ATOM      8  N   UNL     1       2.345   4.545  18.302  0.00  0.00    +0.000 NA
ATOM      9  H   UNL     1       3.860   6.076  18.450  0.00  0.00    +0.000 HD
ENDROOT
BRANCH   1  10
ATOM     10  S   UNL     1       5.583   4.768  19.019  0.00  0.00    +0.000 S 
ATOM     11  O   UNL     1       5.335   3.345  19.097  0.00  0.00    +0.000 OA
ATOM     12  O   UNL     1       6.603   5.401  19.830  0.00  0.00    +0.000 OA
BRANCH  10  13
ATOM     13  C   UNL     1       5.897   5.171  17.309  0.00  0.00    +0.000 C 
BRANCH  13  14
ATOM     14  C   UNL     1       7.368   5.441  17.072  0.00  0.00    +0.000 C 
BRANCH  14  16
ATOM     15  C   UNL     1       7.616   7.743  17.473  0.00  0.00    +0.000 C 
ATOM     16  O   UNL     1       7.544   6.727  16.476  0.00  0.00    +0.000 OA
ENDBRANCH  14  16
ENDBRANCH  13  14
ENDBRANCH  10  13
ENDBRANCH   1  10
TORSDOF 4
ENDMDL
MODEL 8
REMARK VINA RESULT:      -5.8      4.085      5.165
REMARK  Name = 
REMARK  5 active torsions:
REMARK  status: ('A' for Active; 'I' for Inactive)
REMARK    1  A    between atoms: C_1  and  O_2
REMARK    2  A    between atoms: O_2  and  C_3
REMARK    3  A    between atoms: C_3  and  C_4
REMARK    4  A    between atoms: C_4  and  S_5
REMARK    5  A    between atoms: S_5  and  N_8
REMARK                            x       y       z     vdW  Elec       q    Type
REMARK                         _______ _______ _______ _____ _____    ______ ____
ROOT
ATOM      1  N   UNL     1       6.166   5.658  15.689  0.00  0.00    +0.000 N 
ATOM      2  C   UNL     1       6.493   5.061  14.453  0.00  0.00    +0.000 A 
ATOM      3  C   UNL     1       5.755   4.062  13.864  0.00  0.00    +0.000 A 
ATOM      4  C   UNL     1       6.214   3.596  12.643  0.00  0.00    +0.000 A 
ATOM      5 CL   UNL     1       5.325   2.390  11.794  0.00  0.00    +0.000 Cl
ATOM      6  C   UNL     1       7.384   4.102  12.080  0.00  0.00    +0.000 A 
ATOM      7  C   UNL     1       8.045   5.100  12.770  0.00  0.00    +0.000 A 
ATOM      8  N   UNL     1       7.607   5.612  13.934  0.00  0.00    +0.000 NA
ATOM      9  H   UNL     1       6.689   6.534  15.657  0.00  0.00    +0.000 HD
ENDROOT
BRANCH   1  10
ATOM     10  S   UNL     1       6.719   4.762  17.023  0.00  0.00    +0.000 S 
ATOM     11  O   UNL     1       7.981   4.158  16.657  0.00  0.00    +0.000 OA
ATOM     12  O   UNL     1       5.617   3.964  17.520  0.00  0.00    +0.000 OA
BRANCH  10  13
ATOM     13  C   UNL     1       7.059   6.050  18.211  0.00  0.00    +0.000 C 
BRANCH  13  14
ATOM     14  C   UNL     1       6.650   7.408  17.677  0.00  0.00    +0.000 C 
BRANCH  14  16
ATOM     15  C   UNL     1       8.334   8.998  18.068  0.00  0.00    +0.000 C 
ATOM     16  O   UNL     1       7.782   8.082  17.126  0.00  0.00    +0.000 OA
ENDBRANCH  14  16
ENDBRANCH  13  14
ENDBRANCH  10  13
ENDBRANCH   1  10
TORSDOF 4
ENDMDL
MODEL 9
REMARK VINA RESULT:      -5.7      3.128      5.373
REMARK  Name = 
REMARK  5 active torsions:
REMARK  status: ('A' for Active; 'I' for Inactive)
REMARK    1  A    between atoms: C_1  and  O_2
REMARK    2  A    between atoms: O_2  and  C_3
REMARK    3  A    between atoms: C_3  and  C_4
REMARK    4  A    between atoms: C_4  and  S_5
REMARK    5  A    between atoms: S_5  and  N_8
REMARK                            x       y       z     vdW  Elec       q    Type
REMARK                         _______ _______ _______ _____ _____    ______ ____
ROOT
ATOM      1  N   UNL     1       5.321   3.166  19.139  0.00  0.00    +0.000 N 
ATOM      2  C   UNL     1       4.023   2.920  19.633  0.00  0.00    +0.000 A 
ATOM      3  C   UNL     1       2.893   2.912  18.850  0.00  0.00    +0.000 A 
ATOM      4  C   UNL     1       1.698   2.642  19.497  0.00  0.00    +0.000 A 
ATOM      5 CL   UNL     1       0.235   2.546  18.594  0.00  0.00    +0.000 Cl
ATOM      6  C   UNL     1       1.663   2.430  20.874  0.00  0.00    +0.000 A 
ATOM      7  C   UNL     1       2.864   2.471  21.556  0.00  0.00    +0.000 A 
ATOM      8  N   UNL     1       4.050   2.684  20.958  0.00  0.00    +0.000 NA
ATOM      9  H   UNL     1       5.915   2.779  19.874  0.00  0.00    +0.000 HD
ENDROOT
BRANCH   1  10
ATOM     10  S   UNL     1       5.672   4.823  18.998  0.00  0.00    +0.000 S 
ATOM     11  O   UNL     1       7.044   5.022  19.410  0.00  0.00    +0.000 OA
ATOM     12  O   UNL     1       4.587   5.567  19.605  0.00  0.00    +0.000 OA
BRANCH  10  13
ATOM     13  C   UNL     1       5.596   5.063  17.231  0.00  0.00    +0.000 C 
BRANCH  13  14
ATOM     14  C   UNL     1       6.460   6.230  16.800  0.00  0.00    +0.000 C 
BRANCH  14  16
ATOM     15  C   UNL     1       6.984   4.758  15.047  0.00  0.00    +0.000 C 
ATOM     16  O   UNL     1       7.477   5.786  15.902  0.00  0.00    +0.000 OA
ENDBRANCH  14  16
ENDBRANCH  13  14
ENDBRANCH  10  13
ENDBRANCH   1  10
TORSDOF 4
ENDMDL
