MODEL 1
REMARK VINA RESULT:      -5.9      0.000      0.000
REMARK  Name = 
REMARK  6 active torsions:
REMARK  status: ('A' for Active; 'I' for Inactive)
REMARK    1  A    between atoms: C_1  and  C_2
REMARK    2  A    between atoms: C_2  and  C_3
REMARK    3  A    between atoms: C_9  and  C_10
REMARK    4  A    between atoms: C_15  and  C_16
REMARK    5  A    between atoms: C_19  and  C_20
REMARK    6  A    between atoms: C_19  and  C_22
REMARK                            x       y       z     vdW  Elec       q    Type
REMARK                         _______ _______ _______ _____ _____    ______ ____
ROOT
ATOM      1  C   UNL     1       1.052  12.672  18.430  0.00  0.00    +0.000 C 
ATOM      2  C   UNL     1      -0.033  11.753  19.046  0.00  0.00    +0.000 C 
ATOM      3  C   UNL     1      -0.563  12.475  20.310  0.00  0.00    +0.000 C 
ATOM      4  C   UNL     1      -2.069  12.520  20.506  0.00  0.00    +0.000 C 
ATOM      5  C   UNL     1      -2.928  12.169  19.509  0.00  0.00    +0.000 C 
ATOM      6  C   UNL     1      -2.445  11.689  18.201  0.00  0.00    +0.000 C 
ATOM      7  C   UNL     1      -3.315  11.334  17.228  0.00  0.00    +0.000 C 
ATOM      8  N   UNL     1      -1.066  11.643  18.013  0.00  0.00    +0.000 N 
ATOM      9  H   UNL     1      -0.735  11.144  17.186  0.00  0.00    +0.000 HD
ENDROOT
BRANCH   2  10
ATOM     10  C   UNL     1       0.562  10.378  19.374  0.00  0.00    +0.000 A 
ATOM     11  C   UNL     1       0.516   9.666  20.563  0.00  0.00    +0.000 A 
ATOM     12  C   UNL     1       1.268   8.459  20.524  0.00  0.00    +0.000 A 
ATOM     13  C   UNL     1       1.862   8.264  19.301  0.00  0.00    +0.000 A 
ATOM     14  S   UNL     1       1.507   9.528  18.207  0.00  0.00    +0.000 S 
ENDBRANCH   2  10
BRANCH   4  15
ATOM     15  C   UNL     1      -2.599  13.017  21.751  0.00  0.00    +0.000 A 
ATOM     16  C   UNL     1      -2.939  12.318  22.896  0.00  0.00    +0.000 A 
ATOM     17  C   UNL     1      -3.399  13.166  23.947  0.00  0.00    +0.000 A 
ATOM     18  C   UNL     1      -3.390  14.491  23.580  0.00  0.00    +0.000 A 
ATOM     19  S   UNL     1      -2.821  14.710  21.984  0.00  0.00    +0.000 S 
ENDBRANCH   4  15
BRANCH   5  20
ATOM     20  C   UNL     1      -4.414  12.380  19.754  0.00  0.00    +0.000 C 
ATOM     21  N   UNL     1      -5.646  12.554  19.958  0.00  0.00    +0.000 NA
ENDBRANCH   5  20
BRANCH   7  22
ATOM     22  C   UNL     1      -4.808  11.524  17.437  0.00  0.00    +0.000 C 
ATOM     23  N   UNL     1      -6.047  11.682  17.612  0.00  0.00    +0.000 NA
ENDBRANCH   7  22
BRANCH   7  24
ATOM     24  C   UNL     1      -2.898  10.853  15.958  0.00  0.00    +0.000 C 
ATOM     25  N   UNL     1      -2.598  10.460  14.906  0.00  0.00    +0.000 NA
ENDBRANCH   7  24
TORSDOF 5
ENDMDL
MODEL 2
REMARK VINA RESULT:      -5.7      0.869      1.027
REMARK  Name = 
REMARK  6 active torsions:
REMARK  status: ('A' for Active; 'I' for Inactive)
REMARK    1  A    between atoms: C_1  and  C_2
REMARK    2  A    between atoms: C_2  and  C_3
REMARK    3  A    between atoms: C_9  and  C_10
REMARK    4  A    between atoms: C_15  and  C_16
REMARK    5  A    between atoms: C_19  and  C_20
REMARK    6  A    between atoms: C_19  and  C_22
REMARK                            x       y       z     vdW  Elec       q    Type
REMARK                         _______ _______ _______ _____ _____    ______ ____
ROOT
ATOM      1  C   UNL     1       0.433  13.255  18.459  0.00  0.00    +0.000 C 
ATOM      2  C   UNL     1      -0.500  12.194  19.095  0.00  0.00    +0.000 C 
ATOM      3  C   UNL     1      -1.058  12.817  20.400  0.00  0.00    +0.000 C 
ATOM      4  C   UNL     1      -2.547  12.667  20.659  0.00  0.00    +0.000 C 
ATOM      5  C   UNL     1      -3.400  12.232  19.691  0.00  0.00    +0.000 C 
ATOM      6  C   UNL     1      -2.920  11.843  18.352  0.00  0.00    +0.000 C 
ATOM      7  C   UNL     1      -3.782  11.401  17.407  0.00  0.00    +0.000 C 
ATOM      8  N   UNL     1      -1.556  11.976  18.105  0.00  0.00    +0.000 N 
ATOM      9  H   UNL     1      -1.203  11.540  17.252  0.00  0.00    +0.000 HD
ENDROOT
BRANCH   2  10
ATOM     10  C   UNL     1       0.277  10.898  19.362  0.00  0.00    +0.000 A 
ATOM     11  C   UNL     1       0.938  10.075  18.463  0.00  0.00    +0.000 A 
ATOM     12  C   UNL     1       1.470   8.900  19.064  0.00  0.00    +0.000 A 
ATOM     13  C   UNL     1       1.218   8.856  20.415  0.00  0.00    +0.000 A 
ATOM     14  S   UNL     1       0.351  10.228  20.950  0.00  0.00    +0.000 S 
ENDBRANCH   2  10
BRANCH   4  15
ATOM     15  C   UNL     1      -3.079  13.068  21.938  0.00  0.00    +0.000 A 
ATOM     16  C   UNL     1      -3.207  12.327  23.101  0.00  0.00    +0.000 A 
ATOM     17  C   UNL     1      -3.747  13.084  24.183  0.00  0.00    +0.000 A 
ATOM     18  C   UNL     1      -4.011  14.384  23.820  0.00  0.00    +0.000 A 
ATOM     19  S   UNL     1      -3.598  14.691  22.191  0.00  0.00    +0.000 S 
ENDBRANCH   4  15
BRANCH   5  20
ATOM     20  C   UNL     1      -4.888  12.248  20.004  0.00  0.00    +0.000 C 
ATOM     21  N   UNL     1      -6.121  12.262  20.263  0.00  0.00    +0.000 NA
ENDBRANCH   5  20
BRANCH   7  22
ATOM     22  C   UNL     1      -5.276  11.397  17.684  0.00  0.00    +0.000 C 
ATOM     23  N   UNL     1      -6.516  11.394  17.913  0.00  0.00    +0.000 NA
ENDBRANCH   7  22
BRANCH   7  24
ATOM     24  C   UNL     1      -3.366  11.004  16.109  0.00  0.00    +0.000 C 
ATOM     25  N   UNL     1      -2.991  10.658  15.064  0.00  0.00    +0.000 NA
ENDBRANCH   7  24
TORSDOF 5
ENDMDL
MODEL 3
REMARK VINA RESULT:      -5.6      1.309      1.385
REMARK  Name = 
REMARK  6 active torsions:
REMARK  status: ('A' for Active; 'I' for Inactive)
REMARK    1  A    between atoms: C_1  and  C_2
REMARK    2  A    between atoms: C_2  and  C_3
REMARK    3  A    between atoms: C_9  and  C_10
REMARK    4  A    between atoms: C_15  and  C_16
REMARK    5  A    between atoms: C_19  and  C_20
REMARK    6  A    between atoms: C_19  and  C_22
REMARK                            x       y       z     vdW  Elec       q    Type
REMARK                         _______ _______ _______ _____ _____    ______ ____
ROOT
ATOM      1  C   UNL     1       1.975  11.502  18.040  0.00  0.00    +0.000 C 
ATOM      2  C   UNL     1       0.840  10.971  18.953  0.00  0.00    +0.000 C 
ATOM      3  C   UNL     1       0.686  11.990  20.110  0.00  0.00    +0.000 C 
ATOM      4  C   UNL     1      -0.725  12.414  20.479  0.00  0.00    +0.000 C 
ATOM      5  C   UNL     1      -1.790  12.117  19.685  0.00  0.00    +0.000 C 
ATOM      6  C   UNL     1      -1.639  11.334  18.444  0.00  0.00    +0.000 C 
ATOM      7  C   UNL     1      -2.711  11.038  17.675  0.00  0.00    +0.000 C 
ATOM      8  N   UNL     1      -0.348  10.939  18.098  0.00  0.00    +0.000 N 
ATOM      9  H   UNL     1      -0.268  10.251  17.349  0.00  0.00    +0.000 HD
ENDROOT
BRANCH   2  10
ATOM     10  C   UNL     1       1.186   9.567  19.464  0.00  0.00    +0.000 A 
ATOM     11  C   UNL     1       0.934   9.001  20.705  0.00  0.00    +0.000 A 
ATOM     12  C   UNL     1       1.489   7.699  20.852  0.00  0.00    +0.000 A 
ATOM     13  C   UNL     1       2.141   7.288  19.714  0.00  0.00    +0.000 A 
ATOM     14  S   UNL     1       2.076   8.466  18.477  0.00  0.00    +0.000 S 
ENDBRANCH   2  10
BRANCH   4  15
ATOM     15  C   UNL     1      -0.929  13.215  21.661  0.00  0.00    +0.000 A 
ATOM     16  C   UNL     1      -1.325  12.817  22.926  0.00  0.00    +0.000 A 
ATOM     17  C   UNL     1      -1.380  13.899  23.855  0.00  0.00    +0.000 A 
ATOM     18  C   UNL     1      -1.018  15.093  23.275  0.00  0.00    +0.000 A 
ATOM     19  S   UNL     1      -0.603  14.907  21.628  0.00  0.00    +0.000 S 
ENDBRANCH   4  15
BRANCH   5  20
ATOM     20  C   UNL     1      -3.140  12.703  20.067  0.00  0.00    +0.000 C 
ATOM     21  N   UNL     1      -4.259  13.189  20.386  0.00  0.00    +0.000 NA
ENDBRANCH   5  20
BRANCH   7  22
ATOM     22  C   UNL     1      -4.078  11.601  18.028  0.00  0.00    +0.000 C 
ATOM     23  N   UNL     1      -5.212  12.068  18.321  0.00  0.00    +0.000 NA
ENDBRANCH   7  22
BRANCH   7  24
ATOM     24  C   UNL     1      -2.617  10.276  16.480  0.00  0.00    +0.000 C 
ATOM     25  N   UNL     1      -2.538   9.690  15.479  0.00  0.00    +0.000 NA
ENDBRANCH   7  24
TORSDOF 5
ENDMDL
MODEL 4
REMARK VINA RESULT:      -5.5      1.163      1.282
REMARK  Name = 
REMARK  6 active torsions:
REMARK  status: ('A' for Active; 'I' for Inactive)
REMARK    1  A    between atoms: C_1  and  C_2
REMARK    2  A    between atoms: C_2  and  C_3
REMARK    3  A    between atoms: C_9  and  C_10
REMARK    4  A    between atoms: C_15  and  C_16
REMARK    5  A    between atoms: C_19  and  C_20
REMARK    6  A    between atoms: C_19  and  C_22
REMARK                            x       y       z     vdW  Elec       q    Type
REMARK                         _______ _______ _______ _____ _____    ______ ____
ROOT
ATOM      1  C   UNL     1      -0.324  13.487  18.478  0.00  0.00    +0.000 C 
ATOM      2  C   UNL     1      -1.196  12.429  19.201  0.00  0.00    +0.000 C 
ATOM      3  C   UNL     1      -1.744  13.104  20.483  0.00  0.00    +0.000 C 
ATOM      4  C   UNL     1      -3.219  12.911  20.793  0.00  0.00    +0.000 C 
ATOM      5  C   UNL     1      -4.079  12.388  19.876  0.00  0.00    +0.000 C 
ATOM      6  C   UNL     1      -3.619  11.941  18.548  0.00  0.00    +0.000 C 
ATOM      7  C   UNL     1      -4.486  11.412  17.655  0.00  0.00    +0.000 C 
ATOM      8  N   UNL     1      -2.268  12.112  18.254  0.00  0.00    +0.000 N 
ATOM      9  H   UNL     1      -1.920  11.642  17.418  0.00  0.00    +0.000 HD
ENDROOT
BRANCH   2  10
ATOM     10  C   UNL     1      -0.360  11.182  19.518  0.00  0.00    +0.000 A 
ATOM     11  C   UNL     1      -0.498  10.279  20.562  0.00  0.00    +0.000 A 
ATOM     12  C   UNL     1       0.527   9.293  20.590  0.00  0.00    +0.000 A 
ATOM     13  C   UNL     1       1.421   9.453  19.558  0.00  0.00    +0.000 A 
ATOM     14  S   UNL     1       1.019  10.781  18.561  0.00  0.00    +0.000 S 
ENDBRANCH   2  10
BRANCH   4  15
ATOM     15  C   UNL     1      -3.733  13.365  22.062  0.00  0.00    +0.000 A 
ATOM     16  C   UNL     1      -3.844  12.672  23.255  0.00  0.00    +0.000 A 
ATOM     17  C   UNL     1      -4.370  13.473  24.313  0.00  0.00    +0.000 A 
ATOM     18  C   UNL     1      -4.639  14.757  23.901  0.00  0.00    +0.000 A 
ATOM     19  S   UNL     1      -4.249  14.998  22.255  0.00  0.00    +0.000 S 
ENDBRANCH   4  15
BRANCH   5  20
ATOM     20  C   UNL     1      -5.557  12.364  20.230  0.00  0.00    +0.000 C 
ATOM     21  N   UNL     1      -6.783  12.345  20.523  0.00  0.00    +0.000 NA
ENDBRANCH   5  20
BRANCH   7  22
ATOM     22  C   UNL     1      -5.971  11.365  17.974  0.00  0.00    +0.000 C 
ATOM     23  N   UNL     1      -7.203  11.326  18.239  0.00  0.00    +0.000 NA
ENDBRANCH   7  22
BRANCH   7  24
ATOM     24  C   UNL     1      -4.088  10.956  16.370  0.00  0.00    +0.000 C 
ATOM     25  N   UNL     1      -3.773  10.622  15.302  0.00  0.00    +0.000 NA
ENDBRANCH   7  24
TORSDOF 5
ENDMDL
MODEL 5
REMARK VINA RESULT:      -5.4      2.129      2.771
REMARK  Name = 
REMARK  6 active torsions:
REMARK  status: ('A' for Active; 'I' for Inactive)
REMARK    1  A    between atoms: C_1  and  C_2
REMARK    2  A    between atoms: C_2  and  C_3
REMARK    3  A    between atoms: C_9  and  C_10
REMARK    4  A    between atoms: C_15  and  C_16
REMARK    5  A    between atoms: C_19  and  C_20
REMARK    6  A    between atoms: C_19  and  C_22
REMARK                            x       y       z     vdW  Elec       q    Type
REMARK                         _______ _______ _______ _____ _____    ______ ____
ROOT
ATOM      1  C   UNL     1      -0.871  13.866  20.898  0.00  0.00    +0.000 C 
ATOM      2  C   UNL     1      -1.932  12.759  21.128  0.00  0.00    +0.000 C 
ATOM      3  C   UNL     1      -3.010  13.362  22.063  0.00  0.00    +0.000 C 
ATOM      4  C   UNL     1      -4.464  13.128  21.689  0.00  0.00    +0.000 C 
ATOM      5  C   UNL     1      -4.816  12.633  20.470  0.00  0.00    +0.000 C 
ATOM      6  C   UNL     1      -3.805  12.259  19.463  0.00  0.00    +0.000 C 
ATOM      7  C   UNL     1      -4.175  11.757  18.262  0.00  0.00    +0.000 C 
ATOM      8  N   UNL     1      -2.469  12.468  19.797  0.00  0.00    +0.000 N 
ATOM      9  H   UNL     1      -1.774  12.044  19.182  0.00  0.00    +0.000 HD
ENDROOT
BRANCH   2  10
ATOM     10  C   UNL     1      -1.273  11.514  21.736  0.00  0.00    +0.000 A 
ATOM     11  C   UNL     1      -1.297  11.064  23.048  0.00  0.00    +0.000 A 
ATOM     12  C   UNL     1      -0.486   9.915  23.262  0.00  0.00    +0.000 A 
ATOM     13  C   UNL     1       0.130   9.499  22.106  0.00  0.00    +0.000 A 
ATOM     14  S   UNL     1      -0.275  10.488  20.772  0.00  0.00    +0.000 S 
ENDBRANCH   2  10
BRANCH   4  15
ATOM     15  C   UNL     1      -5.497  13.511  22.619  0.00  0.00    +0.000 A 
ATOM     16  C   UNL     1      -6.166  12.733  23.548  0.00  0.00    +0.000 A 
ATOM     17  C   UNL     1      -7.103  13.479  24.323  0.00  0.00    +0.000 A 
ATOM     18  C   UNL     1      -7.119  14.809  23.970  0.00  0.00    +0.000 A 
ATOM     19  S   UNL     1      -6.004  15.155  22.723  0.00  0.00    +0.000 S 
ENDBRANCH   4  15
BRANCH   5  20
ATOM     20  C   UNL     1      -6.298  12.566  20.139  0.00  0.00    +0.000 C 
ATOM     21  N   UNL     1      -7.527  12.510  19.865  0.00  0.00    +0.000 NA
ENDBRANCH   5  20
BRANCH   7  22
ATOM     22  C   UNL     1      -5.648  11.669  17.896  0.00  0.00    +0.000 C 
ATOM     23  N   UNL     1      -6.869  11.595  17.593  0.00  0.00    +0.000 NA
ENDBRANCH   7  22
BRANCH   7  24
ATOM     24  C   UNL     1      -3.239  11.370  17.266  0.00  0.00    +0.000 C 
ATOM     25  N   UNL     1      -2.498  11.074  16.422  0.00  0.00    +0.000 NA
ENDBRANCH   7  24
TORSDOF 5
ENDMDL
MODEL 6
REMARK VINA RESULT:      -5.4      2.574      5.630
REMARK  Name = 
REMARK  6 active torsions:
REMARK  status: ('A' for Active; 'I' for Inactive)
REMARK    1  A    between atoms: C_1  and  C_2
REMARK    2  A    between atoms: C_2  and  C_3
REMARK    3  A    between atoms: C_9  and  C_10
REMARK    4  A    between atoms: C_15  and  C_16
REMARK    5  A    between atoms: C_19  and  C_20
REMARK    6  A    between atoms: C_19  and  C_22
REMARK                            x       y       z     vdW  Elec       q    Type
REMARK                         _______ _______ _______ _____ _____    ______ ____
ROOT
ATOM      1  C   UNL     1      -7.004  11.160  18.896  0.00  0.00    +0.000 C 
ATOM      2  C   UNL     1      -5.958  12.304  18.919  0.00  0.00    +0.000 C 
ATOM      3  C   UNL     1      -5.702  12.644  20.408  0.00  0.00    +0.000 C 
ATOM      4  C   UNL     1      -4.256  12.812  20.844  0.00  0.00    +0.000 C 
ATOM      5  C   UNL     1      -3.221  12.441  20.041  0.00  0.00    +0.000 C 
ATOM      6  C   UNL     1      -3.445  11.896  18.689  0.00  0.00    +0.000 C 
ATOM      7  C   UNL     1      -2.402  11.546  17.901  0.00  0.00    +0.000 C 
ATOM      8  N   UNL     1      -4.767  11.739  18.280  0.00  0.00    +0.000 N 
ATOM      9  H   UNL     1      -4.916  11.538  17.290  0.00  0.00    +0.000 HD
ENDROOT
BRANCH   2  10
ATOM     10  C   UNL     1      -6.480  13.513  18.133  0.00  0.00    +0.000 A 
ATOM     11  C   UNL     1      -6.767  13.619  16.780  0.00  0.00    +0.000 A 
ATOM     12  C   UNL     1      -7.143  14.934  16.388  0.00  0.00    +0.000 A 
ATOM     13  C   UNL     1      -7.151  15.805  17.451  0.00  0.00    +0.000 A 
ATOM     14  S   UNL     1      -6.713  15.035  18.913  0.00  0.00    +0.000 S 
ENDBRANCH   2  10
BRANCH   4  15
ATOM     15  C   UNL     1      -3.978  13.304  22.170  0.00  0.00    +0.000 A 
ATOM     16  C   UNL     1      -3.834  12.597  23.352  0.00  0.00    +0.000 A 
ATOM     17  C   UNL     1      -3.521  13.434  24.464  0.00  0.00    +0.000 A 
ATOM     18  C   UNL     1      -3.428  14.758  24.102  0.00  0.00    +0.000 A 
ATOM     19  S   UNL     1      -3.703  14.986  22.430  0.00  0.00    +0.000 S 
ENDBRANCH   4  15
BRANCH   5  20
ATOM     20  C   UNL     1      -1.818  12.519  20.620  0.00  0.00    +0.000 C 
ATOM     21  N   UNL     1      -0.653  12.583  21.099  0.00  0.00    +0.000 NA
ENDBRANCH   5  20
BRANCH   7  22
ATOM     22  C   UNL     1      -0.984  11.614  18.442  0.00  0.00    +0.000 C 
ATOM     23  N   UNL     1       0.193  11.671  18.891  0.00  0.00    +0.000 NA
ENDBRANCH   7  22
BRANCH   7  24
ATOM     24  C   UNL     1      -2.568  11.029  16.588  0.00  0.00    +0.000 C 
ATOM     25  N   UNL     1      -2.684  10.641  15.499  0.00  0.00    +0.000 NA
ENDBRANCH   7  24
TORSDOF 5
ENDMDL
MODEL 7
REMARK VINA RESULT:      -5.2      1.654      2.065
REMARK  Name = 
REMARK  6 active torsions:
REMARK  status: ('A' for Active; 'I' for Inactive)
REMARK    1  A    between atoms: C_1  and  C_2
REMARK    2  A    between atoms: C_2  and  C_3
REMARK    3  A    between atoms: C_9  and  C_10
REMARK    4  A    between atoms: C_15  and  C_16
REMARK    5  A    between atoms: C_19  and  C_20
REMARK    6  A    between atoms: C_19  and  C_22
REMARK                            x       y       z     vdW  Elec       q    Type
REMARK                         _______ _______ _______ _____ _____    ______ ____
ROOT
ATOM      1  C   UNL     1       0.027  13.143  19.961  0.00  0.00    +0.000 C 
ATOM      2  C   UNL     1      -1.192  12.357  20.509  0.00  0.00    +0.000 C 
ATOM      3  C   UNL     1      -2.012  13.351  21.369  0.00  0.00    +0.000 C 
ATOM      4  C   UNL     1      -3.518  13.366  21.168  0.00  0.00    +0.000 C 
ATOM      5  C   UNL     1      -4.103  12.727  20.118  0.00  0.00    +0.000 C 
ATOM      6  C   UNL     1      -3.314  11.952  19.143  0.00  0.00    +0.000 C 
ATOM      7  C   UNL     1      -3.916  11.314  18.113  0.00  0.00    +0.000 C 
ATOM      8  N   UNL     1      -1.932  11.932  19.319  0.00  0.00    +0.000 N 
ATOM      9  H   UNL     1      -1.412  11.255  18.760  0.00  0.00    +0.000 HD
ENDROOT
BRANCH   2  10
ATOM     10  C   UNL     1      -0.718  11.146  21.322  0.00  0.00    +0.000 A 
ATOM     11  C   UNL     1      -0.900  10.872  22.669  0.00  0.00    +0.000 A 
ATOM     12  C   UNL     1      -0.233   9.690  23.096  0.00  0.00    +0.000 A 
ATOM     13  C   UNL     1       0.435   9.076  22.064  0.00  0.00    +0.000 A 
ATOM     14  S   UNL     1       0.249   9.919  20.589  0.00  0.00    +0.000 S 
ENDBRANCH   2  10
BRANCH   4  15
ATOM     15  C   UNL     1      -4.337  14.138  22.069  0.00  0.00    +0.000 A 
ATOM     16  C   UNL     1      -5.088  13.710  23.150  0.00  0.00    +0.000 A 
ATOM     17  C   UNL     1      -5.741  14.781  23.830  0.00  0.00    +0.000 A 
ATOM     18  C   UNL     1      -5.464  15.999  23.255  0.00  0.00    +0.000 A 
ATOM     19  S   UNL     1      -4.417  15.853  21.913  0.00  0.00    +0.000 S 
ENDBRANCH   4  15
BRANCH   5  20
ATOM     20  C   UNL     1      -5.600  12.915  19.925  0.00  0.00    +0.000 C 
ATOM     21  N   UNL     1      -6.840  13.072  19.765  0.00  0.00    +0.000 NA
ENDBRANCH   5  20
BRANCH   7  22
ATOM     22  C   UNL     1      -5.411  11.473  17.890  0.00  0.00    +0.000 C 
ATOM     23  N   UNL     1      -6.651  11.605  17.705  0.00  0.00    +0.000 NA
ENDBRANCH   7  22
BRANCH   7  24
ATOM     24  C   UNL     1      -3.199  10.546  17.157  0.00  0.00    +0.000 C 
ATOM     25  N   UNL     1      -2.641   9.885  16.380  0.00  0.00    +0.000 NA
ENDBRANCH   7  24
TORSDOF 5
ENDMDL
MODEL 8
REMARK VINA RESULT:      -5.1      8.327     11.720
REMARK  Name = 
REMARK  6 active torsions:
REMARK  status: ('A' for Active; 'I' for Inactive)
REMARK    1  A    between atoms: C_1  and  C_2
REMARK    2  A    between atoms: C_2  and  C_3
REMARK    3  A    between atoms: C_9  and  C_10
REMARK    4  A    between atoms: C_15  and  C_16
REMARK    5  A    between atoms: C_19  and  C_20
REMARK    6  A    between atoms: C_19  and  C_22
REMARK                            x       y       z     vdW  Elec       q    Type
REMARK                         _______ _______ _______ _____ _____    ______ ____
ROOT
ATOM      1  C   UNL     1       6.734  17.678  20.438  0.00  0.00    +0.000 C 
ATOM      2  C   UNL     1       6.584  16.195  20.014  0.00  0.00    +0.000 C 
ATOM      3  C   UNL     1       7.861  15.828  19.218  0.00  0.00    +0.000 C 
ATOM      4  C   UNL     1       8.534  14.508  19.555  0.00  0.00    +0.000 C 
ATOM      5  C   UNL     1       8.190  13.794  20.662  0.00  0.00    +0.000 C 
ATOM      6  C   UNL     1       7.119  14.241  21.573  0.00  0.00    +0.000 C 
ATOM      7  C   UNL     1       6.784  13.511  22.661  0.00  0.00    +0.000 C 
ATOM      8  N   UNL     1       6.496  15.450  21.271  0.00  0.00    +0.000 N 
ATOM      9  H   UNL     1       5.643  15.664  21.790  0.00  0.00    +0.000 HD
ENDROOT
BRANCH   2  10
ATOM     10  C   UNL     1       5.311  16.011  19.178  0.00  0.00    +0.000 A 
ATOM     11  C   UNL     1       5.116  15.242  18.040  0.00  0.00    +0.000 A 
ATOM     12  C   UNL     1       3.818  15.392  17.477  0.00  0.00    +0.000 A 
ATOM     13  C   UNL     1       3.041  16.262  18.203  0.00  0.00    +0.000 A 
ATOM     14  S   UNL     1       3.874  16.886  19.559  0.00  0.00    +0.000 S 
ENDBRANCH   2  10
BRANCH   4  15
ATOM     15  C   UNL     1       9.614  14.040  18.722  0.00  0.00    +0.000 A 
ATOM     16  C   UNL     1       9.578  13.142  17.669  0.00  0.00    +0.000 A 
ATOM     17  C   UNL     1      10.852  12.955  17.056  0.00  0.00    +0.000 A 
ATOM     18  C   UNL     1      11.827  13.720  17.653  0.00  0.00    +0.000 A 
ATOM     19  S   UNL     1      11.206  14.665  18.934  0.00  0.00    +0.000 S 
ENDBRANCH   4  15
BRANCH   5  20
ATOM     20  C   UNL     1       9.014  12.559  20.988  0.00  0.00    +0.000 C 
ATOM     21  N   UNL     1       9.699  11.535  21.259  0.00  0.00    +0.000 NA
ENDBRANCH   5  20
BRANCH   7  22
ATOM     22  C   UNL     1       7.581  12.267  23.017  0.00  0.00    +0.000 C 
ATOM     23  N   UNL     1       8.242  11.235  23.313  0.00  0.00    +0.000 NA
ENDBRANCH   7  22
BRANCH   7  24
ATOM     24  C   UNL     1       5.752  13.894  23.558  0.00  0.00    +0.000 C 
ATOM     25  N   UNL     1       4.891  14.233  24.262  0.00  0.00    +0.000 NA
ENDBRANCH   7  24
TORSDOF 5
ENDMDL
MODEL 9
REMARK VINA RESULT:      -5.1      5.549      8.688
REMARK  Name = 
REMARK  6 active torsions:
REMARK  status: ('A' for Active; 'I' for Inactive)
REMARK    1  A    between atoms: C_1  and  C_2
REMARK    2  A    between atoms: C_2  and  C_3
REMARK    3  A    between atoms: C_9  and  C_10
REMARK    4  A    between atoms: C_15  and  C_16
REMARK    5  A    between atoms: C_19  and  C_20
REMARK    6  A    between atoms: C_19  and  C_22
REMARK                            x       y       z     vdW  Elec       q    Type
REMARK                         _______ _______ _______ _____ _____    ______ ____
ROOT
ATOM      1  C   UNL     1       5.035   5.985  15.668  0.00  0.00    +0.000 C 
ATOM      2  C   UNL     1       4.885   5.981  17.211  0.00  0.00    +0.000 C 
ATOM      3  C   UNL     1       3.923   7.141  17.568  0.00  0.00    +0.000 C 
ATOM      4  C   UNL     1       2.821   6.845  18.571  0.00  0.00    +0.000 C 
ATOM      5  C   UNL     1       2.528   5.572  18.955  0.00  0.00    +0.000 C 
ATOM      6  C   UNL     1       3.290   4.415  18.450  0.00  0.00    +0.000 C 
ATOM      7  C   UNL     1       2.992   3.158  18.853  0.00  0.00    +0.000 C 
ATOM      8  N   UNL     1       4.303   4.676  17.530  0.00  0.00    +0.000 N 
ATOM      9  H   UNL     1       4.941   3.905  17.325  0.00  0.00    +0.000 HD
ENDROOT
BRANCH   2  10
ATOM     10  C   UNL     1       6.259   6.145  17.875  0.00  0.00    +0.000 A 
ATOM     11  C   UNL     1       6.872   5.342  18.824  0.00  0.00    +0.000 A 
ATOM     12  C   UNL     1       8.114   5.864  19.282  0.00  0.00    +0.000 A 
ATOM     13  C   UNL     1       8.433   7.049  18.664  0.00  0.00    +0.000 A 
ATOM     14  S   UNL     1       7.241   7.522  17.533  0.00  0.00    +0.000 S 
ENDBRANCH   2  10
BRANCH   4  15
ATOM     15  C   UNL     1       2.018   7.934  19.070  0.00  0.00    +0.000 A 
ATOM     16  C   UNL     1       1.689   8.248  20.377  0.00  0.00    +0.000 A 
ATOM     17  C   UNL     1       0.900   9.432  20.482  0.00  0.00    +0.000 A 
ATOM     18  C   UNL     1       0.655   9.996  19.251  0.00  0.00    +0.000 A 
ATOM     19  S   UNL     1       1.381   9.110  17.983  0.00  0.00    +0.000 S 
ENDBRANCH   4  15
BRANCH   5  20
ATOM     20  C   UNL     1       1.320   5.369  19.855  0.00  0.00    +0.000 C 
ATOM     21  N   UNL     1       0.318   5.199  20.601  0.00  0.00    +0.000 NA
ENDBRANCH   5  20
BRANCH   7  22
ATOM     22  C   UNL     1       1.794   2.915  19.757  0.00  0.00    +0.000 C 
ATOM     23  N   UNL     1       0.802   2.712  20.507  0.00  0.00    +0.000 NA
ENDBRANCH   7  22
BRANCH   7  24
ATOM     24  C   UNL     1       3.705   2.015  18.405  0.00  0.00    +0.000 C 
ATOM     25  N   UNL     1       4.283   1.061  18.077  0.00  0.00    +0.000 NA
ENDBRANCH   7  24
TORSDOF 5
ENDMDL
