MODEL 1
REMARK VINA RESULT:      -7.3      0.000      0.000
REMARK  Name = 
REMARK  6 active torsions:
REMARK  status: ('A' for Active; 'I' for Inactive)
REMARK    1  A    between atoms: C_1  and  O_2
REMARK    2  A    between atoms: O_2  and  C_3
REMARK    3  A    between atoms: C_3  and  C_5
REMARK    4  A    between atoms: C_5  and  C_6
REMARK    5  A    between atoms: C_6  and  N_7
REMARK    6  A    between atoms: C_8  and  C_10
REMARK                            x       y       z     vdW  Elec       q    Type
REMARK                         _______ _______ _______ _____ _____    ______ ____
ROOT
ATOM      1  N   UNL     1       3.468   4.385  18.508  0.00  0.00    +0.000 N 
ATOM      2  C   UNL     1       4.750   3.842  18.325  0.00  0.00    +0.000 C 
ATOM      3  O   UNL     1       5.254   3.015  19.091  0.00  0.00    +0.000 OA
ATOM      4  C   UNL     1       2.670   3.802  19.530  0.00  0.00    +0.000 A 
ATOM      5  C   UNL     1       3.114   3.859  20.850  0.00  0.00    +0.000 A 
ATOM      6  C   UNL     1       2.271   3.417  21.865  0.00  0.00    +0.000 A 
ATOM      7  C   UNL     1       1.028   2.898  21.536  0.00  0.00    +0.000 A 
ATOM      8  C   UNL     1       0.666   2.871  20.197  0.00  0.00    +0.000 A 
ATOM      9  N   UNL     1       1.441   3.343  19.198  0.00  0.00    +0.000 NA
ENDROOT
BRANCH   2  10
ATOM     10  C   UNL     1       5.614   4.255  17.183  0.00  0.00    +0.000 A 
ATOM     11  C   UNL     1       6.568   5.274  17.433  0.00  0.00    +0.000 A 
ATOM     12  C   UNL     1       7.388   5.766  16.415  0.00  0.00    +0.000 A 
ATOM     13  C   UNL     1       7.233   5.223  15.161  0.00  0.00    +0.000 A 
ATOM     14  C   UNL     1       6.357   4.190  14.926  0.00  0.00    +0.000 A 
ATOM     15  C   UNL     1       5.565   3.656  15.920  0.00  0.00    +0.000 A 
ATOM     16  O   UNL     1       6.367   3.786  13.626  0.00  0.00    +0.000 OA
ATOM     17  C   UNL     1       7.321   4.711  13.063  0.00  0.00    +0.000 C 
ATOM     18  O   UNL     1       7.897   5.605  14.038  0.00  0.00    +0.000 OA
ENDBRANCH   2  10
BRANCH   1  19
ATOM     19  C   UNL     1       2.789   5.413  17.672  0.00  0.00    +0.000 C 
BRANCH  19  20
ATOM     20  C   UNL     1       3.320   6.837  17.873  0.00  0.00    +0.000 C 
BRANCH  20  21
ATOM     21  C   UNL     1       2.403   7.738  18.659  0.00  0.00    +0.000 C 
ATOM     22  O   UNL     1       2.030   7.569  19.812  0.00  0.00    +0.000 OA
BRANCH  21  24
ATOM     23  C   UNL     1       1.052   9.660  18.342  0.00  0.00    +0.000 C 
ATOM     24  O   UNL     1       2.075   8.792  17.853  0.00  0.00    +0.000 OA
ENDBRANCH  21  24
ENDBRANCH  20  21
ENDBRANCH  19  20
ENDBRANCH   1  19
TORSDOF 5
ENDMDL
MODEL 2
REMARK VINA RESULT:      -7.1      2.725      7.537
REMARK  Name = 
REMARK  6 active torsions:
REMARK  status: ('A' for Active; 'I' for Inactive)
REMARK    1  A    between atoms: C_1  and  O_2
REMARK    2  A    between atoms: O_2  and  C_3
REMARK    3  A    between atoms: C_3  and  C_5
REMARK    4  A    between atoms: C_5  and  C_6
REMARK    5  A    between atoms: C_6  and  N_7
REMARK    6  A    between atoms: C_8  and  C_10
REMARK                            x       y       z     vdW  Elec       q    Type
REMARK                         _______ _______ _______ _____ _____    ______ ____
ROOT
ATOM      1  N   UNL     1       2.402   6.161  19.212  0.00  0.00    +0.000 N 
ATOM      2  C   UNL     1       2.353   7.547  18.999  0.00  0.00    +0.000 C 
ATOM      3  O   UNL     1       3.070   8.136  18.184  0.00  0.00    +0.000 OA
ATOM      4  C   UNL     1       3.195   5.404  18.307  0.00  0.00    +0.000 A 
ATOM      5  C   UNL     1       4.565   5.656  18.237  0.00  0.00    +0.000 A 
ATOM      6  C   UNL     1       5.364   4.824  17.459  0.00  0.00    +0.000 A 
ATOM      7  C   UNL     1       4.775   3.791  16.745  0.00  0.00    +0.000 A 
ATOM      8  C   UNL     1       3.405   3.615  16.865  0.00  0.00    +0.000 A 
ATOM      9  N   UNL     1       2.614   4.371  17.655  0.00  0.00    +0.000 NA
ENDROOT
BRANCH   2  10
ATOM     10  C   UNL     1       1.429   8.422  19.775  0.00  0.00    +0.000 A 
ATOM     11  C   UNL     1       0.735   9.427  19.054  0.00  0.00    +0.000 A 
ATOM     12  C   UNL     1      -0.113  10.329  19.701  0.00  0.00    +0.000 A 
ATOM     13  C   UNL     1      -0.248  10.204  21.064  0.00  0.00    +0.000 A 
ATOM     14  C   UNL     1       0.369   9.192  21.760  0.00  0.00    +0.000 A 
ATOM     15  C   UNL     1       1.179   8.262  21.143  0.00  0.00    +0.000 A 
ATOM     16  O   UNL     1       0.094   9.235  23.091  0.00  0.00    +0.000 OA
ATOM     17  C   UNL     1      -0.735  10.413  23.159  0.00  0.00    +0.000 C 
ATOM     18  O   UNL     1      -0.981  11.015  21.871  0.00  0.00    +0.000 OA
ENDBRANCH   2  10
BRANCH   1  19
ATOM     19  C   UNL     1       1.615   5.364  20.194  0.00  0.00    +0.000 C 
BRANCH  19  20
ATOM     20  C   UNL     1       2.470   4.599  21.211  0.00  0.00    +0.000 C 
BRANCH  20  21
ATOM     21  C   UNL     1       2.137   3.134  21.326  0.00  0.00    +0.000 C 
ATOM     22  O   UNL     1       1.464   2.607  22.203  0.00  0.00    +0.000 OA
BRANCH  21  24
ATOM     23  C   UNL     1       4.131   2.363  20.303  0.00  0.00    +0.000 C 
ATOM     24  O   UNL     1       2.710   2.499  20.261  0.00  0.00    +0.000 OA
ENDBRANCH  21  24
ENDBRANCH  20  21
ENDBRANCH  19  20
ENDBRANCH   1  19
TORSDOF 5
ENDMDL
MODEL 3
REMARK VINA RESULT:      -7.0      2.556      4.819
REMARK  Name = 
REMARK  6 active torsions:
REMARK  status: ('A' for Active; 'I' for Inactive)
REMARK    1  A    between atoms: C_1  and  O_2
REMARK    2  A    between atoms: O_2  and  C_3
REMARK    3  A    between atoms: C_3  and  C_5
REMARK    4  A    between atoms: C_5  and  C_6
REMARK    5  A    between atoms: C_6  and  N_7
REMARK    6  A    between atoms: C_8  and  C_10
REMARK                            x       y       z     vdW  Elec       q    Type
REMARK                         _______ _______ _______ _____ _____    ______ ____
ROOT
ATOM      1  N   UNL     1       2.148   7.047  19.901  0.00  0.00    +0.000 N 
ATOM      2  C   UNL     1       2.622   7.378  18.622  0.00  0.00    +0.000 C 
ATOM      3  O   UNL     1       2.342   8.433  18.045  0.00  0.00    +0.000 OA
ATOM      4  C   UNL     1       1.463   8.072  20.611  0.00  0.00    +0.000 A 
ATOM      5  C   UNL     1       0.286   8.592  20.077  0.00  0.00    +0.000 A 
ATOM      6  C   UNL     1      -0.460   9.490  20.835  0.00  0.00    +0.000 A 
ATOM      7  C   UNL     1       0.005   9.871  22.085  0.00  0.00    +0.000 A 
ATOM      8  C   UNL     1       1.190   9.312  22.538  0.00  0.00    +0.000 A 
ATOM      9  N   UNL     1       1.903   8.398  21.848  0.00  0.00    +0.000 NA
ENDROOT
BRANCH   2  10
ATOM     10  C   UNL     1       3.495   6.448  17.851  0.00  0.00    +0.000 A 
ATOM     11  C   UNL     1       3.032   5.117  17.689  0.00  0.00    +0.000 A 
ATOM     12  C   UNL     1       3.801   4.157  17.027  0.00  0.00    +0.000 A 
ATOM     13  C   UNL     1       5.025   4.554  16.539  0.00  0.00    +0.000 A 
ATOM     14  C   UNL     1       5.451   5.858  16.636  0.00  0.00    +0.000 A 
ATOM     15  C   UNL     1       4.695   6.836  17.246  0.00  0.00    +0.000 A 
ATOM     16  O   UNL     1       6.677   6.045  16.078  0.00  0.00    +0.000 OA
ATOM     17  C   UNL     1       6.991   4.701  15.655  0.00  0.00    +0.000 C 
ATOM     18  O   UNL     1       5.933   3.757  15.918  0.00  0.00    +0.000 OA
ENDBRANCH   2  10
BRANCH   1  19
ATOM     19  C   UNL     1       2.390   5.792  20.664  0.00  0.00    +0.000 C 
BRANCH  19  20
ATOM     20  C   UNL     1       1.275   4.749  20.528  0.00  0.00    +0.000 C 
BRANCH  20  21
ATOM     21  C   UNL     1       1.653   3.368  20.998  0.00  0.00    +0.000 C 
ATOM     22  O   UNL     1       1.777   3.003  22.159  0.00  0.00    +0.000 OA
BRANCH  21  24
ATOM     23  C   UNL     1       0.723   2.563  18.972  0.00  0.00    +0.000 C 
ATOM     24  O   UNL     1       1.818   2.589  19.887  0.00  0.00    +0.000 OA
ENDBRANCH  21  24
ENDBRANCH  20  21
ENDBRANCH  19  20
ENDBRANCH   1  19
TORSDOF 5
ENDMDL
MODEL 4
REMARK VINA RESULT:      -7.0      3.336      6.494
REMARK  Name = 
REMARK  6 active torsions:
REMARK  status: ('A' for Active; 'I' for Inactive)
REMARK    1  A    between atoms: C_1  and  O_2
REMARK    2  A    between atoms: O_2  and  C_3
REMARK    3  A    between atoms: C_3  and  C_5
REMARK    4  A    between atoms: C_5  and  C_6
REMARK    5  A    between atoms: C_6  and  N_7
REMARK    6  A    between atoms: C_8  and  C_10
REMARK                            x       y       z     vdW  Elec       q    Type
REMARK                         _______ _______ _______ _____ _____    ______ ____
ROOT
ATOM      1  N   UNL     1       1.303   9.171  19.479  0.00  0.00    +0.000 N 
ATOM      2  C   UNL     1       1.838   8.516  18.359  0.00  0.00    +0.000 C 
ATOM      3  O   UNL     1       1.645   8.889  17.197  0.00  0.00    +0.000 OA
ATOM      4  C   UNL     1       0.664  10.419  19.243  0.00  0.00    +0.000 A 
ATOM      5  C   UNL     1      -0.460  10.457  18.419  0.00  0.00    +0.000 A 
ATOM      6  C   UNL     1      -1.169  11.648  18.301  0.00  0.00    +0.000 A 
ATOM      7  C   UNL     1      -0.720  12.774  18.974  0.00  0.00    +0.000 A 
ATOM      8  C   UNL     1       0.411  12.652  19.767  0.00  0.00    +0.000 A 
ATOM      9  N   UNL     1       1.085  11.496  19.944  0.00  0.00    +0.000 NA
ENDROOT
BRANCH   2  10
ATOM     10  C   UNL     1       2.672   7.289  18.499  0.00  0.00    +0.000 A 
ATOM     11  C   UNL     1       3.824   7.196  17.677  0.00  0.00    +0.000 A 
ATOM     12  C   UNL     1       4.641   6.063  17.699  0.00  0.00    +0.000 A 
ATOM     13  C   UNL     1       4.282   5.041  18.548  0.00  0.00    +0.000 A 
ATOM     14  C   UNL     1       3.204   5.152  19.394  0.00  0.00    +0.000 A 
ATOM     15  C   UNL     1       2.405   6.275  19.425  0.00  0.00    +0.000 A 
ATOM     16  O   UNL     1       3.031   4.042  20.161  0.00  0.00    +0.000 OA
ATOM     17  C   UNL     1       4.100   3.204  19.672  0.00  0.00    +0.000 C 
ATOM     18  O   UNL     1       4.916   3.845  18.669  0.00  0.00    +0.000 OA
ENDBRANCH   2  10
BRANCH   1  19
ATOM     19  C   UNL     1       1.438   8.781  20.910  0.00  0.00    +0.000 C 
BRANCH  19  20
ATOM     20  C   UNL     1       0.103   8.597  21.641  0.00  0.00    +0.000 C 
BRANCH  20  21
ATOM     21  C   UNL     1      -0.158   9.613  22.723  0.00  0.00    +0.000 C 
ATOM     22  O   UNL     1       0.369   9.653  23.826  0.00  0.00    +0.000 OA
BRANCH  21  24
ATOM     23  C   UNL     1      -1.406  11.593  23.094  0.00  0.00    +0.000 C 
ATOM     24  O   UNL     1      -1.083  10.495  22.241  0.00  0.00    +0.000 OA
ENDBRANCH  21  24
ENDBRANCH  20  21
ENDBRANCH  19  20
ENDBRANCH   1  19
TORSDOF 5
ENDMDL
MODEL 5
REMARK VINA RESULT:      -6.9      2.770      6.747
REMARK  Name = 
REMARK  6 active torsions:
REMARK  status: ('A' for Active; 'I' for Inactive)
REMARK    1  A    between atoms: C_1  and  O_2
REMARK    2  A    between atoms: O_2  and  C_3
REMARK    3  A    between atoms: C_3  and  C_5
REMARK    4  A    between atoms: C_5  and  C_6
REMARK    5  A    between atoms: C_6  and  N_7
REMARK    6  A    between atoms: C_8  and  C_10
REMARK                            x       y       z     vdW  Elec       q    Type
REMARK                         _______ _______ _______ _____ _____    ______ ____
ROOT
ATOM      1  N   UNL     1       5.394   4.906  15.552  0.00  0.00    +0.000 N 
ATOM      2  C   UNL     1       5.059   3.745  16.266  0.00  0.00    +0.000 C 
ATOM      3  O   UNL     1       5.316   2.605  15.869  0.00  0.00    +0.000 OA
ATOM      4  C   UNL     1       6.227   4.735  14.413  0.00  0.00    +0.000 A 
ATOM      5  C   UNL     1       5.766   3.960  13.350  0.00  0.00    +0.000 A 
ATOM      6  C   UNL     1       6.516   3.908  12.179  0.00  0.00    +0.000 A 
ATOM      7  C   UNL     1       7.718   4.596  12.112  0.00  0.00    +0.000 A 
ATOM      8  C   UNL     1       8.106   5.338  13.217  0.00  0.00    +0.000 A 
ATOM      9  N   UNL     1       7.372   5.451  14.344  0.00  0.00    +0.000 NA
ENDROOT
BRANCH   2  10
ATOM     10  C   UNL     1       4.332   3.813  17.566  0.00  0.00    +0.000 A 
ATOM     11  C   UNL     1       5.107   3.667  18.745  0.00  0.00    +0.000 A 
ATOM     12  C   UNL     1       4.511   3.665  20.008  0.00  0.00    +0.000 A 
ATOM     13  C   UNL     1       3.145   3.809  20.063  0.00  0.00    +0.000 A 
ATOM     14  C   UNL     1       2.395   4.017  18.930  0.00  0.00    +0.000 A 
ATOM     15  C   UNL     1       2.960   4.066  17.673  0.00  0.00    +0.000 A 
ATOM     16  O   UNL     1       1.069   4.152  19.201  0.00  0.00    +0.000 OA
ATOM     17  C   UNL     1       1.066   3.965  20.632  0.00  0.00    +0.000 C 
ATOM     18  O   UNL     1       2.384   3.778  21.189  0.00  0.00    +0.000 OA
ENDBRANCH   2  10
BRANCH   1  19
ATOM     19  C   UNL     1       5.092   6.317  15.920  0.00  0.00    +0.000 C 
BRANCH  19  20
ATOM     20  C   UNL     1       5.611   6.732  17.301  0.00  0.00    +0.000 C 
BRANCH  20  21
ATOM     21  C   UNL     1       7.096   6.981  17.359  0.00  0.00    +0.000 C 
ATOM     22  O   UNL     1       7.677   8.004  17.020  0.00  0.00    +0.000 OA
BRANCH  21  24
ATOM     23  C   UNL     1       7.818   5.824  19.297  0.00  0.00    +0.000 C 
ATOM     24  O   UNL     1       7.679   5.859  17.877  0.00  0.00    +0.000 OA
ENDBRANCH  21  24
ENDBRANCH  20  21
ENDBRANCH  19  20
ENDBRANCH   1  19
TORSDOF 5
ENDMDL
MODEL 6
REMARK VINA RESULT:      -6.8      2.851      7.552
REMARK  Name = 
REMARK  6 active torsions:
REMARK  status: ('A' for Active; 'I' for Inactive)
REMARK    1  A    between atoms: C_1  and  O_2
REMARK    2  A    between atoms: O_2  and  C_3
REMARK    3  A    between atoms: C_3  and  C_5
REMARK    4  A    between atoms: C_5  and  C_6
REMARK    5  A    between atoms: C_6  and  N_7
REMARK    6  A    between atoms: C_8  and  C_10
REMARK                            x       y       z     vdW  Elec       q    Type
REMARK                         _______ _______ _______ _____ _____    ______ ____
ROOT
ATOM      1  N   UNL     1       2.241   6.229  19.399  0.00  0.00    +0.000 N 
ATOM      2  C   UNL     1       2.218   7.614  19.172  0.00  0.00    +0.000 C 
ATOM      3  O   UNL     1       2.839   8.164  18.258  0.00  0.00    +0.000 OA
ATOM      4  C   UNL     1       2.872   5.431  18.405  0.00  0.00    +0.000 A 
ATOM      5  C   UNL     1       4.228   5.626  18.144  0.00  0.00    +0.000 A 
ATOM      6  C   UNL     1       4.879   4.754  17.277  0.00  0.00    +0.000 A 
ATOM      7  C   UNL     1       4.157   3.739  16.667  0.00  0.00    +0.000 A 
ATOM      8  C   UNL     1       2.811   3.620  16.976  0.00  0.00    +0.000 A 
ATOM      9  N   UNL     1       2.167   4.417  17.855  0.00  0.00    +0.000 NA
ENDROOT
BRANCH   2  10
ATOM     10  C   UNL     1       1.444   8.534  20.054  0.00  0.00    +0.000 A 
ATOM     11  C   UNL     1       1.548   8.323  21.453  0.00  0.00    +0.000 A 
ATOM     12  C   UNL     1       0.821   9.099  22.359  0.00  0.00    +0.000 A 
ATOM     13  C   UNL     1       0.002  10.075  21.841  0.00  0.00    +0.000 A 
ATOM     14  C   UNL     1      -0.054  10.327  20.491  0.00  0.00    +0.000 A 
ATOM     15  C   UNL     1       0.684   9.606  19.576  0.00  0.00    +0.000 A 
ATOM     16  O   UNL     1      -0.910  11.340  20.187  0.00  0.00    +0.000 OA
ATOM     17  C   UNL     1      -1.417  11.669  21.497  0.00  0.00    +0.000 C 
ATOM     18  O   UNL     1      -0.819  10.890  22.554  0.00  0.00    +0.000 OA
ENDBRANCH   2  10
BRANCH   1  19
ATOM     19  C   UNL     1       1.566   5.475  20.491  0.00  0.00    +0.000 C 
BRANCH  19  20
ATOM     20  C   UNL     1       2.500   4.566  21.298  0.00  0.00    +0.000 C 
BRANCH  20  21
ATOM     21  C   UNL     1       2.051   3.130  21.383  0.00  0.00    +0.000 C 
ATOM     22  O   UNL     1       1.301   2.650  22.223  0.00  0.00    +0.000 OA
BRANCH  21  24
ATOM     23  C   UNL     1       4.049   2.444  20.307  0.00  0.00    +0.000 C 
ATOM     24  O   UNL     1       2.621   2.461  20.337  0.00  0.00    +0.000 OA
ENDBRANCH  21  24
ENDBRANCH  20  21
ENDBRANCH  19  20
ENDBRANCH   1  19
TORSDOF 5
ENDMDL
MODEL 7
REMARK VINA RESULT:      -6.8      3.412      6.393
REMARK  Name = 
REMARK  6 active torsions:
REMARK  status: ('A' for Active; 'I' for Inactive)
REMARK    1  A    between atoms: C_1  and  O_2
REMARK    2  A    between atoms: O_2  and  C_3
REMARK    3  A    between atoms: C_3  and  C_5
REMARK    4  A    between atoms: C_5  and  C_6
REMARK    5  A    between atoms: C_6  and  N_7
REMARK    6  A    between atoms: C_8  and  C_10
REMARK                            x       y       z     vdW  Elec       q    Type
REMARK                         _______ _______ _______ _____ _____    ______ ____
ROOT
ATOM      1  N   UNL     1       1.227   9.267  19.502  0.00  0.00    +0.000 N 
ATOM      2  C   UNL     1       1.814   8.637  18.393  0.00  0.00    +0.000 C 
ATOM      3  O   UNL     1       1.638   9.007  17.229  0.00  0.00    +0.000 OA
ATOM      4  C   UNL     1       0.550  10.492  19.254  0.00  0.00    +0.000 A 
ATOM      5  C   UNL     1      -0.553  10.493  18.401  0.00  0.00    +0.000 A 
ATOM      6  C   UNL     1      -1.302  11.659  18.269  0.00  0.00    +0.000 A 
ATOM      7  C   UNL     1      -0.912  12.797  18.958  0.00  0.00    +0.000 A 
ATOM      8  C   UNL     1       0.202  12.712  19.779  0.00  0.00    +0.000 A 
ATOM      9  N   UNL     1       0.913  11.581  19.969  0.00  0.00    +0.000 NA
ENDROOT
BRANCH   2  10
ATOM     10  C   UNL     1       2.688   7.440  18.551  0.00  0.00    +0.000 A 
ATOM     11  C   UNL     1       2.340   6.518  19.570  0.00  0.00    +0.000 A 
ATOM     12  C   UNL     1       3.125   5.392  19.830  0.00  0.00    +0.000 A 
ATOM     13  C   UNL     1       4.250   5.215  19.059  0.00  0.00    +0.000 A 
ATOM     14  C   UNL     1       4.559   6.069  18.026  0.00  0.00    +0.000 A 
ATOM     15  C   UNL     1       3.779   7.165  17.720  0.00  0.00    +0.000 A 
ATOM     16  O   UNL     1       5.699   5.709  17.378  0.00  0.00    +0.000 OA
ATOM     17  C   UNL     1       6.095   4.554  18.147  0.00  0.00    +0.000 C 
ATOM     18  O   UNL     1       5.163   4.217  19.195  0.00  0.00    +0.000 OA
ENDBRANCH   2  10
BRANCH   1  19
ATOM     19  C   UNL     1       1.340   8.876  20.935  0.00  0.00    +0.000 C 
BRANCH  19  20
ATOM     20  C   UNL     1      -0.006   8.706  21.648  0.00  0.00    +0.000 C 
BRANCH  20  21
ATOM     21  C   UNL     1      -0.235   9.669  22.784  0.00  0.00    +0.000 C 
ATOM     22  O   UNL     1       0.363   9.689  23.852  0.00  0.00    +0.000 OA
BRANCH  21  24
ATOM     23  C   UNL     1      -1.207  11.818  23.014  0.00  0.00    +0.000 C 
ATOM     24  O   UNL     1      -1.222  10.530  22.397  0.00  0.00    +0.000 OA
ENDBRANCH  21  24
ENDBRANCH  20  21
ENDBRANCH  19  20
ENDBRANCH   1  19
TORSDOF 5
ENDMDL
MODEL 8
REMARK VINA RESULT:      -6.6      2.718      7.198
REMARK  Name = 
REMARK  6 active torsions:
REMARK  status: ('A' for Active; 'I' for Inactive)
REMARK    1  A    between atoms: C_1  and  O_2
REMARK    2  A    between atoms: O_2  and  C_3
REMARK    3  A    between atoms: C_3  and  C_5
REMARK    4  A    between atoms: C_5  and  C_6
REMARK    5  A    between atoms: C_6  and  N_7
REMARK    6  A    between atoms: C_8  and  C_10
REMARK                            x       y       z     vdW  Elec       q    Type
REMARK                         _______ _______ _______ _____ _____    ______ ____
ROOT
ATOM      1  N   UNL     1       2.533   6.434  18.811  0.00  0.00    +0.000 N 
ATOM      2  C   UNL     1       2.525   7.783  18.420  0.00  0.00    +0.000 C 
ATOM      3  O   UNL     1       3.334   8.263  17.620  0.00  0.00    +0.000 OA
ATOM      4  C   UNL     1       3.409   5.570  18.098  0.00  0.00    +0.000 A 
ATOM      5  C   UNL     1       4.781   5.811  18.145  0.00  0.00    +0.000 A 
ATOM      6  C   UNL     1       5.647   4.888  17.568  0.00  0.00    +0.000 A 
ATOM      7  C   UNL     1       5.125   3.772  16.932  0.00  0.00    +0.000 A 
ATOM      8  C   UNL     1       3.747   3.612  16.925  0.00  0.00    +0.000 A 
ATOM      9  N   UNL     1       2.887   4.462  17.523  0.00  0.00    +0.000 NA
ENDROOT
BRANCH   2  10
ATOM     10  C   UNL     1       1.536   8.748  18.976  0.00  0.00    +0.000 A 
ATOM     11  C   UNL     1       1.412   8.803  20.388  0.00  0.00    +0.000 A 
ATOM     12  C   UNL     1       0.476   9.638  21.002  0.00  0.00    +0.000 A 
ATOM     13  C   UNL     1      -0.321  10.404  20.184  0.00  0.00    +0.000 A 
ATOM     14  C   UNL     1      -0.162  10.406  18.818  0.00  0.00    +0.000 A 
ATOM     15  C   UNL     1       0.781   9.623  18.186  0.00  0.00    +0.000 A 
ATOM     16  O   UNL     1      -1.035  11.242  18.195  0.00  0.00    +0.000 OA
ATOM     17  C   UNL     1      -1.788  11.738  19.322  0.00  0.00    +0.000 C 
ATOM     18  O   UNL     1      -1.319  11.232  20.590  0.00  0.00    +0.000 OA
ENDBRANCH   2  10
BRANCH   1  19
ATOM     19  C   UNL     1       1.636   5.769  19.795  0.00  0.00    +0.000 C 
BRANCH  19  20
ATOM     20  C   UNL     1       2.372   5.043  20.927  0.00  0.00    +0.000 C 
BRANCH  20  21
ATOM     21  C   UNL     1       1.847   3.664  21.227  0.00  0.00    +0.000 C 
ATOM     22  O   UNL     1       2.158   2.957  22.177  0.00  0.00    +0.000 OA
BRANCH  21  24
ATOM     23  C   UNL     1       1.211   2.157  19.511  0.00  0.00    +0.000 C 
ATOM     24  O   UNL     1       0.943   3.348  20.252  0.00  0.00    +0.000 OA
ENDBRANCH  21  24
ENDBRANCH  20  21
ENDBRANCH  19  20
ENDBRANCH   1  19
TORSDOF 5
ENDMDL
MODEL 9
REMARK VINA RESULT:      -6.6      2.429      6.963
REMARK  Name = 
REMARK  6 active torsions:
REMARK  status: ('A' for Active; 'I' for Inactive)
REMARK    1  A    between atoms: C_1  and  O_2
REMARK    2  A    between atoms: O_2  and  C_3
REMARK    3  A    between atoms: C_3  and  C_5
REMARK    4  A    between atoms: C_5  and  C_6
REMARK    5  A    between atoms: C_6  and  N_7
REMARK    6  A    between atoms: C_8  and  C_10
REMARK                            x       y       z     vdW  Elec       q    Type
REMARK                         _______ _______ _______ _____ _____    ______ ____
ROOT
ATOM      1  N   UNL     1       3.754   5.917  18.061  0.00  0.00    +0.000 N 
ATOM      2  C   UNL     1       3.523   7.289  17.873  0.00  0.00    +0.000 C 
ATOM      3  O   UNL     1       4.212   7.999  17.135  0.00  0.00    +0.000 OA
ATOM      4  C   UNL     1       4.719   5.311  17.210  0.00  0.00    +0.000 A 
ATOM      5  C   UNL     1       6.039   5.757  17.262  0.00  0.00    +0.000 A 
ATOM      6  C   UNL     1       7.010   5.072  16.538  0.00  0.00    +0.000 A 
ATOM      7  C   UNL     1       6.636   3.990  15.756  0.00  0.00    +0.000 A 
ATOM      8  C   UNL     1       5.301   3.617  15.755  0.00  0.00    +0.000 A 
ATOM      9  N   UNL     1       4.348   4.228  16.490  0.00  0.00    +0.000 NA
ENDROOT
BRANCH   2  10
ATOM     10  C   UNL     1       2.423   7.998  18.586  0.00  0.00    +0.000 A 
ATOM     11  C   UNL     1       1.629   8.889  17.820  0.00  0.00    +0.000 A 
ATOM     12  C   UNL     1       0.607   9.638  18.409  0.00  0.00    +0.000 A 
ATOM     13  C   UNL     1       0.403   9.477  19.759  0.00  0.00    +0.000 A 
ATOM     14  C   UNL     1       1.125   8.567  20.494  0.00  0.00    +0.000 A 
ATOM     15  C   UNL     1       2.111   7.784  19.933  0.00  0.00    +0.000 A 
ATOM     16  O   UNL     1       0.758   8.550  21.804  0.00  0.00    +0.000 OA
ATOM     17  C   UNL     1      -0.250   9.583  21.817  0.00  0.00    +0.000 C 
ATOM     18  O   UNL     1      -0.502  10.153  20.516  0.00  0.00    +0.000 OA
ENDBRANCH   2  10
BRANCH   1  19
ATOM     19  C   UNL     1       3.013   4.985  18.956  0.00  0.00    +0.000 C 
BRANCH  19  20
ATOM     20  C   UNL     1       1.691   4.472  18.374  0.00  0.00    +0.000 C 
BRANCH  20  21
ATOM     21  C   UNL     1       1.070   3.338  19.146  0.00  0.00    +0.000 C 
ATOM     22  O   UNL     1       0.717   2.257  18.694  0.00  0.00    +0.000 OA
BRANCH  21  24
ATOM     23  C   UNL     1       1.407   2.769  21.422  0.00  0.00    +0.000 C 
ATOM     24  O   UNL     1       0.987   3.729  20.452  0.00  0.00    +0.000 OA
ENDBRANCH  21  24
ENDBRANCH  20  21
ENDBRANCH  19  20
ENDBRANCH   1  19
TORSDOF 5
ENDMDL
