MODEL 1
REMARK VINA RESULT:      -6.9      0.000      0.000
REMARK  Name = 
REMARK  4 active torsions:
REMARK  status: ('A' for Active; 'I' for Inactive)
REMARK    1  A    between atoms: C_1  and  C_2
REMARK    2  A    between atoms: C_3  and  C_4
REMARK    3  A    between atoms: N_5  and  C_6
REMARK    4  A    between atoms: C_20  and  C_21
REMARK                            x       y       z     vdW  Elec       q    Type
REMARK                         _______ _______ _______ _____ _____    ______ ____
ROOT
ATOM      1  C   UNL     1      -3.033  13.201  21.190  0.00  0.00    +0.000 C 
ATOM      2  C   UNL     1      -2.373  12.223  20.286  0.00  0.00    +0.000 A 
ATOM      3  C   UNL     1      -1.115  11.695  20.554  0.00  0.00    +0.000 A 
ATOM      4  C   UNL     1      -0.202  11.956  21.709  0.00  0.00    +0.000 C 
ATOM      5  N   UNL     1      -0.799  10.819  19.539  0.00  0.00    +0.000 N 
ATOM      6  C   UNL     1      -1.849  10.752  18.649  0.00  0.00    +0.000 A 
ATOM      7  N   UNL     1      -1.868   9.936  17.581  0.00  0.00    +0.000 NA
ATOM      8  C   UNL     1      -3.011  10.025  16.902  0.00  0.00    +0.000 A 
ATOM      9  N   UNL     1      -4.065  10.803  17.178  0.00  0.00    +0.000 NA
ATOM     10  C   UNL     1      -4.048  11.638  18.252  0.00  0.00    +0.000 A 
ATOM     11  N   UNL     1      -5.244  12.262  18.564  0.00  0.00    +0.000 N 
ATOM     12  C   UNL     1      -5.369  13.626  19.041  0.00  0.00    +0.000 C 
ATOM     13  C   UNL     1      -6.326  13.619  20.240  0.00  0.00    +0.000 C 
ATOM     14  C   UNL     1      -7.660  12.929  19.925  0.00  0.00    +0.000 C 
ATOM     15  C   UNL     1      -7.530  11.624  19.120  0.00  0.00    +0.000 C 
ATOM     16  C   UNL     1      -6.497  11.739  17.995  0.00  0.00    +0.000 C 
ATOM     17  C   UNL     1      -2.857  11.629  19.055  0.00  0.00    +0.000 A 
ENDROOT
BRANCH   5  18
ATOM     18  C   UNL     1       0.456  10.103  19.442  0.00  0.00    +0.000 C 
ATOM     19  C   UNL     1       0.577   8.800  20.227  0.00  0.00    +0.000 C 
ATOM     20  C   UNL     1       1.889   8.223  19.700  0.00  0.00    +0.000 C 
ATOM     21  C   UNL     1       2.010   8.706  18.251  0.00  0.00    +0.000 C 
ATOM     22  C   UNL     1       0.883   9.714  18.030  0.00  0.00    +0.000 C 
ENDBRANCH   5  18
BRANCH  15  23
ATOM     23  C   UNL     1      -7.244  10.397  19.985  0.00  0.00    +0.000 C 
ATOM     24  N   UNL     1      -7.232   9.184  19.369  0.00  0.00    +0.000 N 
ATOM     25  O   UNL     1      -7.029  10.477  21.189  0.00  0.00    +0.000 OA
ATOM     26  H   UNL     1      -7.242   8.375  19.975  0.00  0.00    +0.000 HD
ATOM     27  H   UNL     1      -7.733   9.089  18.488  0.00  0.00    +0.000 HD
ENDBRANCH  15  23
TORSDOF 2
ENDMDL
MODEL 2
REMARK VINA RESULT:      -6.7      1.160      1.320
REMARK  Name = 
REMARK  4 active torsions:
REMARK  status: ('A' for Active; 'I' for Inactive)
REMARK    1  A    between atoms: C_1  and  C_2
REMARK    2  A    between atoms: C_3  and  C_4
REMARK    3  A    between atoms: N_5  and  C_6
REMARK    4  A    between atoms: C_20  and  C_21
REMARK                            x       y       z     vdW  Elec       q    Type
REMARK                         _______ _______ _______ _____ _____    ______ ____
ROOT
ATOM      1  C   UNL     1      -3.179  12.847  22.041  0.00  0.00    +0.000 C 
ATOM      2  C   UNL     1      -2.525  12.278  20.833  0.00  0.00    +0.000 A 
ATOM      3  C   UNL     1      -1.221  11.795  20.853  0.00  0.00    +0.000 A 
ATOM      4  C   UNL     1      -0.248  11.732  21.986  0.00  0.00    +0.000 C 
ATOM      5  N   UNL     1      -0.923  11.332  19.590  0.00  0.00    +0.000 N 
ATOM      6  C   UNL     1      -2.026  11.479  18.777  0.00  0.00    +0.000 A 
ATOM      7  N   UNL     1      -2.068  11.063  17.499  0.00  0.00    +0.000 NA
ATOM      8  C   UNL     1      -3.258  11.279  16.940  0.00  0.00    +0.000 A 
ATOM      9  N   UNL     1      -4.336  11.835  17.508  0.00  0.00    +0.000 NA
ATOM     10  C   UNL     1      -4.296  12.266  18.797  0.00  0.00    +0.000 A 
ATOM     11  N   UNL     1      -5.504  12.654  19.353  0.00  0.00    +0.000 N 
ATOM     12  C   UNL     1      -5.678  13.769  20.264  0.00  0.00    +0.000 C 
ATOM     13  C   UNL     1      -6.549  13.289  21.433  0.00  0.00    +0.000 C 
ATOM     14  C   UNL     1      -7.857  12.638  20.965  0.00  0.00    +0.000 C 
ATOM     15  C   UNL     1      -7.703  11.686  19.764  0.00  0.00    +0.000 C 
ATOM     16  C   UNL     1      -6.759  12.250  18.697  0.00  0.00    +0.000 C 
ATOM     17  C   UNL     1      -3.054  12.088  19.497  0.00  0.00    +0.000 A 
ENDROOT
BRANCH   5  18
ATOM     18  C   UNL     1       0.364  10.792  19.203  0.00  0.00    +0.000 C 
ATOM     19  C   UNL     1       0.362   9.627  18.217  0.00  0.00    +0.000 C 
ATOM     20  C   UNL     1       1.841   9.498  17.863  0.00  0.00    +0.000 C 
ATOM     21  C   UNL     1       2.425  10.911  17.969  0.00  0.00    +0.000 C 
ATOM     22  C   UNL     1       1.335  11.790  18.578  0.00  0.00    +0.000 C 
ENDBRANCH   5  18
BRANCH  15  23
ATOM     23  C   UNL     1      -7.284  10.269  20.155  0.00  0.00    +0.000 C 
ATOM     24  N   UNL     1      -7.567   9.858  21.420  0.00  0.00    +0.000 N 
ATOM     25  O   UNL     1      -6.717   9.514  19.374  0.00  0.00    +0.000 OA
ATOM     26  H   UNL     1      -7.113   9.007  21.724  0.00  0.00    +0.000 HD
ATOM     27  H   UNL     1      -7.711  10.568  22.134  0.00  0.00    +0.000 HD
ENDBRANCH  15  23
TORSDOF 2
ENDMDL
MODEL 3
REMARK VINA RESULT:      -6.6      2.483      3.901
REMARK  Name = 
REMARK  4 active torsions:
REMARK  status: ('A' for Active; 'I' for Inactive)
REMARK    1  A    between atoms: C_1  and  C_2
REMARK    2  A    between atoms: C_3  and  C_4
REMARK    3  A    between atoms: N_5  and  C_6
REMARK    4  A    between atoms: C_20  and  C_21
REMARK                            x       y       z     vdW  Elec       q    Type
REMARK                         _______ _______ _______ _____ _____    ______ ____
ROOT
ATOM      1  C   UNL     1      -2.993  13.973  21.630  0.00  0.00    +0.000 C 
ATOM      2  C   UNL     1      -3.457  13.204  20.446  0.00  0.00    +0.000 A 
ATOM      3  C   UNL     1      -2.584  12.484  19.638  0.00  0.00    +0.000 A 
ATOM      4  C   UNL     1      -1.102  12.321  19.751  0.00  0.00    +0.000 C 
ATOM      5  N   UNL     1      -3.325  11.882  18.646  0.00  0.00    +0.000 N 
ATOM      6  C   UNL     1      -4.659  12.176  18.829  0.00  0.00    +0.000 A 
ATOM      7  N   UNL     1      -5.643  11.683  18.055  0.00  0.00    +0.000 NA
ATOM      8  C   UNL     1      -6.847  12.080  18.461  0.00  0.00    +0.000 A 
ATOM      9  N   UNL     1      -7.137  12.871  19.503  0.00  0.00    +0.000 NA
ATOM     10  C   UNL     1      -6.146  13.380  20.284  0.00  0.00    +0.000 A 
ATOM     11  N   UNL     1      -6.546  14.030  21.440  0.00  0.00    +0.000 N 
ATOM     12  C   UNL     1      -5.921  15.221  21.981  0.00  0.00    +0.000 C 
ATOM     13  C   UNL     1      -5.717  15.001  23.486  0.00  0.00    +0.000 C 
ATOM     14  C   UNL     1      -7.007  14.578  24.200  0.00  0.00    +0.000 C 
ATOM     15  C   UNL     1      -7.842  13.530  23.443  0.00  0.00    +0.000 C 
ATOM     16  C   UNL     1      -7.915  13.824  21.941  0.00  0.00    +0.000 C 
ATOM     17  C   UNL     1      -4.800  13.021  19.931  0.00  0.00    +0.000 A 
ENDROOT
BRANCH   5  18
ATOM     18  C   UNL     1      -2.761  11.081  17.579  0.00  0.00    +0.000 C 
ATOM     19  C   UNL     1      -3.110   9.595  17.566  0.00  0.00    +0.000 C 
ATOM     20  C   UNL     1      -2.566   9.145  16.212  0.00  0.00    +0.000 C 
ATOM     21  C   UNL     1      -2.683  10.360  15.286  0.00  0.00    +0.000 C 
ATOM     22  C   UNL     1      -3.095  11.541  16.164  0.00  0.00    +0.000 C 
ENDBRANCH   5  18
BRANCH  15  23
ATOM     23  C   UNL     1      -7.385  12.092  23.684  0.00  0.00    +0.000 C 
ATOM     24  N   UNL     1      -7.917  11.123  22.891  0.00  0.00    +0.000 N 
ATOM     25  O   UNL     1      -6.571  11.798  24.552  0.00  0.00    +0.000 OA
ATOM     26  H   UNL     1      -7.763  10.169  23.188  0.00  0.00    +0.000 HD
ATOM     27  H   UNL     1      -8.806  11.312  22.434  0.00  0.00    +0.000 HD
ENDBRANCH  15  23
TORSDOF 2
ENDMDL
MODEL 4
REMARK VINA RESULT:      -6.5      2.859      7.354
REMARK  Name = 
REMARK  4 active torsions:
REMARK  status: ('A' for Active; 'I' for Inactive)
REMARK    1  A    between atoms: C_1  and  C_2
REMARK    2  A    between atoms: C_3  and  C_4
REMARK    3  A    between atoms: N_5  and  C_6
REMARK    4  A    between atoms: C_20  and  C_21
REMARK                            x       y       z     vdW  Elec       q    Type
REMARK                         _______ _______ _______ _____ _____    ______ ____
ROOT
ATOM      1  C   UNL     1      -3.676  11.525  18.855  0.00  0.00    +0.000 C 
ATOM      2  C   UNL     1      -4.017  12.241  20.112  0.00  0.00    +0.000 A 
ATOM      3  C   UNL     1      -5.325  12.573  20.446  0.00  0.00    +0.000 A 
ATOM      4  C   UNL     1      -6.591  12.316  19.695  0.00  0.00    +0.000 C 
ATOM      5  N   UNL     1      -5.300  13.213  21.666  0.00  0.00    +0.000 N 
ATOM      6  C   UNL     1      -4.004  13.261  22.131  0.00  0.00    +0.000 A 
ATOM      7  N   UNL     1      -3.661  13.771  23.327  0.00  0.00    +0.000 NA
ATOM      8  C   UNL     1      -2.355  13.662  23.563  0.00  0.00    +0.000 A 
ATOM      9  N   UNL     1      -1.424  13.123  22.765  0.00  0.00    +0.000 NA
ATOM     10  C   UNL     1      -1.763  12.614  21.549  0.00  0.00    +0.000 A 
ATOM     11  N   UNL     1      -0.774  11.915  20.878  0.00  0.00    +0.000 N 
ATOM     12  C   UNL     1      -0.557  11.955  19.444  0.00  0.00    +0.000 C 
ATOM     13  C   UNL     1      -0.376  10.511  18.958  0.00  0.00    +0.000 C 
ATOM     14  C   UNL     1       0.702   9.754  19.744  0.00  0.00    +0.000 C 
ATOM     15  C   UNL     1       0.662   9.984  21.266  0.00  0.00    +0.000 C 
ATOM     16  C   UNL     1       0.409  11.452  21.622  0.00  0.00    +0.000 C 
ATOM     17  C   UNL     1      -3.151  12.686  21.187  0.00  0.00    +0.000 A 
ENDROOT
BRANCH   5  18
ATOM     18  C   UNL     1      -6.470  13.753  22.326  0.00  0.00    +0.000 C 
ATOM     19  C   UNL     1      -6.821  13.182  23.698  0.00  0.00    +0.000 C 
ATOM     20  C   UNL     1      -7.917  14.132  24.175  0.00  0.00    +0.000 C 
ATOM     21  C   UNL     1      -7.600  15.492  23.544  0.00  0.00    +0.000 C 
ATOM     22  C   UNL     1      -6.458  15.261  22.557  0.00  0.00    +0.000 C 
ENDBRANCH   5  18
BRANCH  15  23
ATOM     23  C   UNL     1      -0.329   9.078  21.996  0.00  0.00    +0.000 C 
ATOM     24  N   UNL     1      -0.693   9.435  23.257  0.00  0.00    +0.000 N 
ATOM     25  O   UNL     1      -0.793   8.065  21.485  0.00  0.00    +0.000 OA
ATOM     26  H   UNL     1      -1.183   8.734  23.796  0.00  0.00    +0.000 HD
ATOM     27  H   UNL     1      -0.071  10.047  23.780  0.00  0.00    +0.000 HD
ENDBRANCH  15  23
TORSDOF 2
ENDMDL
MODEL 5
REMARK VINA RESULT:      -6.5      0.946      1.192
REMARK  Name = 
REMARK  4 active torsions:
REMARK  status: ('A' for Active; 'I' for Inactive)
REMARK    1  A    between atoms: C_1  and  C_2
REMARK    2  A    between atoms: C_3  and  C_4
REMARK    3  A    between atoms: N_5  and  C_6
REMARK    4  A    between atoms: C_20  and  C_21
REMARK                            x       y       z     vdW  Elec       q    Type
REMARK                         _______ _______ _______ _____ _____    ______ ____
ROOT
ATOM      1  C   UNL     1      -2.936  12.743  21.563  0.00  0.00    +0.000 C 
ATOM      2  C   UNL     1      -2.479  12.122  20.293  0.00  0.00    +0.000 A 
ATOM      3  C   UNL     1      -1.223  11.540  20.160  0.00  0.00    +0.000 A 
ATOM      4  C   UNL     1      -0.127  11.405  21.169  0.00  0.00    +0.000 C 
ATOM      5  N   UNL     1      -1.117  11.051  18.877  0.00  0.00    +0.000 N 
ATOM      6  C   UNL     1      -2.296  11.281  18.201  0.00  0.00    +0.000 A 
ATOM      7  N   UNL     1      -2.525  10.865  16.943  0.00  0.00    +0.000 NA
ATOM      8  C   UNL     1      -3.753  11.171  16.529  0.00  0.00    +0.000 A 
ATOM      9  N   UNL     1      -4.709  11.811  17.216  0.00  0.00    +0.000 NA
ATOM     10  C   UNL     1      -4.480  12.241  18.486  0.00  0.00    +0.000 A 
ATOM     11  N   UNL     1      -5.578  12.723  19.179  0.00  0.00    +0.000 N 
ATOM     12  C   UNL     1      -5.555  13.851  20.090  0.00  0.00    +0.000 C 
ATOM     13  C   UNL     1      -6.312  13.443  21.361  0.00  0.00    +0.000 C 
ATOM     14  C   UNL     1      -7.712  12.893  21.063  0.00  0.00    +0.000 C 
ATOM     15  C   UNL     1      -7.778  11.929  19.865  0.00  0.00    +0.000 C 
ATOM     16  C   UNL     1      -6.931  12.415  18.685  0.00  0.00    +0.000 C 
ATOM     17  C   UNL     1      -3.180  11.970  19.033  0.00  0.00    +0.000 A 
ENDROOT
BRANCH   5  18
ATOM     18  C   UNL     1       0.069  10.413  18.344  0.00  0.00    +0.000 C 
ATOM     19  C   UNL     1       1.361  11.225  18.352  0.00  0.00    +0.000 C 
ATOM     20  C   UNL     1       2.405  10.180  17.967  0.00  0.00    +0.000 C 
ATOM     21  C   UNL     1       1.885   8.844  18.509  0.00  0.00    +0.000 C 
ATOM     22  C   UNL     1       0.465   9.100  19.011  0.00  0.00    +0.000 C 
ENDBRANCH   5  18
BRANCH  15  23
ATOM     23  C   UNL     1      -7.425  10.485  20.219  0.00  0.00    +0.000 C 
ATOM     24  N   UNL     1      -7.191   9.626  19.191  0.00  0.00    +0.000 N 
ATOM     25  O   UNL     1      -7.346  10.094  21.378  0.00  0.00    +0.000 OA
ATOM     26  H   UNL     1      -7.158   8.644  19.429  0.00  0.00    +0.000 HD
ATOM     27  H   UNL     1      -7.582   9.853  18.279  0.00  0.00    +0.000 HD
ENDBRANCH  15  23
TORSDOF 2
ENDMDL
MODEL 6
REMARK VINA RESULT:      -6.4      2.476      4.274
REMARK  Name = 
REMARK  4 active torsions:
REMARK  status: ('A' for Active; 'I' for Inactive)
REMARK    1  A    between atoms: C_1  and  C_2
REMARK    2  A    between atoms: C_3  and  C_4
REMARK    3  A    between atoms: N_5  and  C_6
REMARK    4  A    between atoms: C_20  and  C_21
REMARK                            x       y       z     vdW  Elec       q    Type
REMARK                         _______ _______ _______ _____ _____    ______ ____
ROOT
ATOM      1  C   UNL     1      -3.084  13.739  21.022  0.00  0.00    +0.000 C 
ATOM      2  C   UNL     1      -3.787  12.952  19.975  0.00  0.00    +0.000 A 
ATOM      3  C   UNL     1      -3.109  12.130  19.083  0.00  0.00    +0.000 A 
ATOM      4  C   UNL     1      -1.643  11.858  18.967  0.00  0.00    +0.000 C 
ATOM      5  N   UNL     1      -4.042  11.539  18.260  0.00  0.00    +0.000 N 
ATOM      6  C   UNL     1      -5.305  11.943  18.635  0.00  0.00    +0.000 A 
ATOM      7  N   UNL     1      -6.432  11.491  18.060  0.00  0.00    +0.000 NA
ATOM      8  C   UNL     1      -7.524  11.998  18.629  0.00  0.00    +0.000 A 
ATOM      9  N   UNL     1      -7.585  12.858  19.654  0.00  0.00    +0.000 NA
ATOM     10  C   UNL     1      -6.447  13.326  20.235  0.00  0.00    +0.000 A 
ATOM     11  N   UNL     1      -6.608  14.060  21.398  0.00  0.00    +0.000 N 
ATOM     12  C   UNL     1      -5.823  15.224  21.760  0.00  0.00    +0.000 C 
ATOM     13  C   UNL     1      -5.391  15.062  23.224  0.00  0.00    +0.000 C 
ATOM     14  C   UNL     1      -6.573  14.774  24.159  0.00  0.00    +0.000 C 
ATOM     15  C   UNL     1      -7.589  13.758  23.609  0.00  0.00    +0.000 C 
ATOM     16  C   UNL     1      -7.888  13.984  22.124  0.00  0.00    +0.000 C 
ATOM     17  C   UNL     1      -5.205  12.848  19.693  0.00  0.00    +0.000 A 
ENDROOT
BRANCH   5  18
ATOM     18  C   UNL     1      -3.715  10.646  17.167  0.00  0.00    +0.000 C 
ATOM     19  C   UNL     1      -3.566  11.269  15.781  0.00  0.00    +0.000 C 
ATOM     20  C   UNL     1      -2.993  10.112  14.965  0.00  0.00    +0.000 C 
ATOM     21  C   UNL     1      -2.162   9.276  15.944  0.00  0.00    +0.000 C 
ATOM     22  C   UNL     1      -2.433   9.838  17.338  0.00  0.00    +0.000 C 
ENDBRANCH   5  18
BRANCH  15  23
ATOM     23  C   UNL     1      -7.198  12.302  23.860  0.00  0.00    +0.000 C 
ATOM     24  N   UNL     1      -6.015  12.070  24.489  0.00  0.00    +0.000 N 
ATOM     25  O   UNL     1      -7.909  11.363  23.520  0.00  0.00    +0.000 OA
ATOM     26  H   UNL     1      -5.678  11.116  24.469  0.00  0.00    +0.000 HD
ATOM     27  H   UNL     1      -5.303  12.797  24.455  0.00  0.00    +0.000 HD
ENDBRANCH  15  23
TORSDOF 2
ENDMDL
MODEL 7
REMARK VINA RESULT:      -6.3      2.884      5.280
REMARK  Name = 
REMARK  4 active torsions:
REMARK  status: ('A' for Active; 'I' for Inactive)
REMARK    1  A    between atoms: C_1  and  C_2
REMARK    2  A    between atoms: C_3  and  C_4
REMARK    3  A    between atoms: N_5  and  C_6
REMARK    4  A    between atoms: C_20  and  C_21
REMARK                            x       y       z     vdW  Elec       q    Type
REMARK                         _______ _______ _______ _____ _____    ______ ____
ROOT
ATOM      1  C   UNL     1       0.118   8.435  22.003  0.00  0.00    +0.000 C 
ATOM      2  C   UNL     1       0.946   8.341  20.772  0.00  0.00    +0.000 A 
ATOM      3  C   UNL     1       1.499   7.141  20.338  0.00  0.00    +0.000 A 
ATOM      4  C   UNL     1       1.404   5.778  20.944  0.00  0.00    +0.000 C 
ATOM      5  N   UNL     1       2.191   7.391  19.173  0.00  0.00    +0.000 N 
ATOM      6  C   UNL     1       2.059   8.722  18.840  0.00  0.00    +0.000 A 
ATOM      7  N   UNL     1       2.573   9.262  17.720  0.00  0.00    +0.000 NA
ATOM      8  C   UNL     1       2.272  10.555  17.604  0.00  0.00    +0.000 A 
ATOM      9  N   UNL     1       1.551  11.303  18.449  0.00  0.00    +0.000 NA
ATOM     10  C   UNL     1       1.037  10.764  19.587  0.00  0.00    +0.000 A 
ATOM     11  N   UNL     1       0.156  11.560  20.300  0.00  0.00    +0.000 N 
ATOM     12  C   UNL     1       0.083  11.627  21.747  0.00  0.00    +0.000 C 
ATOM     13  C   UNL     1      -1.396  11.535  22.147  0.00  0.00    +0.000 C 
ATOM     14  C   UNL     1      -2.269  12.563  21.417  0.00  0.00    +0.000 C 
ATOM     15  C   UNL     1      -1.954  12.719  19.918  0.00  0.00    +0.000 C 
ATOM     16  C   UNL     1      -0.448  12.731  19.642  0.00  0.00    +0.000 C 
ATOM     17  C   UNL     1       1.307   9.372  19.819  0.00  0.00    +0.000 A 
ENDROOT
BRANCH   5  18
ATOM     18  C   UNL     1       2.944   6.393  18.443  0.00  0.00    +0.000 C 
ATOM     19  C   UNL     1       4.135   5.759  19.157  0.00  0.00    +0.000 C 
ATOM     20  C   UNL     1       4.512   4.620  18.212  0.00  0.00    +0.000 C 
ATOM     21  C   UNL     1       3.207   4.178  17.542  0.00  0.00    +0.000 C 
ATOM     22  C   UNL     1       2.140   5.193  17.950  0.00  0.00    +0.000 C 
ENDBRANCH   5  18
BRANCH  15  23
ATOM     23  C   UNL     1      -2.652  11.686  19.034  0.00  0.00    +0.000 C 
ATOM     24  N   UNL     1      -3.837  12.041  18.469  0.00  0.00    +0.000 N 
ATOM     25  O   UNL     1      -2.179  10.574  18.826  0.00  0.00    +0.000 OA
ATOM     26  H   UNL     1      -4.378  11.292  18.058  0.00  0.00    +0.000 HD
ATOM     27  H   UNL     1      -4.369  12.791  18.904  0.00  0.00    +0.000 HD
ENDBRANCH  15  23
TORSDOF 2
ENDMDL
MODEL 8
REMARK VINA RESULT:      -6.3      2.700      4.589
REMARK  Name = 
REMARK  4 active torsions:
REMARK  status: ('A' for Active; 'I' for Inactive)
REMARK    1  A    between atoms: C_1  and  C_2
REMARK    2  A    between atoms: C_3  and  C_4
REMARK    3  A    between atoms: N_5  and  C_6
REMARK    4  A    between atoms: C_20  and  C_21
REMARK                            x       y       z     vdW  Elec       q    Type
REMARK                         _______ _______ _______ _____ _____    ______ ____
ROOT
ATOM      1  C   UNL     1      -0.383  13.246  21.241  0.00  0.00    +0.000 C 
ATOM      2  C   UNL     1      -1.373  12.761  20.245  0.00  0.00    +0.000 A 
ATOM      3  C   UNL     1      -1.026  11.899  19.211  0.00  0.00    +0.000 A 
ATOM      4  C   UNL     1       0.303  11.301  18.878  0.00  0.00    +0.000 C 
ATOM      5  N   UNL     1      -2.164  11.635  18.481  0.00  0.00    +0.000 N 
ATOM      6  C   UNL     1      -3.236  12.286  19.053  0.00  0.00    +0.000 A 
ATOM      7  N   UNL     1      -4.499  12.176  18.603  0.00  0.00    +0.000 NA
ATOM      8  C   UNL     1      -5.359  12.866  19.351  0.00  0.00    +0.000 A 
ATOM      9  N   UNL     1      -5.087  13.604  20.435  0.00  0.00    +0.000 NA
ATOM     10  C   UNL     1      -3.810  13.726  20.889  0.00  0.00    +0.000 A 
ATOM     11  N   UNL     1      -3.651  14.351  22.114  0.00  0.00    +0.000 N 
ATOM     12  C   UNL     1      -2.566  15.252  22.451  0.00  0.00    +0.000 C 
ATOM     13  C   UNL     1      -2.024  14.841  23.827  0.00  0.00    +0.000 C 
ATOM     14  C   UNL     1      -3.126  14.745  24.890  0.00  0.00    +0.000 C 
ATOM     15  C   UNL     1      -4.419  14.062  24.409  0.00  0.00    +0.000 C 
ATOM     16  C   UNL     1      -4.818  14.506  22.999  0.00  0.00    +0.000 C 
ATOM     17  C   UNL     1      -2.796  13.026  20.151  0.00  0.00    +0.000 A 
ENDROOT
BRANCH   5  18
ATOM     18  C   UNL     1      -2.196  10.810  17.291  0.00  0.00    +0.000 C 
ATOM     19  C   UNL     1      -3.072   9.561  17.334  0.00  0.00    +0.000 C 
ATOM     20  C   UNL     1      -3.054   9.101  15.878  0.00  0.00    +0.000 C 
ATOM     21  C   UNL     1      -2.907  10.372  15.036  0.00  0.00    +0.000 C 
ATOM     22  C   UNL     1      -2.637  11.515  16.012  0.00  0.00    +0.000 C 
ENDBRANCH   5  18
BRANCH  15  23
ATOM     23  C   UNL     1      -4.376  12.537  24.498  0.00  0.00    +0.000 C 
ATOM     24  N   UNL     1      -5.443  11.910  25.063  0.00  0.00    +0.000 N 
ATOM     25  O   UNL     1      -3.428  11.882  24.081  0.00  0.00    +0.000 OA
ATOM     26  H   UNL     1      -5.317  10.934  25.295  0.00  0.00    +0.000 HD
ATOM     27  H   UNL     1      -6.036  12.447  25.692  0.00  0.00    +0.000 HD
ENDBRANCH  15  23
TORSDOF 2
ENDMDL
MODEL 9
REMARK VINA RESULT:      -6.2      3.108      5.479
REMARK  Name = 
REMARK  4 active torsions:
REMARK  status: ('A' for Active; 'I' for Inactive)
REMARK    1  A    between atoms: C_1  and  C_2
REMARK    2  A    between atoms: C_3  and  C_4
REMARK    3  A    between atoms: N_5  and  C_6
REMARK    4  A    between atoms: C_20  and  C_21
REMARK                            x       y       z     vdW  Elec       q    Type
REMARK                         _______ _______ _______ _____ _____    ______ ____
ROOT
ATOM      1  C   UNL     1      -6.964  12.542  21.312  0.00  0.00    +0.000 C 
ATOM      2  C   UNL     1      -5.756  12.284  20.486  0.00  0.00    +0.000 A 
ATOM      3  C   UNL     1      -5.803  11.539  19.313  0.00  0.00    +0.000 A 
ATOM      4  C   UNL     1      -6.971  10.877  18.654  0.00  0.00    +0.000 C 
ATOM      5  N   UNL     1      -4.530  11.497  18.787  0.00  0.00    +0.000 N 
ATOM      6  C   UNL     1      -3.681  12.232  19.585  0.00  0.00    +0.000 A 
ATOM      7  N   UNL     1      -2.382  12.433  19.303  0.00  0.00    +0.000 NA
ATOM      8  C   UNL     1      -1.787  13.212  20.204  0.00  0.00    +0.000 A 
ATOM      9  N   UNL     1      -2.339  13.773  21.288  0.00  0.00    +0.000 NA
ATOM     10  C   UNL     1      -3.650  13.567  21.584  0.00  0.00    +0.000 A 
ATOM     11  N   UNL     1      -4.176  14.331  22.613  0.00  0.00    +0.000 N 
ATOM     12  C   UNL     1      -5.138  13.858  23.590  0.00  0.00    +0.000 C 
ATOM     13  C   UNL     1      -6.242  14.917  23.711  0.00  0.00    +0.000 C 
ATOM     14  C   UNL     1      -5.685  16.319  23.992  0.00  0.00    +0.000 C 
ATOM     15  C   UNL     1      -4.442  16.690  23.163  0.00  0.00    +0.000 C 
ATOM     16  C   UNL     1      -3.448  15.530  23.061  0.00  0.00    +0.000 C 
ATOM     17  C   UNL     1      -4.390  12.731  20.679  0.00  0.00    +0.000 A 
ENDROOT
BRANCH   5  18
ATOM     18  C   UNL     1      -4.168  10.773  17.586  0.00  0.00    +0.000 C 
ATOM     19  C   UNL     1      -4.015  11.584  16.303  0.00  0.00    +0.000 C 
ATOM     20  C   UNL     1      -3.404  10.565  15.345  0.00  0.00    +0.000 C 
ATOM     21  C   UNL     1      -2.567   9.619  16.211  0.00  0.00    +0.000 C 
ATOM     22  C   UNL     1      -2.869   9.976  17.666  0.00  0.00    +0.000 C 
ENDBRANCH   5  18
BRANCH  15  23
ATOM     23  C   UNL     1      -4.772  17.236  21.774  0.00  0.00    +0.000 C 
ATOM     24  N   UNL     1      -3.754  17.322  20.876  0.00  0.00    +0.000 N 
ATOM     25  O   UNL     1      -5.903  17.586  21.458  0.00  0.00    +0.000 OA
ATOM     26  H   UNL     1      -3.940  17.863  20.042  0.00  0.00    +0.000 HD
ATOM     27  H   UNL     1      -2.802  17.362  21.233  0.00  0.00    +0.000 HD
ENDBRANCH  15  23
TORSDOF 2
ENDMDL
