MODEL 1
REMARK VINA RESULT:      -6.8      0.000      0.000
REMARK  Name = 
REMARK  9 active torsions:
REMARK  status: ('A' for Active; 'I' for Inactive)
REMARK    1  A    between atoms: C_1  and  O_2
REMARK    2  A    between atoms: O_2  and  C_3
REMARK    3  A    between atoms: C_3  and  C_5
REMARK    4  A    between atoms: C_9  and  C_10
REMARK    5  A    between atoms: C_10  and  O_11
REMARK    6  A    between atoms: O_11  and  C_12
REMARK    7  A    between atoms: C_15  and  O_16
REMARK    8  A    between atoms: O_16  and  C_17
REMARK    9  A    between atoms: C_19  and  C_20
REMARK                            x       y       z     vdW  Elec       q    Type
REMARK                         _______ _______ _______ _____ _____    ______ ____
ROOT
ATOM      1  C   UNL     1       3.324   7.383  17.750  0.00  0.00    +0.000 C 
ENDROOT
BRANCH   1   6
ATOM      2  C   UNL     1       1.715   4.102  18.802  0.00  0.00    +0.000 A 
ATOM      3  C   UNL     1       1.449   4.421  20.128  0.00  0.00    +0.000 A 
ATOM      4  N   UNL     1       1.771   5.607  20.697  0.00  0.00    +0.000 NA
ATOM      5  C   UNL     1       2.382   6.510  19.902  0.00  0.00    +0.000 A 
ATOM      6  C   UNL     1       2.696   6.288  18.560  0.00  0.00    +0.000 A 
ATOM      7  C   UNL     1       2.346   5.058  18.006  0.00  0.00    +0.000 A 
BRANCH   2   8
ATOM      8  C   UNL     1       1.308   2.780  18.297  0.00  0.00    +0.000 C 
ATOM      9  O   UNL     1       0.216   2.279  18.531  0.00  0.00    +0.000 OA
BRANCH   8  11
ATOM     10  C   UNL     1       3.310   1.587  18.334  0.00  0.00    +0.000 C 
ATOM     11  O   UNL     1       2.297   2.225  17.558  0.00  0.00    +0.000 OA
ENDBRANCH   8  11
ENDBRANCH   2   8
ENDBRANCH   1   6
BRANCH   1  12
ATOM     12  O   UNL     1       4.763   7.295  17.727  0.00  0.00    +0.000 OA
BRANCH  12  13
ATOM     13  C   UNL     1       5.241   6.336  16.863  0.00  0.00    +0.000 A 
ATOM     14  C   UNL     1       5.025   6.428  15.480  0.00  0.00    +0.000 A 
ATOM     15  C   UNL     1       5.454   5.425  14.619  0.00  0.00    +0.000 A 
ATOM     16  C   UNL     1       6.158   4.333  15.106  0.00  0.00    +0.000 A 
ATOM     17  C   UNL     1       6.433   4.251  16.469  0.00  0.00    +0.000 A 
ATOM     18  C   UNL     1       5.976   5.242  17.353  0.00  0.00    +0.000 A 
BRANCH  16  19
ATOM     19  O   UNL     1       6.519   3.426  14.151  0.00  0.00    +0.000 OA
ATOM     20  C   UNL     1       6.453   3.872  12.804  0.00  0.00    +0.000 C 
ENDBRANCH  16  19
BRANCH  18  21
ATOM     21  C   UNL     1       6.281   5.047  18.794  0.00  0.00    +0.000 C 
ATOM     22  O   UNL     1       5.800   4.120  19.442  0.00  0.00    +0.000 OA
ENDBRANCH  18  21
ENDBRANCH  12  13
ENDBRANCH   1  12
TORSDOF 7
ENDMDL
MODEL 2
REMARK VINA RESULT:      -6.6      1.836      2.151
REMARK  Name = 
REMARK  9 active torsions:
REMARK  status: ('A' for Active; 'I' for Inactive)
REMARK    1  A    between atoms: C_1  and  O_2
REMARK    2  A    between atoms: O_2  and  C_3
REMARK    3  A    between atoms: C_3  and  C_5
REMARK    4  A    between atoms: C_9  and  C_10
REMARK    5  A    between atoms: C_10  and  O_11
REMARK    6  A    between atoms: O_11  and  C_12
REMARK    7  A    between atoms: C_15  and  O_16
REMARK    8  A    between atoms: O_16  and  C_17
REMARK    9  A    between atoms: C_19  and  C_20
REMARK                            x       y       z     vdW  Elec       q    Type
REMARK                         _______ _______ _______ _____ _____    ______ ____
ROOT
ATOM      1  C   UNL     1       2.463   6.633  18.204  0.00  0.00    +0.000 C 
ENDROOT
BRANCH   1   6
ATOM      2  C   UNL     1       2.066   3.323  20.034  0.00  0.00    +0.000 A 
ATOM      3  C   UNL     1       1.527   2.578  18.993  0.00  0.00    +0.000 A 
ATOM      4  N   UNL     1       1.270   3.079  17.761  0.00  0.00    +0.000 NA
ATOM      5  C   UNL     1       1.571   4.381  17.566  0.00  0.00    +0.000 A 
ATOM      6  C   UNL     1       2.112   5.215  18.544  0.00  0.00    +0.000 A 
ATOM      7  C   UNL     1       2.368   4.665  19.799  0.00  0.00    +0.000 A 
BRANCH   2   8
ATOM      8  C   UNL     1       2.307   2.662  21.328  0.00  0.00    +0.000 C 
ATOM      9  O   UNL     1       1.408   2.295  22.071  0.00  0.00    +0.000 OA
BRANCH   8  11
ATOM     10  C   UNL     1       4.344   1.903  20.487  0.00  0.00    +0.000 C 
ATOM     11  O   UNL     1       3.634   2.528  21.556  0.00  0.00    +0.000 OA
ENDBRANCH   8  11
ENDBRANCH   2   8
ENDBRANCH   1   6
BRANCH   1  12
ATOM     12  O   UNL     1       3.839   6.945  18.499  0.00  0.00    +0.000 OA
BRANCH  12  13
ATOM     13  C   UNL     1       4.732   6.385  17.613  0.00  0.00    +0.000 A 
ATOM     14  C   UNL     1       4.600   6.572  16.229  0.00  0.00    +0.000 A 
ATOM     15  C   UNL     1       5.465   5.951  15.335  0.00  0.00    +0.000 A 
ATOM     16  C   UNL     1       6.517   5.175  15.800  0.00  0.00    +0.000 A 
ATOM     17  C   UNL     1       6.699   5.022  17.172  0.00  0.00    +0.000 A 
ATOM     18  C   UNL     1       5.812   5.618  18.084  0.00  0.00    +0.000 A 
BRANCH  16  19
ATOM     19  O   UNL     1       7.288   4.627  14.815  0.00  0.00    +0.000 OA
ATOM     20  C   UNL     1       6.602   4.186  13.652  0.00  0.00    +0.000 C 
ENDBRANCH  16  19
BRANCH  18  21
ATOM     21  C   UNL     1       6.062   5.364  19.526  0.00  0.00    +0.000 C 
ATOM     22  O   UNL     1       7.198   5.300  19.989  0.00  0.00    +0.000 OA
ENDBRANCH  18  21
ENDBRANCH  12  13
ENDBRANCH   1  12
TORSDOF 7
ENDMDL
MODEL 3
REMARK VINA RESULT:      -6.6      2.144      6.301
REMARK  Name = 
REMARK  9 active torsions:
REMARK  status: ('A' for Active; 'I' for Inactive)
REMARK    1  A    between atoms: C_1  and  O_2
REMARK    2  A    between atoms: O_2  and  C_3
REMARK    3  A    between atoms: C_3  and  C_5
REMARK    4  A    between atoms: C_9  and  C_10
REMARK    5  A    between atoms: C_10  and  O_11
REMARK    6  A    between atoms: O_11  and  C_12
REMARK    7  A    between atoms: C_15  and  O_16
REMARK    8  A    between atoms: O_16  and  C_17
REMARK    9  A    between atoms: C_19  and  C_20
REMARK                            x       y       z     vdW  Elec       q    Type
REMARK                         _______ _______ _______ _____ _____    ______ ____
ROOT
ATOM      1  C   UNL     1       3.844   3.363  18.199  0.00  0.00    +0.000 C 
ENDROOT
BRANCH   1   6
ATOM      2  C   UNL     1       6.540   4.643  15.842  0.00  0.00    +0.000 A 
ATOM      3  C   UNL     1       7.349   5.272  16.780  0.00  0.00    +0.000 A 
ATOM      4  N   UNL     1       7.069   5.322  18.104  0.00  0.00    +0.000 NA
ATOM      5  C   UNL     1       5.933   4.713  18.503  0.00  0.00    +0.000 A 
ATOM      6  C   UNL     1       5.051   4.058  17.643  0.00  0.00    +0.000 A 
ATOM      7  C   UNL     1       5.372   4.021  16.287  0.00  0.00    +0.000 A 
BRANCH   2   8
ATOM      8  C   UNL     1       6.956   4.650  14.429  0.00  0.00    +0.000 C 
ATOM      9  O   UNL     1       7.810   5.405  13.985  0.00  0.00    +0.000 OA
BRANCH   8  11
ATOM     10  C   UNL     1       6.589   3.696  12.335  0.00  0.00    +0.000 C 
ATOM     11  O   UNL     1       6.269   3.720  13.725  0.00  0.00    +0.000 OA
ENDBRANCH   8  11
ENDBRANCH   2   8
ENDBRANCH   1   6
BRANCH   1  12
ATOM     12  O   UNL     1       2.615   4.031  17.850  0.00  0.00    +0.000 OA
BRANCH  12  13
ATOM     13  C   UNL     1       2.325   5.106  18.659  0.00  0.00    +0.000 A 
ATOM     14  C   UNL     1       2.553   6.422  18.231  0.00  0.00    +0.000 A 
ATOM     15  C   UNL     1       2.320   7.502  19.074  0.00  0.00    +0.000 A 
ATOM     16  C   UNL     1       1.800   7.302  20.345  0.00  0.00    +0.000 A 
ATOM     17  C   UNL     1       1.514   6.006  20.769  0.00  0.00    +0.000 A 
ATOM     18  C   UNL     1       1.776   4.906  19.937  0.00  0.00    +0.000 A 
BRANCH  16  19
ATOM     19  O   UNL     1       1.619   8.448  21.065  0.00  0.00    +0.000 OA
ATOM     20  C   UNL     1       0.770   9.427  20.483  0.00  0.00    +0.000 C 
ENDBRANCH  16  19
BRANCH  18  21
ATOM     21  C   UNL     1       1.477   3.560  20.492  0.00  0.00    +0.000 C 
ATOM     22  O   UNL     1       0.585   2.850  20.035  0.00  0.00    +0.000 OA
ENDBRANCH  18  21
ENDBRANCH  12  13
ENDBRANCH   1  12
TORSDOF 7
ENDMDL
MODEL 4
REMARK VINA RESULT:      -6.6      2.601      6.568
REMARK  Name = 
REMARK  9 active torsions:
REMARK  status: ('A' for Active; 'I' for Inactive)
REMARK    1  A    between atoms: C_1  and  O_2
REMARK    2  A    between atoms: O_2  and  C_3
REMARK    3  A    between atoms: C_3  and  C_5
REMARK    4  A    between atoms: C_9  and  C_10
REMARK    5  A    between atoms: C_10  and  O_11
REMARK    6  A    between atoms: O_11  and  C_12
REMARK    7  A    between atoms: C_15  and  O_16
REMARK    8  A    between atoms: O_16  and  C_17
REMARK    9  A    between atoms: C_19  and  C_20
REMARK                            x       y       z     vdW  Elec       q    Type
REMARK                         _______ _______ _______ _____ _____    ______ ____
ROOT
ATOM      1  C   UNL     1       5.100   4.353  17.146  0.00  0.00    +0.000 C 
ENDROOT
BRANCH   1   6
ATOM      2  C   UNL     1       6.110   3.955  13.502  0.00  0.00    +0.000 A 
ATOM      3  C   UNL     1       7.249   4.750  13.518  0.00  0.00    +0.000 A 
ATOM      4  N   UNL     1       7.692   5.411  14.614  0.00  0.00    +0.000 NA
ATOM      5  C   UNL     1       6.963   5.266  15.740  0.00  0.00    +0.000 A 
ATOM      6  C   UNL     1       5.803   4.494  15.829  0.00  0.00    +0.000 A 
ATOM      7  C   UNL     1       5.379   3.824  14.683  0.00  0.00    +0.000 A 
BRANCH   2   8
ATOM      8  C   UNL     1       5.736   3.280  12.247  0.00  0.00    +0.000 C 
ATOM      9  O   UNL     1       4.608   3.321  11.774  0.00  0.00    +0.000 OA
BRANCH   8  11
ATOM     10  C   UNL     1       6.479   1.358  11.159  0.00  0.00    +0.000 C 
ATOM     11  O   UNL     1       6.799   2.630  11.719  0.00  0.00    +0.000 OA
ENDBRANCH   8  11
ENDBRANCH   2   8
ENDBRANCH   1   6
BRANCH   1  12
ATOM     12  O   UNL     1       3.665   4.402  17.012  0.00  0.00    +0.000 OA
BRANCH  12  13
ATOM     13  C   UNL     1       3.039   5.060  18.046  0.00  0.00    +0.000 A 
ATOM     14  C   UNL     1       3.136   6.452  18.190  0.00  0.00    +0.000 A 
ATOM     15  C   UNL     1       2.555   7.104  19.272  0.00  0.00    +0.000 A 
ATOM     16  C   UNL     1       1.816   6.393  20.206  0.00  0.00    +0.000 A 
ATOM     17  C   UNL     1       1.660   5.018  20.050  0.00  0.00    +0.000 A 
ATOM     18  C   UNL     1       2.269   4.344  18.980  0.00  0.00    +0.000 A 
BRANCH  16  19
ATOM     19  O   UNL     1       1.301   7.157  21.214  0.00  0.00    +0.000 OA
ATOM     20  C   UNL     1       1.193   8.549  20.954  0.00  0.00    +0.000 C 
ENDBRANCH  16  19
BRANCH  18  21
ATOM     21  C   UNL     1       2.082   2.871  18.921  0.00  0.00    +0.000 C 
ATOM     22  O   UNL     1       1.299   2.345  18.133  0.00  0.00    +0.000 OA
ENDBRANCH  18  21
ENDBRANCH  12  13
ENDBRANCH   1  12
TORSDOF 7
ENDMDL
MODEL 5
REMARK VINA RESULT:      -6.5      2.593      6.455
REMARK  Name = 
REMARK  9 active torsions:
REMARK  status: ('A' for Active; 'I' for Inactive)
REMARK    1  A    between atoms: C_1  and  O_2
REMARK    2  A    between atoms: O_2  and  C_3
REMARK    3  A    between atoms: C_3  and  C_5
REMARK    4  A    between atoms: C_9  and  C_10
REMARK    5  A    between atoms: C_10  and  O_11
REMARK    6  A    between atoms: O_11  and  C_12
REMARK    7  A    between atoms: C_15  and  O_16
REMARK    8  A    between atoms: O_16  and  C_17
REMARK    9  A    between atoms: C_19  and  C_20
REMARK                            x       y       z     vdW  Elec       q    Type
REMARK                         _______ _______ _______ _____ _____    ______ ____
ROOT
ATOM      1  C   UNL     1       3.942   3.814  17.093  0.00  0.00    +0.000 C 
ENDROOT
BRANCH   1   6
ATOM      2  C   UNL     1       6.257   4.175  14.097  0.00  0.00    +0.000 A 
ATOM      3  C   UNL     1       7.322   4.797  14.736  0.00  0.00    +0.000 A 
ATOM      4  N   UNL     1       7.328   5.119  16.052  0.00  0.00    +0.000 NA
ATOM      5  C   UNL     1       6.221   4.801  16.755  0.00  0.00    +0.000 A 
ATOM      6  C   UNL     1       5.098   4.178  16.209  0.00  0.00    +0.000 A 
ATOM      7  C   UNL     1       5.128   3.856  14.853  0.00  0.00    +0.000 A 
BRANCH   2   8
ATOM      8  C   UNL     1       6.374   3.868  12.662  0.00  0.00    +0.000 C 
ATOM      9  O   UNL     1       7.320   4.227  11.974  0.00  0.00    +0.000 OA
BRANCH   8  11
ATOM     10  C   UNL     1       5.653   1.994  11.478  0.00  0.00    +0.000 C 
ATOM     11  O   UNL     1       5.307   3.151  12.238  0.00  0.00    +0.000 OA
ENDBRANCH   8  11
ENDBRANCH   2   8
ENDBRANCH   1   6
BRANCH   1  12
ATOM     12  O   UNL     1       4.252   3.962  18.493  0.00  0.00    +0.000 OA
BRANCH  12  13
ATOM     13  C   UNL     1       3.427   4.848  19.148  0.00  0.00    +0.000 A 
ATOM     14  C   UNL     1       3.275   6.169  18.702  0.00  0.00    +0.000 A 
ATOM     15  C   UNL     1       2.491   7.078  19.404  0.00  0.00    +0.000 A 
ATOM     16  C   UNL     1       1.793   6.679  20.534  0.00  0.00    +0.000 A 
ATOM     17  C   UNL     1       1.885   5.356  20.961  0.00  0.00    +0.000 A 
ATOM     18  C   UNL     1       2.700   4.437  20.279  0.00  0.00    +0.000 A 
BRANCH  16  19
ATOM     19  O   UNL     1       1.063   7.670  21.123  0.00  0.00    +0.000 OA
ATOM     20  C   UNL     1       0.940   8.880  20.389  0.00  0.00    +0.000 C 
ENDBRANCH  16  19
BRANCH  18  21
ATOM     21  C   UNL     1       2.767   3.060  20.833  0.00  0.00    +0.000 C 
ATOM     22  O   UNL     1       2.627   2.833  22.033  0.00  0.00    +0.000 OA
ENDBRANCH  18  21
ENDBRANCH  12  13
ENDBRANCH   1  12
TORSDOF 7
ENDMDL
MODEL 6
REMARK VINA RESULT:      -6.5      2.835      6.470
REMARK  Name = 
REMARK  9 active torsions:
REMARK  status: ('A' for Active; 'I' for Inactive)
REMARK    1  A    between atoms: C_1  and  O_2
REMARK    2  A    between atoms: O_2  and  C_3
REMARK    3  A    between atoms: C_3  and  C_5
REMARK    4  A    between atoms: C_9  and  C_10
REMARK    5  A    between atoms: C_10  and  O_11
REMARK    6  A    between atoms: O_11  and  C_12
REMARK    7  A    between atoms: C_15  and  O_16
REMARK    8  A    between atoms: O_16  and  C_17
REMARK    9  A    between atoms: C_19  and  C_20
REMARK                            x       y       z     vdW  Elec       q    Type
REMARK                         _______ _______ _______ _____ _____    ______ ____
ROOT
ATOM      1  C   UNL     1       6.623   4.688  16.236  0.00  0.00    +0.000 C 
ENDROOT
BRANCH   1   6
ATOM      2  C   UNL     1       6.121   3.630  12.618  0.00  0.00    +0.000 A 
ATOM      3  C   UNL     1       7.107   4.416  12.037  0.00  0.00    +0.000 A 
ATOM      4  N   UNL     1       7.899   5.268  12.731  0.00  0.00    +0.000 NA
ATOM      5  C   UNL     1       7.694   5.330  14.063  0.00  0.00    +0.000 A 
ATOM      6  C   UNL     1       6.729   4.586  14.743  0.00  0.00    +0.000 A 
ATOM      7  C   UNL     1       5.934   3.716  13.998  0.00  0.00    +0.000 A 
BRANCH   2   8
ATOM      8  C   UNL     1       5.329   2.735  11.757  0.00  0.00    +0.000 C 
ATOM      9  O   UNL     1       5.808   1.778  11.163  0.00  0.00    +0.000 OA
BRANCH   8  11
ATOM     10  C   UNL     1       3.577   3.517  10.434  0.00  0.00    +0.000 C 
ATOM     11  O   UNL     1       4.033   3.124  11.727  0.00  0.00    +0.000 OA
ENDBRANCH   8  11
ENDBRANCH   2   8
ENDBRANCH   1   6
BRANCH   1  12
ATOM     12  O   UNL     1       5.613   5.628  16.653  0.00  0.00    +0.000 OA
BRANCH  12  13
ATOM     13  C   UNL     1       4.488   5.031  17.174  0.00  0.00    +0.000 A 
ATOM     14  C   UNL     1       4.386   3.636  17.280  0.00  0.00    +0.000 A 
ATOM     15  C   UNL     1       3.222   3.035  17.746  0.00  0.00    +0.000 A 
ATOM     16  C   UNL     1       2.153   3.809  18.172  0.00  0.00    +0.000 A 
ATOM     17  C   UNL     1       2.256   5.198  18.129  0.00  0.00    +0.000 A 
ATOM     18  C   UNL     1       3.414   5.816  17.629  0.00  0.00    +0.000 A 
BRANCH  16  19
ATOM     19  O   UNL     1       1.076   3.091  18.606  0.00  0.00    +0.000 OA
ATOM     20  C   UNL     1       0.774   3.188  19.991  0.00  0.00    +0.000 C 
ENDBRANCH  16  19
BRANCH  18  21
ATOM     21  C   UNL     1       3.414   7.301  17.582  0.00  0.00    +0.000 C 
ATOM     22  O   UNL     1       2.719   7.977  18.336  0.00  0.00    +0.000 OA
ENDBRANCH  18  21
ENDBRANCH  12  13
ENDBRANCH   1  12
TORSDOF 7
ENDMDL
MODEL 7
REMARK VINA RESULT:      -6.4      2.619      6.577
REMARK  Name = 
REMARK  9 active torsions:
REMARK  status: ('A' for Active; 'I' for Inactive)
REMARK    1  A    between atoms: C_1  and  O_2
REMARK    2  A    between atoms: O_2  and  C_3
REMARK    3  A    between atoms: C_3  and  C_5
REMARK    4  A    between atoms: C_9  and  C_10
REMARK    5  A    between atoms: C_10  and  O_11
REMARK    6  A    between atoms: O_11  and  C_12
REMARK    7  A    between atoms: C_15  and  O_16
REMARK    8  A    between atoms: O_16  and  C_17
REMARK    9  A    between atoms: C_19  and  C_20
REMARK                            x       y       z     vdW  Elec       q    Type
REMARK                         _______ _______ _______ _____ _____    ______ ____
ROOT
ATOM      1  C   UNL     1       3.882   3.406  17.851  0.00  0.00    +0.000 C 
ENDROOT
BRANCH   1   6
ATOM      2  C   UNL     1       6.838   5.723  17.254  0.00  0.00    +0.000 A 
ATOM      3  C   UNL     1       7.085   5.401  15.926  0.00  0.00    +0.000 A 
ATOM      4  N   UNL     1       6.376   4.481  15.229  0.00  0.00    +0.000 NA
ATOM      5  C   UNL     1       5.377   3.861  15.892  0.00  0.00    +0.000 A 
ATOM      6  C   UNL     1       5.050   4.109  17.226  0.00  0.00    +0.000 A 
ATOM      7  C   UNL     1       5.797   5.066  17.912  0.00  0.00    +0.000 A 
BRANCH   2   8
ATOM      8  C   UNL     1       7.674   6.748  17.902  0.00  0.00    +0.000 C 
ATOM      9  O   UNL     1       8.217   6.585  18.986  0.00  0.00    +0.000 OA
BRANCH   8  11
ATOM     10  C   UNL     1       8.073   9.044  17.861  0.00  0.00    +0.000 C 
ATOM     11  O   UNL     1       7.745   7.861  17.134  0.00  0.00    +0.000 OA
ENDBRANCH   8  11
ENDBRANCH   2   8
ENDBRANCH   1   6
BRANCH   1  12
ATOM     12  O   UNL     1       2.631   4.070  17.581  0.00  0.00    +0.000 OA
BRANCH  12  13
ATOM     13  C   UNL     1       2.349   5.088  18.464  0.00  0.00    +0.000 A 
ATOM     14  C   UNL     1       2.543   6.432  18.112  0.00  0.00    +0.000 A 
ATOM     15  C   UNL     1       2.318   7.453  19.029  0.00  0.00    +0.000 A 
ATOM     16  C   UNL     1       1.838   7.165  20.298  0.00  0.00    +0.000 A 
ATOM     17  C   UNL     1       1.585   5.841  20.648  0.00  0.00    +0.000 A 
ATOM     18  C   UNL     1       1.839   4.799  19.742  0.00  0.00    +0.000 A 
BRANCH  16  19
ATOM     19  O   UNL     1       1.661   8.261  21.094  0.00  0.00    +0.000 OA
ATOM     20  C   UNL     1       0.814   9.279  20.579  0.00  0.00    +0.000 C 
ENDBRANCH  16  19
BRANCH  18  21
ATOM     21  C   UNL     1       1.578   3.416  20.220  0.00  0.00    +0.000 C 
ATOM     22  O   UNL     1       0.638   2.747  19.796  0.00  0.00    +0.000 OA
ENDBRANCH  18  21
ENDBRANCH  12  13
ENDBRANCH   1  12
TORSDOF 7
ENDMDL
MODEL 8
REMARK VINA RESULT:      -6.4      2.648      6.609
REMARK  Name = 
REMARK  9 active torsions:
REMARK  status: ('A' for Active; 'I' for Inactive)
REMARK    1  A    between atoms: C_1  and  O_2
REMARK    2  A    between atoms: O_2  and  C_3
REMARK    3  A    between atoms: C_3  and  C_5
REMARK    4  A    between atoms: C_9  and  C_10
REMARK    5  A    between atoms: C_10  and  O_11
REMARK    6  A    between atoms: O_11  and  C_12
REMARK    7  A    between atoms: C_15  and  O_16
REMARK    8  A    between atoms: O_16  and  C_17
REMARK    9  A    between atoms: C_19  and  C_20
REMARK                            x       y       z     vdW  Elec       q    Type
REMARK                         _______ _______ _______ _____ _____    ______ ____
ROOT
ATOM      1  C   UNL     1       5.475   4.625  16.781  0.00  0.00    +0.000 C 
ENDROOT
BRANCH   1   6
ATOM      2  C   UNL     1       6.201   3.848  13.130  0.00  0.00    +0.000 A 
ATOM      3  C   UNL     1       7.321   4.654  12.969  0.00  0.00    +0.000 A 
ATOM      4  N   UNL     1       7.835   5.435  13.949  0.00  0.00    +0.000 NA
ATOM      5  C   UNL     1       7.200   5.403  15.140  0.00  0.00    +0.000 A 
ATOM      6  C   UNL     1       6.068   4.631  15.404  0.00  0.00    +0.000 A 
ATOM      7  C   UNL     1       5.569   3.836  14.374  0.00  0.00    +0.000 A 
BRANCH   2   8
ATOM      8  C   UNL     1       5.742   3.037  11.990  0.00  0.00    +0.000 C 
ATOM      9  O   UNL     1       4.594   3.059  11.569  0.00  0.00    +0.000 OA
BRANCH   8  11
ATOM     10  C   UNL     1       6.356   0.996  11.045  0.00  0.00    +0.000 C 
ATOM     11  O   UNL     1       6.757   2.289  11.497  0.00  0.00    +0.000 OA
ENDBRANCH   8  11
ENDBRANCH   2   8
ENDBRANCH   1   6
BRANCH   1  12
ATOM     12  O   UNL     1       4.191   5.279  16.831  0.00  0.00    +0.000 OA
BRANCH  12  13
ATOM     13  C   UNL     1       3.386   4.832  17.854  0.00  0.00    +0.000 A 
ATOM     14  C   UNL     1       3.191   3.462  18.083  0.00  0.00    +0.000 A 
ATOM     15  C   UNL     1       2.326   3.017  19.077  0.00  0.00    +0.000 A 
ATOM     16  C   UNL     1       1.679   3.924  19.904  0.00  0.00    +0.000 A 
ATOM     17  C   UNL     1       1.904   5.288  19.729  0.00  0.00    +0.000 A 
ATOM     18  C   UNL     1       2.749   5.750  18.708  0.00  0.00    +0.000 A 
BRANCH  16  19
ATOM     19  O   UNL     1       0.862   3.351  20.836  0.00  0.00    +0.000 OA
ATOM     20  C   UNL     1       1.495   2.517  21.797  0.00  0.00    +0.000 C 
ENDBRANCH  16  19
BRANCH  18  21
ATOM     21  C   UNL     1       2.893   7.223  18.572  0.00  0.00    +0.000 C 
ATOM     22  O   UNL     1       2.260   7.865  17.738  0.00  0.00    +0.000 OA
ENDBRANCH  18  21
ENDBRANCH  12  13
ENDBRANCH   1  12
TORSDOF 7
ENDMDL
MODEL 9
REMARK VINA RESULT:      -6.4      2.846      6.561
REMARK  Name = 
REMARK  9 active torsions:
REMARK  status: ('A' for Active; 'I' for Inactive)
REMARK    1  A    between atoms: C_1  and  O_2
REMARK    2  A    between atoms: O_2  and  C_3
REMARK    3  A    between atoms: C_3  and  C_5
REMARK    4  A    between atoms: C_9  and  C_10
REMARK    5  A    between atoms: C_10  and  O_11
REMARK    6  A    between atoms: O_11  and  C_12
REMARK    7  A    between atoms: C_15  and  O_16
REMARK    8  A    between atoms: O_16  and  C_17
REMARK    9  A    between atoms: C_19  and  C_20
REMARK                            x       y       z     vdW  Elec       q    Type
REMARK                         _______ _______ _______ _____ _____    ______ ____
ROOT
ATOM      1  C   UNL     1       6.316   4.551  16.295  0.00  0.00    +0.000 C 
ENDROOT
BRANCH   1   6
ATOM      2  C   UNL     1       6.047   3.564  12.632  0.00  0.00    +0.000 A 
ATOM      3  C   UNL     1       7.053   4.377  12.127  0.00  0.00    +0.000 A 
ATOM      4  N   UNL     1       7.789   5.226  12.885  0.00  0.00    +0.000 NA
ATOM      5  C   UNL     1       7.503   5.256  14.204  0.00  0.00    +0.000 A 
ATOM      6  C   UNL     1       6.512   4.483  14.809  0.00  0.00    +0.000 A 
ATOM      7  C   UNL     1       5.778   3.618  14.000  0.00  0.00    +0.000 A 
BRANCH   2   8
ATOM      8  C   UNL     1       5.322   2.676  11.707  0.00  0.00    +0.000 C 
ATOM      9  O   UNL     1       5.851   1.740  11.123  0.00  0.00    +0.000 OA
BRANCH   8  11
ATOM     10  C   UNL     1       3.684   3.634  10.353  0.00  0.00    +0.000 C 
ATOM     11  O   UNL     1       4.024   3.046  11.608  0.00  0.00    +0.000 OA
ENDBRANCH   8  11
ENDBRANCH   2   8
ENDBRANCH   1   6
BRANCH   1  12
ATOM     12  O   UNL     1       5.018   4.074  16.701  0.00  0.00    +0.000 OA
BRANCH  12  13
ATOM     13  C   UNL     1       4.202   5.061  17.204  0.00  0.00    +0.000 A 
ATOM     14  C   UNL     1       4.585   6.410  17.171  0.00  0.00    +0.000 A 
ATOM     15  C   UNL     1       3.786   7.397  17.738  0.00  0.00    +0.000 A 
ATOM     16  C   UNL     1       2.560   7.072  18.300  0.00  0.00    +0.000 A 
ATOM     17  C   UNL     1       2.135   5.745  18.291  0.00  0.00    +0.000 A 
ATOM     18  C   UNL     1       2.948   4.736  17.751  0.00  0.00    +0.000 A 
BRANCH  16  19
ATOM     19  O   UNL     1       1.879   8.136  18.817  0.00  0.00    +0.000 OA
ATOM     20  C   UNL     1       1.672   8.125  20.223  0.00  0.00    +0.000 C 
ENDBRANCH  16  19
BRANCH  18  21
ATOM     21  C   UNL     1       2.430   3.345  17.825  0.00  0.00    +0.000 C 
ATOM     22  O   UNL     1       1.232   3.103  17.958  0.00  0.00    +0.000 OA
ENDBRANCH  18  21
ENDBRANCH  12  13
ENDBRANCH   1  12
TORSDOF 7
ENDMDL
