MODEL 1
REMARK VINA RESULT:      -7.4      0.000      0.000
REMARK  Name = 
REMARK  7 active torsions:
REMARK  status: ('A' for Active; 'I' for Inactive)
REMARK    1  A    between atoms: C_1  and  C_2
REMARK    2  A    between atoms: C_2  and  C_4
REMARK    3  A    between atoms: C_5  and  C_6
REMARK    4  A    between atoms: C_8  and  C_9
REMARK    5  A    between atoms: N_11  and  C_12
REMARK    6  A    between atoms: C_12  and  C_13
REMARK    7  A    between atoms: C_18  and  C_19
REMARK                            x       y       z     vdW  Elec       q    Type
REMARK                         _______ _______ _______ _____ _____    ______ ____
ROOT
ATOM      1  C   UNL     1       2.576   4.037  20.320  0.00  0.00    +0.000 A 
ATOM      2  C   UNL     1       2.576   5.429  20.274  0.00  0.00    +0.000 A 
ATOM      3  C   UNL     1       1.606   6.490  20.662  0.00  0.00    +0.000 C 
ATOM      4  N   UNL     1       3.786   5.824  19.747  0.00  0.00    +0.000 N 
ATOM      5  C   UNL     1       4.571   4.747  19.411  0.00  0.00    +0.000 A 
ATOM      6  C   UNL     1       3.863   3.611  19.791  0.00  0.00    +0.000 A 
ATOM      7  C   UNL     1       4.325   2.189  19.737  0.00  0.00    +0.000 C 
ATOM      8  H   UNL     1       4.081   6.783  19.610  0.00  0.00    +0.000 HD
ENDROOT
BRANCH   5   9
ATOM      9  C   UNL     1       5.892   4.945  18.843  0.00  0.00    +0.000 C 
ATOM     10  O   UNL     1       6.867   5.226  19.532  0.00  0.00    +0.000 OA
ATOM     11  N   UNL     1       5.963   4.842  17.478  0.00  0.00    +0.000 N 
ATOM     12  H   UNL     1       5.109   4.925  16.944  0.00  0.00    +0.000 HD
BRANCH  11  13
ATOM     13  C   UNL     1       7.212   4.988  16.772  0.00  0.00    +0.000 C 
BRANCH  13  14
ATOM     14  C   UNL     1       6.994   4.697  15.332  0.00  0.00    +0.000 A 
ATOM     15  C   UNL     1       6.149   3.845  14.649  0.00  0.00    +0.000 A 
ATOM     16  C   UNL     1       6.435   4.015  13.272  0.00  0.00    +0.000 A 
ATOM     17  C   UNL     1       7.426   4.964  13.200  0.00  0.00    +0.000 A 
ATOM     18  O   UNL     1       7.772   5.387  14.443  0.00  0.00    +0.000 OA
ENDBRANCH  13  14
ENDBRANCH  11  13
ENDBRANCH   5   9
BRANCH   1  20
ATOM     19  C   UNL     1       0.446   2.614  19.899  0.00  0.00    +0.000 C 
ATOM     20  C   UNL     1       1.528   3.118  20.813  0.00  0.00    +0.000 C 
ATOM     21  O   UNL     1       1.514   2.743  21.990  0.00  0.00    +0.000 OA
ENDBRANCH   1  20
TORSDOF 4
ENDMDL
MODEL 2
REMARK VINA RESULT:      -7.0      1.281      1.349
REMARK  Name = 
REMARK  7 active torsions:
REMARK  status: ('A' for Active; 'I' for Inactive)
REMARK    1  A    between atoms: C_1  and  C_2
REMARK    2  A    between atoms: C_2  and  C_4
REMARK    3  A    between atoms: C_5  and  C_6
REMARK    4  A    between atoms: C_8  and  C_9
REMARK    5  A    between atoms: N_11  and  C_12
REMARK    6  A    between atoms: C_12  and  C_13
REMARK    7  A    between atoms: C_18  and  C_19
REMARK                            x       y       z     vdW  Elec       q    Type
REMARK                         _______ _______ _______ _____ _____    ______ ____
ROOT
ATOM      1  C   UNL     1       2.553   3.931  19.368  0.00  0.00    +0.000 A 
ATOM      2  C   UNL     1       2.798   5.283  19.596  0.00  0.00    +0.000 A 
ATOM      3  C   UNL     1       2.072   6.375  20.304  0.00  0.00    +0.000 C 
ATOM      4  N   UNL     1       4.006   5.588  19.009  0.00  0.00    +0.000 N 
ATOM      5  C   UNL     1       4.551   4.499  18.372  0.00  0.00    +0.000 A 
ATOM      6  C   UNL     1       3.690   3.432  18.609  0.00  0.00    +0.000 A 
ATOM      7  C   UNL     1       3.883   2.001  18.219  0.00  0.00    +0.000 C 
ATOM      8  H   UNL     1       4.454   6.496  19.027  0.00  0.00    +0.000 HD
ENDROOT
BRANCH   5   9
ATOM      9  C   UNL     1       5.830   4.605  17.693  0.00  0.00    +0.000 C 
ATOM     10  O   UNL     1       6.895   4.384  18.260  0.00  0.00    +0.000 OA
ATOM     11  N   UNL     1       5.766   5.017  16.387  0.00  0.00    +0.000 N 
ATOM     12  H   UNL     1       4.925   5.481  16.070  0.00  0.00    +0.000 HD
BRANCH  11  13
ATOM     13  C   UNL     1       6.950   5.144  15.574  0.00  0.00    +0.000 C 
BRANCH  13  14
ATOM     14  C   UNL     1       6.678   4.584  14.227  0.00  0.00    +0.000 A 
ATOM     15  C   UNL     1       5.732   3.709  13.731  0.00  0.00    +0.000 A 
ATOM     16  C   UNL     1       6.014   3.552  12.352  0.00  0.00    +0.000 A 
ATOM     17  C   UNL     1       7.104   4.346  12.090  0.00  0.00    +0.000 A 
ATOM     18  O   UNL     1       7.514   4.980  13.219  0.00  0.00    +0.000 OA
ENDBRANCH  13  14
ENDBRANCH  11  13
ENDBRANCH   5   9
BRANCH   1  20
ATOM     19  C   UNL     1       1.170   2.800  21.252  0.00  0.00    +0.000 C 
ATOM     20  C   UNL     1       1.406   3.103  19.799  0.00  0.00    +0.000 C 
ATOM     21  O   UNL     1       0.613   2.638  18.974  0.00  0.00    +0.000 OA
ENDBRANCH   1  20
TORSDOF 4
ENDMDL
MODEL 3
REMARK VINA RESULT:      -7.0      1.771      2.425
REMARK  Name = 
REMARK  7 active torsions:
REMARK  status: ('A' for Active; 'I' for Inactive)
REMARK    1  A    between atoms: C_1  and  C_2
REMARK    2  A    between atoms: C_2  and  C_4
REMARK    3  A    between atoms: C_5  and  C_6
REMARK    4  A    between atoms: C_8  and  C_9
REMARK    5  A    between atoms: N_11  and  C_12
REMARK    6  A    between atoms: C_12  and  C_13
REMARK    7  A    between atoms: C_18  and  C_19
REMARK                            x       y       z     vdW  Elec       q    Type
REMARK                         _______ _______ _______ _____ _____    ______ ____
ROOT
ATOM      1  C   UNL     1       3.088   3.114  19.480  0.00  0.00    +0.000 A 
ATOM      2  C   UNL     1       4.363   2.601  19.703  0.00  0.00    +0.000 A 
ATOM      3  C   UNL     1       4.925   1.532  20.576  0.00  0.00    +0.000 C 
ATOM      4  N   UNL     1       5.233   3.288  18.886  0.00  0.00    +0.000 N 
ATOM      5  C   UNL     1       4.588   4.259  18.158  0.00  0.00    +0.000 A 
ATOM      6  C   UNL     1       3.236   4.155  18.473  0.00  0.00    +0.000 A 
ATOM      7  C   UNL     1       2.098   4.916  17.871  0.00  0.00    +0.000 C 
ATOM      8  H   UNL     1       6.229   3.120  18.817  0.00  0.00    +0.000 HD
ENDROOT
BRANCH   5   9
ATOM      9  C   UNL     1       5.324   5.095  17.227  0.00  0.00    +0.000 C 
ATOM     10  O   UNL     1       5.006   6.257  16.996  0.00  0.00    +0.000 OA
ATOM     11  N   UNL     1       6.370   4.479  16.589  0.00  0.00    +0.000 N 
ATOM     12  H   UNL     1       6.394   3.469  16.570  0.00  0.00    +0.000 HD
BRANCH  11  13
ATOM     13  C   UNL     1       7.210   5.188  15.655  0.00  0.00    +0.000 C 
BRANCH  13  14
ATOM     14  C   UNL     1       6.946   4.683  14.284  0.00  0.00    +0.000 A 
ATOM     15  C   UNL     1       6.072   3.750  13.763  0.00  0.00    +0.000 A 
ATOM     16  C   UNL     1       6.320   3.701  12.370  0.00  0.00    +0.000 A 
ATOM     17  C   UNL     1       7.320   4.612  12.126  0.00  0.00    +0.000 A 
ATOM     18  O   UNL     1       7.706   5.216  13.279  0.00  0.00    +0.000 OA
ENDBRANCH  13  14
ENDBRANCH  11  13
ENDBRANCH   5   9
BRANCH   1  20
ATOM     19  C   UNL     1       1.429   3.162  21.476  0.00  0.00    +0.000 C 
ATOM     20  C   UNL     1       1.800   2.717  20.090  0.00  0.00    +0.000 C 
ATOM     21  O   UNL     1       0.998   2.008  19.474  0.00  0.00    +0.000 OA
ENDBRANCH   1  20
TORSDOF 4
ENDMDL
MODEL 4
REMARK VINA RESULT:      -6.9      1.692      1.728
REMARK  Name = 
REMARK  7 active torsions:
REMARK  status: ('A' for Active; 'I' for Inactive)
REMARK    1  A    between atoms: C_1  and  C_2
REMARK    2  A    between atoms: C_2  and  C_4
REMARK    3  A    between atoms: C_5  and  C_6
REMARK    4  A    between atoms: C_8  and  C_9
REMARK    5  A    between atoms: N_11  and  C_12
REMARK    6  A    between atoms: C_12  and  C_13
REMARK    7  A    between atoms: C_18  and  C_19
REMARK                            x       y       z     vdW  Elec       q    Type
REMARK                         _______ _______ _______ _____ _____    ______ ____
ROOT
ATOM      1  C   UNL     1       2.208   4.280  19.192  0.00  0.00    +0.000 A 
ATOM      2  C   UNL     1       2.254   5.607  19.611  0.00  0.00    +0.000 A 
ATOM      3  C   UNL     1       1.539   6.404  20.647  0.00  0.00    +0.000 C 
ATOM      4  N   UNL     1       3.206   6.247  18.849  0.00  0.00    +0.000 N 
ATOM      5  C   UNL     1       3.765   5.404  17.919  0.00  0.00    +0.000 A 
ATOM      6  C   UNL     1       3.194   4.153  18.129  0.00  0.00    +0.000 A 
ATOM      7  C   UNL     1       3.541   2.867  17.447  0.00  0.00    +0.000 C 
ATOM      8  H   UNL     1       3.473   7.220  18.940  0.00  0.00    +0.000 HD
ENDROOT
BRANCH   5   9
ATOM      9  C   UNL     1       4.798   5.881  17.016  0.00  0.00    +0.000 C 
ATOM     10  O   UNL     1       4.686   6.926  16.385  0.00  0.00    +0.000 OA
ATOM     11  N   UNL     1       5.885   5.055  16.884  0.00  0.00    +0.000 N 
ATOM     12  H   UNL     1       5.791   4.088  17.165  0.00  0.00    +0.000 HD
BRANCH  11  13
ATOM     13  C   UNL     1       7.003   5.405  16.044  0.00  0.00    +0.000 C 
BRANCH  13  14
ATOM     14  C   UNL     1       6.807   4.806  14.699  0.00  0.00    +0.000 A 
ATOM     15  C   UNL     1       5.993   3.803  14.212  0.00  0.00    +0.000 A 
ATOM     16  C   UNL     1       6.287   3.682  12.832  0.00  0.00    +0.000 A 
ATOM     17  C   UNL     1       7.252   4.623  12.561  0.00  0.00    +0.000 A 
ATOM     18  O   UNL     1       7.573   5.313  13.686  0.00  0.00    +0.000 OA
ENDBRANCH  13  14
ENDBRANCH  11  13
ENDBRANCH   5   9
BRANCH   1  20
ATOM     19  C   UNL     1       1.463   2.711  21.121  0.00  0.00    +0.000 C 
ATOM     20  C   UNL     1       1.370   3.169  19.693  0.00  0.00    +0.000 C 
ATOM     21  O   UNL     1       0.573   2.589  18.949  0.00  0.00    +0.000 OA
ENDBRANCH   1  20
TORSDOF 4
ENDMDL
MODEL 5
REMARK VINA RESULT:      -6.8      0.944      1.154
REMARK  Name = 
REMARK  7 active torsions:
REMARK  status: ('A' for Active; 'I' for Inactive)
REMARK    1  A    between atoms: C_1  and  C_2
REMARK    2  A    between atoms: C_2  and  C_4
REMARK    3  A    between atoms: C_5  and  C_6
REMARK    4  A    between atoms: C_8  and  C_9
REMARK    5  A    between atoms: N_11  and  C_12
REMARK    6  A    between atoms: C_12  and  C_13
REMARK    7  A    between atoms: C_18  and  C_19
REMARK                            x       y       z     vdW  Elec       q    Type
REMARK                         _______ _______ _______ _____ _____    ______ ____
ROOT
ATOM      1  C   UNL     1       2.992   4.352  20.075  0.00  0.00    +0.000 A 
ATOM      2  C   UNL     1       3.053   5.695  19.713  0.00  0.00    +0.000 A 
ATOM      3  C   UNL     1       2.171   6.878  19.920  0.00  0.00    +0.000 C 
ATOM      4  N   UNL     1       4.229   5.882  19.021  0.00  0.00    +0.000 N 
ATOM      5  C   UNL     1       4.930   4.708  18.881  0.00  0.00    +0.000 A 
ATOM      6  C   UNL     1       4.206   3.734  19.563  0.00  0.00    +0.000 A 
ATOM      7  C   UNL     1       4.594   2.309  19.801  0.00  0.00    +0.000 C 
ATOM      8  H   UNL     1       4.556   6.765  18.646  0.00  0.00    +0.000 HD
ENDROOT
BRANCH   5   9
ATOM      9  C   UNL     1       6.204   4.686  18.186  0.00  0.00    +0.000 C 
ATOM     10  O   UNL     1       7.271   4.542  18.775  0.00  0.00    +0.000 OA
ATOM     11  N   UNL     1       6.135   4.887  16.831  0.00  0.00    +0.000 N 
ATOM     12  H   UNL     1       5.298   5.307  16.450  0.00  0.00    +0.000 HD
BRANCH  11  13
ATOM     13  C   UNL     1       7.314   4.867  16.002  0.00  0.00    +0.000 C 
BRANCH  13  14
ATOM     14  C   UNL     1       6.924   4.525  14.611  0.00  0.00    +0.000 A 
ATOM     15  C   UNL     1       7.441   4.842  13.370  0.00  0.00    +0.000 A 
ATOM     16  C   UNL     1       6.600   4.221  12.415  0.00  0.00    +0.000 A 
ATOM     17  C   UNL     1       5.632   3.557  13.129  0.00  0.00    +0.000 A 
ATOM     18  O   UNL     1       5.820   3.732  14.463  0.00  0.00    +0.000 OA
ENDBRANCH  13  14
ENDBRANCH  11  13
ENDBRANCH   5   9
BRANCH   1  20
ATOM     19  C   UNL     1       0.697   3.143  20.173  0.00  0.00    +0.000 C 
ATOM     20  C   UNL     1       1.948   3.637  20.842  0.00  0.00    +0.000 C 
ATOM     21  O   UNL     1       2.079   3.431  22.053  0.00  0.00    +0.000 OA
ENDBRANCH   1  20
TORSDOF 4
ENDMDL
MODEL 6
REMARK VINA RESULT:      -6.7      1.746      2.564
REMARK  Name = 
REMARK  7 active torsions:
REMARK  status: ('A' for Active; 'I' for Inactive)
REMARK    1  A    between atoms: C_1  and  C_2
REMARK    2  A    between atoms: C_2  and  C_4
REMARK    3  A    between atoms: C_5  and  C_6
REMARK    4  A    between atoms: C_8  and  C_9
REMARK    5  A    between atoms: N_11  and  C_12
REMARK    6  A    between atoms: C_12  and  C_13
REMARK    7  A    between atoms: C_18  and  C_19
REMARK                            x       y       z     vdW  Elec       q    Type
REMARK                         _______ _______ _______ _____ _____    ______ ____
ROOT
ATOM      1  C   UNL     1       2.813   3.670  19.353  0.00  0.00    +0.000 A 
ATOM      2  C   UNL     1       3.477   2.626  18.716  0.00  0.00    +0.000 A 
ATOM      3  C   UNL     1       3.438   1.140  18.820  0.00  0.00    +0.000 C 
ATOM      4  N   UNL     1       4.335   3.184  17.795  0.00  0.00    +0.000 N 
ATOM      5  C   UNL     1       4.289   4.557  17.823  0.00  0.00    +0.000 A 
ATOM      6  C   UNL     1       3.318   4.899  18.759  0.00  0.00    +0.000 A 
ATOM      7  C   UNL     1       2.811   6.267  19.089  0.00  0.00    +0.000 C 
ATOM      8  H   UNL     1       4.940   2.667  17.167  0.00  0.00    +0.000 HD
ENDROOT
BRANCH   5   9
ATOM      9  C   UNL     1       5.114   5.343  16.923  0.00  0.00    +0.000 C 
ATOM     10  O   UNL     1       4.842   6.501  16.626  0.00  0.00    +0.000 OA
ATOM     11  N   UNL     1       6.192   4.682  16.392  0.00  0.00    +0.000 N 
ATOM     12  H   UNL     1       6.194   3.671  16.411  0.00  0.00    +0.000 HD
BRANCH  11  13
ATOM     13  C   UNL     1       7.118   5.338  15.502  0.00  0.00    +0.000 C 
BRANCH  13  14
ATOM     14  C   UNL     1       6.952   4.785  14.134  0.00  0.00    +0.000 A 
ATOM     15  C   UNL     1       6.158   3.792  13.597  0.00  0.00    +0.000 A 
ATOM     16  C   UNL     1       6.478   3.723  12.219  0.00  0.00    +0.000 A 
ATOM     17  C   UNL     1       7.437   4.682  11.999  0.00  0.00    +0.000 A 
ATOM     18  O   UNL     1       7.731   5.335  13.153  0.00  0.00    +0.000 OA
ENDBRANCH  13  14
ENDBRANCH  11  13
ENDBRANCH   5   9
BRANCH   1  20
ATOM     19  C   UNL     1       2.105   3.115  21.789  0.00  0.00    +0.000 C 
ATOM     20  C   UNL     1       1.778   3.614  20.409  0.00  0.00    +0.000 C 
ATOM     21  O   UNL     1       0.619   3.975  20.183  0.00  0.00    +0.000 OA
ENDBRANCH   1  20
TORSDOF 4
ENDMDL
MODEL 7
REMARK VINA RESULT:      -6.7      3.571      5.683
REMARK  Name = 
REMARK  7 active torsions:
REMARK  status: ('A' for Active; 'I' for Inactive)
REMARK    1  A    between atoms: C_1  and  C_2
REMARK    2  A    between atoms: C_2  and  C_4
REMARK    3  A    between atoms: C_5  and  C_6
REMARK    4  A    between atoms: C_8  and  C_9
REMARK    5  A    between atoms: N_11  and  C_12
REMARK    6  A    between atoms: C_12  and  C_13
REMARK    7  A    between atoms: C_18  and  C_19
REMARK                            x       y       z     vdW  Elec       q    Type
REMARK                         _______ _______ _______ _____ _____    ______ ____
ROOT
ATOM      1  C   UNL     1       0.897   9.744  20.223  0.00  0.00    +0.000 A 
ATOM      2  C   UNL     1       0.903   8.946  21.364  0.00  0.00    +0.000 A 
ATOM      3  C   UNL     1       0.409   9.110  22.761  0.00  0.00    +0.000 C 
ATOM      4  N   UNL     1       1.512   7.756  21.033  0.00  0.00    +0.000 N 
ATOM      5  C   UNL     1       1.940   7.750  19.727  0.00  0.00    +0.000 A 
ATOM      6  C   UNL     1       1.537   8.963  19.175  0.00  0.00    +0.000 A 
ATOM      7  C   UNL     1       1.669   9.406  17.752  0.00  0.00    +0.000 C 
ATOM      8  H   UNL     1       1.644   6.971  21.658  0.00  0.00    +0.000 HD
ENDROOT
BRANCH   5   9
ATOM      9  C   UNL     1       2.604   6.584  19.172  0.00  0.00    +0.000 C 
ATOM     10  O   UNL     1       2.263   6.079  18.108  0.00  0.00    +0.000 OA
ATOM     11  N   UNL     1       3.607   6.060  19.946  0.00  0.00    +0.000 N 
ATOM     12  H   UNL     1       3.636   6.305  20.927  0.00  0.00    +0.000 HD
BRANCH  11  13
ATOM     13  C   UNL     1       4.375   4.917  19.517  0.00  0.00    +0.000 C 
BRANCH  13  14
ATOM     14  C   UNL     1       5.688   5.381  19.002  0.00  0.00    +0.000 A 
ATOM     15  C   UNL     1       6.100   5.949  17.813  0.00  0.00    +0.000 A 
ATOM     16  C   UNL     1       7.497   6.148  17.925  0.00  0.00    +0.000 A 
ATOM     17  C   UNL     1       7.849   5.700  19.176  0.00  0.00    +0.000 A 
ATOM     18  O   UNL     1       6.760   5.235  19.840  0.00  0.00    +0.000 OA
ENDBRANCH  13  14
ENDBRANCH  11  13
ENDBRANCH   5   9
BRANCH   1  20
ATOM     19  C   UNL     1      -1.075  11.317  19.609  0.00  0.00    +0.000 C 
ATOM     20  C   UNL     1       0.350  11.105  20.037  0.00  0.00    +0.000 C 
ATOM     21  O   UNL     1       1.052  12.103  20.227  0.00  0.00    +0.000 OA
ENDBRANCH   1  20
TORSDOF 4
ENDMDL
MODEL 8
REMARK VINA RESULT:      -6.6      1.746      2.733
REMARK  Name = 
REMARK  7 active torsions:
REMARK  status: ('A' for Active; 'I' for Inactive)
REMARK    1  A    between atoms: C_1  and  C_2
REMARK    2  A    between atoms: C_2  and  C_4
REMARK    3  A    between atoms: C_5  and  C_6
REMARK    4  A    between atoms: C_8  and  C_9
REMARK    5  A    between atoms: N_11  and  C_12
REMARK    6  A    between atoms: C_12  and  C_13
REMARK    7  A    between atoms: C_18  and  C_19
REMARK                            x       y       z     vdW  Elec       q    Type
REMARK                         _______ _______ _______ _____ _____    ______ ____
ROOT
ATOM      1  C   UNL     1       3.386   4.365  19.497  0.00  0.00    +0.000 A 
ATOM      2  C   UNL     1       4.308   3.325  19.574  0.00  0.00    +0.000 A 
ATOM      3  C   UNL     1       4.428   2.088  20.396  0.00  0.00    +0.000 C 
ATOM      4  N   UNL     1       5.289   3.574  18.639  0.00  0.00    +0.000 N 
ATOM      5  C   UNL     1       5.069   4.755  17.973  0.00  0.00    +0.000 A 
ATOM      6  C   UNL     1       3.865   5.260  18.455  0.00  0.00    +0.000 A 
ATOM      7  C   UNL     1       3.129   6.473  17.979  0.00  0.00    +0.000 C 
ATOM      8  H   UNL     1       6.086   2.978  18.452  0.00  0.00    +0.000 HD
ENDROOT
BRANCH   5   9
ATOM      9  C   UNL     1       5.984   5.202  16.938  0.00  0.00    +0.000 C 
ATOM     10  O   UNL     1       6.604   6.257  17.021  0.00  0.00    +0.000 OA
ATOM     11  N   UNL     1       6.070   4.384  15.841  0.00  0.00    +0.000 N 
ATOM     12  H   UNL     1       5.328   3.716  15.679  0.00  0.00    +0.000 HD
BRANCH  11  13
ATOM     13  C   UNL     1       6.957   4.681  14.743  0.00  0.00    +0.000 C 
BRANCH  13  14
ATOM     14  C   UNL     1       6.409   4.082  13.500  0.00  0.00    +0.000 A 
ATOM     15  C   UNL     1       6.979   3.638  12.324  0.00  0.00    +0.000 A 
ATOM     16  C   UNL     1       5.913   3.186  11.507  0.00  0.00    +0.000 A 
ATOM     17  C   UNL     1       4.764   3.372  12.238  0.00  0.00    +0.000 A 
ATOM     18  O   UNL     1       5.052   3.912  13.450  0.00  0.00    +0.000 OA
ENDBRANCH  13  14
ENDBRANCH  11  13
ENDBRANCH   5   9
BRANCH   1  20
ATOM     19  C   UNL     1       1.000   3.597  20.174  0.00  0.00    +0.000 C 
ATOM     20  C   UNL     1       2.141   4.570  20.270  0.00  0.00    +0.000 C 
ATOM     21  O   UNL     1       2.009   5.548  21.012  0.00  0.00    +0.000 OA
ENDBRANCH   1  20
TORSDOF 4
ENDMDL
MODEL 9
REMARK VINA RESULT:      -6.6      1.052      1.276
REMARK  Name = 
REMARK  7 active torsions:
REMARK  status: ('A' for Active; 'I' for Inactive)
REMARK    1  A    between atoms: C_1  and  C_2
REMARK    2  A    between atoms: C_2  and  C_4
REMARK    3  A    between atoms: C_5  and  C_6
REMARK    4  A    between atoms: C_8  and  C_9
REMARK    5  A    between atoms: N_11  and  C_12
REMARK    6  A    between atoms: C_12  and  C_13
REMARK    7  A    between atoms: C_18  and  C_19
REMARK                            x       y       z     vdW  Elec       q    Type
REMARK                         _______ _______ _______ _____ _____    ______ ____
ROOT
ATOM      1  C   UNL     1       2.462   3.996  19.989  0.00  0.00    +0.000 A 
ATOM      2  C   UNL     1       2.602   5.376  20.099  0.00  0.00    +0.000 A 
ATOM      3  C   UNL     1       1.782   6.469  20.694  0.00  0.00    +0.000 C 
ATOM      4  N   UNL     1       3.796   5.719  19.505  0.00  0.00    +0.000 N 
ATOM      5  C   UNL     1       4.434   4.623  18.977  0.00  0.00    +0.000 A 
ATOM      6  C   UNL     1       3.649   3.519  19.295  0.00  0.00    +0.000 A 
ATOM      7  C   UNL     1       3.956   2.077  19.038  0.00  0.00    +0.000 C 
ATOM      8  H   UNL     1       4.175   6.656  19.447  0.00  0.00    +0.000 HD
ENDROOT
BRANCH   5   9
ATOM      9  C   UNL     1       5.716   4.765  18.310  0.00  0.00    +0.000 C 
ATOM     10  O   UNL     1       6.760   4.344  18.798  0.00  0.00    +0.000 OA
ATOM     11  N   UNL     1       5.684   5.444  17.119  0.00  0.00    +0.000 N 
ATOM     12  H   UNL     1       4.884   6.030  16.921  0.00  0.00    +0.000 HD
BRANCH  11  13
ATOM     13  C   UNL     1       6.873   5.642  16.328  0.00  0.00    +0.000 C 
BRANCH  13  14
ATOM     14  C   UNL     1       6.693   4.988  15.007  0.00  0.00    +0.000 A 
ATOM     15  C   UNL     1       7.450   4.944  13.853  0.00  0.00    +0.000 A 
ATOM     16  C   UNL     1       6.721   4.162  12.925  0.00  0.00    +0.000 A 
ATOM     17  C   UNL     1       5.574   3.769  13.570  0.00  0.00    +0.000 A 
ATOM     18  O   UNL     1       5.546   4.262  14.836  0.00  0.00    +0.000 OA
ENDBRANCH  13  14
ENDBRANCH  11  13
ENDBRANCH   5   9
BRANCH   1  20
ATOM     19  C   UNL     1       1.403   2.540  21.859  0.00  0.00    +0.000 C 
ATOM     20  C   UNL     1       1.370   3.124  20.475  0.00  0.00    +0.000 C 
ATOM     21  O   UNL     1       0.405   2.854  19.754  0.00  0.00    +0.000 OA
ENDBRANCH   1  20
TORSDOF 4
ENDMDL
