MODEL 1
REMARK VINA RESULT:      -8.1      0.000      0.000
REMARK  Name = 
REMARK  10 active torsions:
REMARK  status: ('A' for Active; 'I' for Inactive)
REMARK    1  A    between atoms: C_1  and  O_2
REMARK    2  A    between atoms: O_2  and  C_3
REMARK    3  A    between atoms: C_6  and  N_7
REMARK    4  A    between atoms: N_7  and  C_8
REMARK    5  A    between atoms: C_15  and  C_16
REMARK    6  A    between atoms: C_21  and  O_22
REMARK    7  A    between atoms: O_22  and  C_23
REMARK    8  A    between atoms: N_24  and  C_25
REMARK    9  A    between atoms: C_26  and  O_27
REMARK   10  A    between atoms: O_27  and  C_28
REMARK                            x       y       z     vdW  Elec       q    Type
REMARK                         _______ _______ _______ _____ _____    ______ ____
ROOT
ATOM      1  C   UNL     1       2.089   6.061  20.141  0.00  0.00    +0.000 A 
ATOM      2  N   UNL     1       1.095   5.315  20.715  0.00  0.00    +0.000 NA
ATOM      3  C   UNL     1       0.956   4.011  20.446  0.00  0.00    +0.000 A 
ATOM      4  C   UNL     1       1.780   3.305  19.601  0.00  0.00    +0.000 A 
ATOM      5  C   UNL     1       2.759   4.060  18.948  0.00  0.00    +0.000 A 
ATOM      6  C   UNL     1       2.909   5.431  19.164  0.00  0.00    +0.000 A 
ATOM      7  C   UNL     1       3.946   5.855  18.276  0.00  0.00    +0.000 A 
ATOM      8  C   UNL     1       4.381   4.776  17.509  0.00  0.00    +0.000 A 
ATOM      9  N   UNL     1       3.742   3.669  18.054  0.00  0.00    +0.000 N 
ATOM     10  C   UNL     1       4.023   2.265  17.817  0.00  0.00    +0.000 C 
ENDROOT
BRANCH   8  11
ATOM     11  C   UNL     1       5.309   4.748  16.347  0.00  0.00    +0.000 A 
ATOM     12  C   UNL     1       4.797   4.345  15.095  0.00  0.00    +0.000 A 
ATOM     13  C   UNL     1       5.609   4.209  13.969  0.00  0.00    +0.000 A 
ATOM     14  C   UNL     1       6.953   4.534  14.055  0.00  0.00    +0.000 A 
ATOM     15  C   UNL     1       7.474   5.014  15.256  0.00  0.00    +0.000 A 
ATOM     16  C   UNL     1       6.666   5.145  16.403  0.00  0.00    +0.000 A 
BRANCH  16  17
ATOM     17  O   UNL     1       7.170   5.612  17.593  0.00  0.00    +0.000 OA
ATOM     18  C   UNL     1       7.531   6.993  17.616  0.00  0.00    +0.000 C 
ENDBRANCH  16  17
ENDBRANCH   8  11
BRANCH   1  19
ATOM     19  N   UNL     1       2.247   7.392  20.564  0.00  0.00    +0.000 N 
ATOM     20  H   UNL     1       2.503   7.498  21.537  0.00  0.00    +0.000 HD
BRANCH  19  24
ATOM     21  C   UNL     1       0.137  10.756  19.066  0.00  0.00    +0.000 A 
ATOM     22  C   UNL     1       0.893   9.960  18.213  0.00  0.00    +0.000 A 
ATOM     23  C   UNL     1       1.575   8.854  18.716  0.00  0.00    +0.000 A 
ATOM     24  C   UNL     1       1.516   8.504  20.077  0.00  0.00    +0.000 A 
ATOM     25  C   UNL     1       0.727   9.304  20.931  0.00  0.00    +0.000 A 
ATOM     26  C   UNL     1       0.057  10.426  20.421  0.00  0.00    +0.000 A 
BRANCH  21  28
ATOM     27  C   UNL     1      -0.458  13.055  19.150  0.00  0.00    +0.000 C 
ATOM     28  O   UNL     1      -0.478  11.815  18.456  0.00  0.00    +0.000 OA
ENDBRANCH  21  28
BRANCH  25  29
ATOM     29  O   UNL     1       0.670   8.914  22.255  0.00  0.00    +0.000 OA
ATOM     30  C   UNL     1      -0.232   9.631  23.095  0.00  0.00    +0.000 C 
ENDBRANCH  25  29
ENDBRANCH  19  24
ENDBRANCH   1  19
TORSDOF 6
ENDMDL
MODEL 2
REMARK VINA RESULT:      -7.7      1.162      1.878
REMARK  Name = 
REMARK  10 active torsions:
REMARK  status: ('A' for Active; 'I' for Inactive)
REMARK    1  A    between atoms: C_1  and  O_2
REMARK    2  A    between atoms: O_2  and  C_3
REMARK    3  A    between atoms: C_6  and  N_7
REMARK    4  A    between atoms: N_7  and  C_8
REMARK    5  A    between atoms: C_15  and  C_16
REMARK    6  A    between atoms: C_21  and  O_22
REMARK    7  A    between atoms: O_22  and  C_23
REMARK    8  A    between atoms: N_24  and  C_25
REMARK    9  A    between atoms: C_26  and  O_27
REMARK   10  A    between atoms: O_27  and  C_28
REMARK                            x       y       z     vdW  Elec       q    Type
REMARK                         _______ _______ _______ _____ _____    ______ ____
ROOT
ATOM      1  C   UNL     1       1.876   5.615  20.431  0.00  0.00    +0.000 A 
ATOM      2  N   UNL     1       0.777   4.887  20.800  0.00  0.00    +0.000 NA
ATOM      3  C   UNL     1       0.564   3.654  20.322  0.00  0.00    +0.000 A 
ATOM      4  C   UNL     1       1.408   3.007  19.450  0.00  0.00    +0.000 A 
ATOM      5  C   UNL     1       2.500   3.758  19.004  0.00  0.00    +0.000 A 
ATOM      6  C   UNL     1       2.734   5.063  19.440  0.00  0.00    +0.000 A 
ATOM      7  C   UNL     1       3.881   5.516  18.716  0.00  0.00    +0.000 A 
ATOM      8  C   UNL     1       4.301   4.526  17.831  0.00  0.00    +0.000 A 
ATOM      9  N   UNL     1       3.530   3.414  18.144  0.00  0.00    +0.000 N 
ATOM     10  C   UNL     1       3.723   2.040  17.718  0.00  0.00    +0.000 C 
ENDROOT
BRANCH   8  11
ATOM     11  C   UNL     1       5.331   4.584  16.759  0.00  0.00    +0.000 A 
ATOM     12  C   UNL     1       4.894   4.661  15.419  0.00  0.00    +0.000 A 
ATOM     13  C   UNL     1       5.783   4.637  14.345  0.00  0.00    +0.000 A 
ATOM     14  C   UNL     1       7.146   4.595  14.589  0.00  0.00    +0.000 A 
ATOM     15  C   UNL     1       7.615   4.601  15.902  0.00  0.00    +0.000 A 
ATOM     16  C   UNL     1       6.725   4.614  16.995  0.00  0.00    +0.000 A 
BRANCH  16  17
ATOM     17  O   UNL     1       7.176   4.616  18.294  0.00  0.00    +0.000 OA
ATOM     18  C   UNL     1       7.698   5.856  18.770  0.00  0.00    +0.000 C 
ENDBRANCH  16  17
ENDBRANCH   8  11
BRANCH   1  19
ATOM     19  N   UNL     1       2.095   6.850  21.066  0.00  0.00    +0.000 N 
ATOM     20  H   UNL     1       2.516   6.784  21.983  0.00  0.00    +0.000 HD
BRANCH  19  24
ATOM     21  C   UNL     1      -0.411  10.252  20.674  0.00  0.00    +0.000 A 
ATOM     22  C   UNL     1      -0.468   9.461  21.816  0.00  0.00    +0.000 A 
ATOM     23  C   UNL     1       0.366   8.352  21.936  0.00  0.00    +0.000 A 
ATOM     24  C   UNL     1       1.283   8.003  20.929  0.00  0.00    +0.000 A 
ATOM     25  C   UNL     1       1.351   8.825  19.783  0.00  0.00    +0.000 A 
ATOM     26  C   UNL     1       0.496   9.931  19.662  0.00  0.00    +0.000 A 
BRANCH  21  28
ATOM     27  C   UNL     1      -0.809  12.529  20.124  0.00  0.00    +0.000 C 
ATOM     28  O   UNL     1      -1.283  11.306  20.671  0.00  0.00    +0.000 OA
ENDBRANCH  21  28
BRANCH  25  29
ATOM     29  O   UNL     1       2.282   8.468  18.827  0.00  0.00    +0.000 OA
ATOM     30  C   UNL     1       2.078   8.980  17.513  0.00  0.00    +0.000 C 
ENDBRANCH  25  29
ENDBRANCH  19  24
ENDBRANCH   1  19
TORSDOF 6
ENDMDL
MODEL 3
REMARK VINA RESULT:      -7.6      1.427      1.643
REMARK  Name = 
REMARK  10 active torsions:
REMARK  status: ('A' for Active; 'I' for Inactive)
REMARK    1  A    between atoms: C_1  and  O_2
REMARK    2  A    between atoms: O_2  and  C_3
REMARK    3  A    between atoms: C_6  and  N_7
REMARK    4  A    between atoms: N_7  and  C_8
REMARK    5  A    between atoms: C_15  and  C_16
REMARK    6  A    between atoms: C_21  and  O_22
REMARK    7  A    between atoms: O_22  and  C_23
REMARK    8  A    between atoms: N_24  and  C_25
REMARK    9  A    between atoms: C_26  and  O_27
REMARK   10  A    between atoms: O_27  and  C_28
REMARK                            x       y       z     vdW  Elec       q    Type
REMARK                         _______ _______ _______ _____ _____    ______ ____
ROOT
ATOM      1  C   UNL     1       2.051   7.641  19.603  0.00  0.00    +0.000 A 
ATOM      2  N   UNL     1       1.280   7.095  20.593  0.00  0.00    +0.000 NA
ATOM      3  C   UNL     1       1.440   5.823  20.981  0.00  0.00    +0.000 A 
ATOM      4  C   UNL     1       2.376   4.966  20.450  0.00  0.00    +0.000 A 
ATOM      5  C   UNL     1       3.127   5.480  19.389  0.00  0.00    +0.000 A 
ATOM      6  C   UNL     1       2.959   6.785  18.922  0.00  0.00    +0.000 A 
ATOM      7  C   UNL     1       3.836   6.913  17.799  0.00  0.00    +0.000 A 
ATOM      8  C   UNL     1       4.483   5.701  17.566  0.00  0.00    +0.000 A 
ATOM      9  N   UNL     1       4.141   4.898  18.647  0.00  0.00    +0.000 N 
ATOM     10  C   UNL     1       4.734   3.636  19.049  0.00  0.00    +0.000 C 
ENDROOT
BRANCH   8  11
ATOM     11  C   UNL     1       5.350   5.290  16.429  0.00  0.00    +0.000 A 
ATOM     12  C   UNL     1       4.751   4.612  15.345  0.00  0.00    +0.000 A 
ATOM     13  C   UNL     1       5.495   4.116  14.275  0.00  0.00    +0.000 A 
ATOM     14  C   UNL     1       6.861   4.341  14.234  0.00  0.00    +0.000 A 
ATOM     15  C   UNL     1       7.473   5.078  15.248  0.00  0.00    +0.000 A 
ATOM     16  C   UNL     1       6.732   5.574  16.339  0.00  0.00    +0.000 A 
BRANCH  16  17
ATOM     17  O   UNL     1       7.326   6.297  17.346  0.00  0.00    +0.000 OA
ATOM     18  C   UNL     1       7.794   5.541  18.462  0.00  0.00    +0.000 C 
ENDBRANCH  16  17
ENDBRANCH   8  11
BRANCH   1  19
ATOM     19  N   UNL     1       1.908   9.014  19.334  0.00  0.00    +0.000 N 
ATOM     20  H   UNL     1       2.657   9.594  19.689  0.00  0.00    +0.000 HD
BRANCH  19  24
ATOM     21  C   UNL     1      -1.743  11.154  19.012  0.00  0.00    +0.000 A 
ATOM     22  C   UNL     1      -1.273  10.395  17.946  0.00  0.00    +0.000 A 
ATOM     23  C   UNL     1      -0.077   9.692  18.067  0.00  0.00    +0.000 A 
ATOM     24  C   UNL     1       0.679   9.715  19.252  0.00  0.00    +0.000 A 
ATOM     25  C   UNL     1       0.183  10.468  20.338  0.00  0.00    +0.000 A 
ATOM     26  C   UNL     1      -1.014  11.188  20.203  0.00  0.00    +0.000 A 
BRANCH  21  28
ATOM     27  C   UNL     1      -3.608  11.463  17.572  0.00  0.00    +0.000 C 
ATOM     28  O   UNL     1      -2.921  11.804  18.769  0.00  0.00    +0.000 OA
ENDBRANCH  21  28
BRANCH  25  29
ATOM     29  O   UNL     1       0.937  10.445  21.495  0.00  0.00    +0.000 OA
ATOM     30  C   UNL     1       0.348   9.816  22.630  0.00  0.00    +0.000 C 
ENDBRANCH  25  29
ENDBRANCH  19  24
ENDBRANCH   1  19
TORSDOF 6
ENDMDL
MODEL 4
REMARK VINA RESULT:      -7.5      1.772      6.902
REMARK  Name = 
REMARK  10 active torsions:
REMARK  status: ('A' for Active; 'I' for Inactive)
REMARK    1  A    between atoms: C_1  and  O_2
REMARK    2  A    between atoms: O_2  and  C_3
REMARK    3  A    between atoms: C_6  and  N_7
REMARK    4  A    between atoms: N_7  and  C_8
REMARK    5  A    between atoms: C_15  and  C_16
REMARK    6  A    between atoms: C_21  and  O_22
REMARK    7  A    between atoms: O_22  and  C_23
REMARK    8  A    between atoms: N_24  and  C_25
REMARK    9  A    between atoms: C_26  and  O_27
REMARK   10  A    between atoms: O_27  and  C_28
REMARK                            x       y       z     vdW  Elec       q    Type
REMARK                         _______ _______ _______ _____ _____    ______ ____
ROOT
ATOM      1  C   UNL     1       4.956   3.617  19.469  0.00  0.00    +0.000 A 
ATOM      2  N   UNL     1       4.797   2.483  20.218  0.00  0.00    +0.000 NA
ATOM      3  C   UNL     1       3.667   2.247  20.896  0.00  0.00    +0.000 A 
ATOM      4  C   UNL     1       2.578   3.087  20.899  0.00  0.00    +0.000 A 
ATOM      5  C   UNL     1       2.743   4.285  20.198  0.00  0.00    +0.000 A 
ATOM      6  C   UNL     1       3.922   4.592  19.516  0.00  0.00    +0.000 A 
ATOM      7  C   UNL     1       3.739   5.912  18.996  0.00  0.00    +0.000 A 
ATOM      8  C   UNL     1       2.499   6.408  19.394  0.00  0.00    +0.000 A 
ATOM      9  N   UNL     1       1.859   5.331  19.994  0.00  0.00    +0.000 N 
ATOM     10  C   UNL     1       0.458   5.208  20.354  0.00  0.00    +0.000 C 
ENDROOT
BRANCH   8  11
ATOM     11  C   UNL     1       1.931   7.775  19.248  0.00  0.00    +0.000 A 
ATOM     12  C   UNL     1       1.783   8.300  17.946  0.00  0.00    +0.000 A 
ATOM     13  C   UNL     1       1.338   9.601  17.716  0.00  0.00    +0.000 A 
ATOM     14  C   UNL     1       0.970  10.395  18.789  0.00  0.00    +0.000 A 
ATOM     15  C   UNL     1       1.026   9.880  20.083  0.00  0.00    +0.000 A 
ATOM     16  C   UNL     1       1.484   8.570  20.329  0.00  0.00    +0.000 A 
BRANCH  16  17
ATOM     17  O   UNL     1       1.548   8.053  21.602  0.00  0.00    +0.000 OA
ATOM     18  C   UNL     1       1.141   8.932  22.651  0.00  0.00    +0.000 C 
ENDBRANCH  16  17
ENDBRANCH   8  11
BRANCH   1  19
ATOM     19  N   UNL     1       6.119   3.738  18.689  0.00  0.00    +0.000 N 
ATOM     20  H   UNL     1       6.821   3.030  18.864  0.00  0.00    +0.000 HD
BRANCH  19  24
ATOM     21  C   UNL     1       7.783   7.428  17.413  0.00  0.00    +0.000 A 
ATOM     22  C   UNL     1       8.016   6.956  18.700  0.00  0.00    +0.000 A 
ATOM     23  C   UNL     1       7.471   5.740  19.104  0.00  0.00    +0.000 A 
ATOM     24  C   UNL     1       6.687   4.956  18.239  0.00  0.00    +0.000 A 
ATOM     25  C   UNL     1       6.475   5.431  16.926  0.00  0.00    +0.000 A 
ATOM     26  C   UNL     1       7.013   6.666  16.532  0.00  0.00    +0.000 A 
BRANCH  21  28
ATOM     27  C   UNL     1       8.493   9.547  18.221  0.00  0.00    +0.000 C 
ATOM     28  O   UNL     1       8.364   8.636  17.139  0.00  0.00    +0.000 OA
ENDBRANCH  21  28
BRANCH  25  29
ATOM     29  O   UNL     1       5.723   4.623  16.096  0.00  0.00    +0.000 OA
ATOM     30  C   UNL     1       6.326   4.237  14.863  0.00  0.00    +0.000 C 
ENDBRANCH  25  29
ENDBRANCH  19  24
ENDBRANCH   1  19
TORSDOF 6
ENDMDL
MODEL 5
REMARK VINA RESULT:      -7.4      1.127      2.189
REMARK  Name = 
REMARK  10 active torsions:
REMARK  status: ('A' for Active; 'I' for Inactive)
REMARK    1  A    between atoms: C_1  and  O_2
REMARK    2  A    between atoms: O_2  and  C_3
REMARK    3  A    between atoms: C_6  and  N_7
REMARK    4  A    between atoms: N_7  and  C_8
REMARK    5  A    between atoms: C_15  and  C_16
REMARK    6  A    between atoms: C_21  and  O_22
REMARK    7  A    between atoms: O_22  and  C_23
REMARK    8  A    between atoms: N_24  and  C_25
REMARK    9  A    between atoms: C_26  and  O_27
REMARK   10  A    between atoms: O_27  and  C_28
REMARK                            x       y       z     vdW  Elec       q    Type
REMARK                         _______ _______ _______ _____ _____    ______ ____
ROOT
ATOM      1  C   UNL     1       2.039   6.736  19.954  0.00  0.00    +0.000 A 
ATOM      2  N   UNL     1       1.154   6.025  20.717  0.00  0.00    +0.000 NA
ATOM      3  C   UNL     1       1.176   4.686  20.747  0.00  0.00    +0.000 A 
ATOM      4  C   UNL     1       2.070   3.912  20.045  0.00  0.00    +0.000 A 
ATOM      5  C   UNL     1       2.939   4.614  19.204  0.00  0.00    +0.000 A 
ATOM      6  C   UNL     1       2.919   6.007  19.107  0.00  0.00    +0.000 A 
ATOM      7  C   UNL     1       3.884   6.342  18.106  0.00  0.00    +0.000 A 
ATOM      8  C   UNL     1       4.440   5.178  17.578  0.00  0.00    +0.000 A 
ATOM      9  N   UNL     1       3.952   4.153  18.379  0.00  0.00    +0.000 N 
ATOM     10  C   UNL     1       4.403   2.775  18.445  0.00  0.00    +0.000 C 
ENDROOT
BRANCH   8  11
ATOM     11  C   UNL     1       5.349   5.003  16.415  0.00  0.00    +0.000 A 
ATOM     12  C   UNL     1       4.805   4.501  15.213  0.00  0.00    +0.000 A 
ATOM     13  C   UNL     1       5.594   4.226  14.097  0.00  0.00    +0.000 A 
ATOM     14  C   UNL     1       6.950   4.505  14.136  0.00  0.00    +0.000 A 
ATOM     15  C   UNL     1       7.506   5.077  15.279  0.00  0.00    +0.000 A 
ATOM     16  C   UNL     1       6.721   5.349  16.416  0.00  0.00    +0.000 A 
BRANCH  16  17
ATOM     17  O   UNL     1       7.260   5.909  17.551  0.00  0.00    +0.000 OA
ATOM     18  C   UNL     1       7.547   7.305  17.479  0.00  0.00    +0.000 C 
ENDBRANCH  16  17
ENDBRANCH   8  11
BRANCH   1  19
ATOM     19  N   UNL     1       2.035   8.137  20.068  0.00  0.00    +0.000 N 
ATOM     20  H   UNL     1       2.948   8.569  20.000  0.00  0.00    +0.000 HD
BRANCH  19  24
ATOM     21  C   UNL     1      -0.672  10.338  22.484  0.00  0.00    +0.000 A 
ATOM     22  C   UNL     1       0.305   9.538  23.067  0.00  0.00    +0.000 A 
ATOM     23  C   UNL     1       1.192   8.827  22.263  0.00  0.00    +0.000 A 
ATOM     24  C   UNL     1       1.139   8.898  20.859  0.00  0.00    +0.000 A 
ATOM     25  C   UNL     1       0.160   9.731  20.276  0.00  0.00    +0.000 A 
ATOM     26  C   UNL     1      -0.742  10.431  21.092  0.00  0.00    +0.000 A 
BRANCH  21  28
ATOM     27  C   UNL     1      -1.854  12.316  23.065  0.00  0.00    +0.000 C 
ATOM     28  O   UNL     1      -1.487  10.979  23.376  0.00  0.00    +0.000 OA
ENDBRANCH  21  28
BRANCH  25  29
ATOM     29  O   UNL     1       0.156   9.798  18.896  0.00  0.00    +0.000 OA
ATOM     30  C   UNL     1      -0.203  11.050  18.318  0.00  0.00    +0.000 C 
ENDBRANCH  25  29
ENDBRANCH  19  24
ENDBRANCH   1  19
TORSDOF 6
ENDMDL
MODEL 6
REMARK VINA RESULT:      -7.4      1.699      7.346
REMARK  Name = 
REMARK  10 active torsions:
REMARK  status: ('A' for Active; 'I' for Inactive)
REMARK    1  A    between atoms: C_1  and  O_2
REMARK    2  A    between atoms: O_2  and  C_3
REMARK    3  A    between atoms: C_6  and  N_7
REMARK    4  A    between atoms: N_7  and  C_8
REMARK    5  A    between atoms: C_15  and  C_16
REMARK    6  A    between atoms: C_21  and  O_22
REMARK    7  A    between atoms: O_22  and  C_23
REMARK    8  A    between atoms: N_24  and  C_25
REMARK    9  A    between atoms: C_26  and  O_27
REMARK   10  A    between atoms: O_27  and  C_28
REMARK                            x       y       z     vdW  Elec       q    Type
REMARK                         _______ _______ _______ _____ _____    ______ ____
ROOT
ATOM      1  C   UNL     1       5.180   3.870  19.378  0.00  0.00    +0.000 A 
ATOM      2  N   UNL     1       5.055   2.706  20.087  0.00  0.00    +0.000 NA
ATOM      3  C   UNL     1       3.919   2.394  20.723  0.00  0.00    +0.000 A 
ATOM      4  C   UNL     1       2.791   3.180  20.719  0.00  0.00    +0.000 A 
ATOM      5  C   UNL     1       2.917   4.407  20.060  0.00  0.00    +0.000 A 
ATOM      6  C   UNL     1       4.098   4.792  19.424  0.00  0.00    +0.000 A 
ATOM      7  C   UNL     1       3.866   6.118  18.940  0.00  0.00    +0.000 A 
ATOM      8  C   UNL     1       2.592   6.540  19.315  0.00  0.00    +0.000 A 
ATOM      9  N   UNL     1       1.989   5.416  19.862  0.00  0.00    +0.000 N 
ATOM     10  C   UNL     1       0.586   5.214  20.176  0.00  0.00    +0.000 C 
ENDROOT
BRANCH   8  11
ATOM     11  C   UNL     1       1.962   7.883  19.195  0.00  0.00    +0.000 A 
ATOM     12  C   UNL     1       1.782   8.421  17.902  0.00  0.00    +0.000 A 
ATOM     13  C   UNL     1       1.277   9.704  17.695  0.00  0.00    +0.000 A 
ATOM     14  C   UNL     1       0.881  10.464  18.783  0.00  0.00    +0.000 A 
ATOM     15  C   UNL     1       0.969   9.932  20.069  0.00  0.00    +0.000 A 
ATOM     16  C   UNL     1       1.488   8.641  20.291  0.00  0.00    +0.000 A 
BRANCH  16  17
ATOM     17  O   UNL     1       1.584   8.107  21.555  0.00  0.00    +0.000 OA
ATOM     18  C   UNL     1       1.196   8.969  22.624  0.00  0.00    +0.000 C 
ENDBRANCH  16  17
ENDBRANCH   8  11
BRANCH   1  19
ATOM     19  N   UNL     1       6.357   4.072  18.637  0.00  0.00    +0.000 N 
ATOM     20  H   UNL     1       7.089   4.564  19.133  0.00  0.00    +0.000 HD
BRANCH  19  24
ATOM     21  C   UNL     1       6.587   4.605  14.433  0.00  0.00    +0.000 A 
ATOM     22  C   UNL     1       5.827   3.574  14.973  0.00  0.00    +0.000 A 
ATOM     23  C   UNL     1       5.754   3.414  16.355  0.00  0.00    +0.000 A 
ATOM     24  C   UNL     1       6.426   4.279  17.237  0.00  0.00    +0.000 A 
ATOM     25  C   UNL     1       7.175   5.338  16.681  0.00  0.00    +0.000 A 
ATOM     26  C   UNL     1       7.259   5.482  15.288  0.00  0.00    +0.000 A 
BRANCH  21  28
ATOM     27  C   UNL     1       6.227   3.461  12.382  0.00  0.00    +0.000 C 
ATOM     28  O   UNL     1       6.587   4.653  13.066  0.00  0.00    +0.000 OA
ENDBRANCH  21  28
BRANCH  25  29
ATOM     29  O   UNL     1       7.799   6.184  17.577  0.00  0.00    +0.000 OA
ATOM     30  C   UNL     1       7.535   7.577  17.432  0.00  0.00    +0.000 C 
ENDBRANCH  25  29
ENDBRANCH  19  24
ENDBRANCH   1  19
TORSDOF 6
ENDMDL
MODEL 7
REMARK VINA RESULT:      -7.3      1.762      2.258
REMARK  Name = 
REMARK  10 active torsions:
REMARK  status: ('A' for Active; 'I' for Inactive)
REMARK    1  A    between atoms: C_1  and  O_2
REMARK    2  A    between atoms: O_2  and  C_3
REMARK    3  A    between atoms: C_6  and  N_7
REMARK    4  A    between atoms: N_7  and  C_8
REMARK    5  A    between atoms: C_15  and  C_16
REMARK    6  A    between atoms: C_21  and  O_22
REMARK    7  A    between atoms: O_22  and  C_23
REMARK    8  A    between atoms: N_24  and  C_25
REMARK    9  A    between atoms: C_26  and  O_27
REMARK   10  A    between atoms: O_27  and  C_28
REMARK                            x       y       z     vdW  Elec       q    Type
REMARK                         _______ _______ _______ _____ _____    ______ ____
ROOT
ATOM      1  C   UNL     1       1.841   8.075  19.240  0.00  0.00    +0.000 A 
ATOM      2  N   UNL     1       1.086   7.618  20.286  0.00  0.00    +0.000 NA
ATOM      3  C   UNL     1       1.329   6.431  20.856  0.00  0.00    +0.000 A 
ATOM      4  C   UNL     1       2.338   5.580  20.469  0.00  0.00    +0.000 A 
ATOM      5  C   UNL     1       3.078   5.994  19.357  0.00  0.00    +0.000 A 
ATOM      6  C   UNL     1       2.828   7.203  18.704  0.00  0.00    +0.000 A 
ATOM      7  C   UNL     1       3.723   7.236  17.589  0.00  0.00    +0.000 A 
ATOM      8  C   UNL     1       4.463   6.056  17.543  0.00  0.00    +0.000 A 
ATOM      9  N   UNL     1       4.152   5.392  18.722  0.00  0.00    +0.000 N 
ATOM     10  C   UNL     1       4.824   4.249  19.311  0.00  0.00    +0.000 C 
ENDROOT
BRANCH   8  11
ATOM     11  C   UNL     1       5.387   5.555  16.491  0.00  0.00    +0.000 A 
ATOM     12  C   UNL     1       4.827   4.955  15.343  0.00  0.00    +0.000 A 
ATOM     13  C   UNL     1       5.614   4.383  14.344  0.00  0.00    +0.000 A 
ATOM     14  C   UNL     1       6.994   4.452  14.441  0.00  0.00    +0.000 A 
ATOM     15  C   UNL     1       7.580   5.110  15.522  0.00  0.00    +0.000 A 
ATOM     16  C   UNL     1       6.795   5.681  16.542  0.00  0.00    +0.000 A 
BRANCH  16  17
ATOM     17  O   UNL     1       7.362   6.328  17.615  0.00  0.00    +0.000 OA
ATOM     18  C   UNL     1       7.617   7.721  17.436  0.00  0.00    +0.000 C 
ENDBRANCH  16  17
ENDBRANCH   8  11
BRANCH   1  19
ATOM     19  N   UNL     1       1.606   9.381  18.775  0.00  0.00    +0.000 N 
ATOM     20  H   UNL     1       2.363  10.031  18.941  0.00  0.00    +0.000 HD
BRANCH  19  24
ATOM     21  C   UNL     1      -2.158  11.329  18.551  0.00  0.00    +0.000 A 
ATOM     22  C   UNL     1      -1.837  10.310  17.661  0.00  0.00    +0.000 A 
ATOM     23  C   UNL     1      -0.601   9.674  17.750  0.00  0.00    +0.000 A 
ATOM     24  C   UNL     1       0.344  10.025  18.730  0.00  0.00    +0.000 A 
ATOM     25  C   UNL     1       0.001  11.044  19.644  0.00  0.00    +0.000 A 
ATOM     26  C   UNL     1      -1.239  11.693  19.538  0.00  0.00    +0.000 A 
BRANCH  21  28
ATOM     27  C   UNL     1      -4.394  11.038  17.800  0.00  0.00    +0.000 C 
ATOM     28  O   UNL     1      -3.395  11.881  18.358  0.00  0.00    +0.000 OA
ENDBRANCH  21  28
BRANCH  25  29
ATOM     29  O   UNL     1       0.942  11.344  20.610  0.00  0.00    +0.000 OA
ATOM     30  C   UNL     1       1.651  12.571  20.452  0.00  0.00    +0.000 C 
ENDBRANCH  25  29
ENDBRANCH  19  24
ENDBRANCH   1  19
TORSDOF 6
ENDMDL
MODEL 8
REMARK VINA RESULT:      -7.1      1.812      7.476
REMARK  Name = 
REMARK  10 active torsions:
REMARK  status: ('A' for Active; 'I' for Inactive)
REMARK    1  A    between atoms: C_1  and  O_2
REMARK    2  A    between atoms: O_2  and  C_3
REMARK    3  A    between atoms: C_6  and  N_7
REMARK    4  A    between atoms: N_7  and  C_8
REMARK    5  A    between atoms: C_15  and  C_16
REMARK    6  A    between atoms: C_21  and  O_22
REMARK    7  A    between atoms: O_22  and  C_23
REMARK    8  A    between atoms: N_24  and  C_25
REMARK    9  A    between atoms: C_26  and  O_27
REMARK   10  A    between atoms: O_27  and  C_28
REMARK                            x       y       z     vdW  Elec       q    Type
REMARK                         _______ _______ _______ _____ _____    ______ ____
ROOT
ATOM      1  C   UNL     1       5.149   3.900  19.243  0.00  0.00    +0.000 A 
ATOM      2  N   UNL     1       5.098   2.592  19.642  0.00  0.00    +0.000 NA
ATOM      3  C   UNL     1       4.001   2.078  20.211  0.00  0.00    +0.000 A 
ATOM      4  C   UNL     1       2.843   2.785  20.435  0.00  0.00    +0.000 A 
ATOM      5  C   UNL     1       2.895   4.142  20.101  0.00  0.00    +0.000 A 
ATOM      6  C   UNL     1       4.035   4.729  19.549  0.00  0.00    +0.000 A 
ATOM      7  C   UNL     1       3.732   6.121  19.419  0.00  0.00    +0.000 A 
ATOM      8  C   UNL     1       2.458   6.376  19.923  0.00  0.00    +0.000 A 
ATOM      9  N   UNL     1       1.921   5.123  20.188  0.00  0.00    +0.000 N 
ATOM     10  C   UNL     1       0.540   4.783  20.480  0.00  0.00    +0.000 C 
ENDROOT
BRANCH   8  11
ATOM     11  C   UNL     1       1.772   7.674  20.160  0.00  0.00    +0.000 A 
ATOM     12  C   UNL     1       1.513   8.057  21.494  0.00  0.00    +0.000 A 
ATOM     13  C   UNL     1       0.803   9.214  21.810  0.00  0.00    +0.000 A 
ATOM     14  C   UNL     1       0.384  10.056  20.793  0.00  0.00    +0.000 A 
ATOM     15  C   UNL     1       0.695   9.750  19.469  0.00  0.00    +0.000 A 
ATOM     16  C   UNL     1       1.402   8.578  19.137  0.00  0.00    +0.000 A 
BRANCH  16  17
ATOM     17  O   UNL     1       1.710   8.264  17.834  0.00  0.00    +0.000 OA
ATOM     18  C   UNL     1       2.971   8.737  17.362  0.00  0.00    +0.000 C 
ENDBRANCH  16  17
ENDBRANCH   8  11
BRANCH   1  19
ATOM     19  N   UNL     1       6.288   4.335  18.544  0.00  0.00    +0.000 N 
ATOM     20  H   UNL     1       6.829   5.046  19.019  0.00  0.00    +0.000 HD
BRANCH  19  24
ATOM     21  C   UNL     1       6.664   4.507  14.320  0.00  0.00    +0.000 A 
ATOM     22  C   UNL     1       5.820   3.578  14.916  0.00  0.00    +0.000 A 
ATOM     23  C   UNL     1       5.700   3.536  16.303  0.00  0.00    +0.000 A 
ATOM     24  C   UNL     1       6.407   4.423  17.135  0.00  0.00    +0.000 A 
ATOM     25  C   UNL     1       7.244   5.379  16.520  0.00  0.00    +0.000 A 
ATOM     26  C   UNL     1       7.374   5.403  15.123  0.00  0.00    +0.000 A 
BRANCH  21  28
ATOM     27  C   UNL     1       6.024   3.356  12.343  0.00  0.00    +0.000 C 
ATOM     28  O   UNL     1       6.703   4.444  12.954  0.00  0.00    +0.000 OA
ENDBRANCH  21  28
BRANCH  25  29
ATOM     29  O   UNL     1       7.902   6.251  17.366  0.00  0.00    +0.000 OA
ATOM     30  C   UNL     1       7.377   7.573  17.456  0.00  0.00    +0.000 C 
ENDBRANCH  25  29
ENDBRANCH  19  24
ENDBRANCH   1  19
TORSDOF 6
ENDMDL
MODEL 9
REMARK VINA RESULT:      -7.0      4.555     10.698
REMARK  Name = 
REMARK  10 active torsions:
REMARK  status: ('A' for Active; 'I' for Inactive)
REMARK    1  A    between atoms: C_1  and  O_2
REMARK    2  A    between atoms: O_2  and  C_3
REMARK    3  A    between atoms: C_6  and  N_7
REMARK    4  A    between atoms: N_7  and  C_8
REMARK    5  A    between atoms: C_15  and  C_16
REMARK    6  A    between atoms: C_21  and  O_22
REMARK    7  A    between atoms: O_22  and  C_23
REMARK    8  A    between atoms: N_24  and  C_25
REMARK    9  A    between atoms: C_26  and  O_27
REMARK   10  A    between atoms: O_27  and  C_28
REMARK                            x       y       z     vdW  Elec       q    Type
REMARK                         _______ _______ _______ _____ _____    ______ ____
ROOT
ATOM      1  C   UNL     1      -1.503  10.761  18.012  0.00  0.00    +0.000 A 
ATOM      2  N   UNL     1      -1.774   9.970  16.929  0.00  0.00    +0.000 NA
ATOM      3  C   UNL     1      -2.998   9.919  16.391  0.00  0.00    +0.000 A 
ATOM      4  C   UNL     1      -4.075  10.643  16.849  0.00  0.00    +0.000 A 
ATOM      5  C   UNL     1      -3.840  11.404  17.998  0.00  0.00    +0.000 A 
ATOM      6  C   UNL     1      -2.590  11.449  18.618  0.00  0.00    +0.000 A 
ATOM      7  C   UNL     1      -2.762  12.259  19.784  0.00  0.00    +0.000 A 
ATOM      8  C   UNL     1      -4.094  12.655  19.891  0.00  0.00    +0.000 A 
ATOM      9  N   UNL     1      -4.686  12.243  18.704  0.00  0.00    +0.000 N 
ATOM     10  C   UNL     1      -5.983  12.619  18.171  0.00  0.00    +0.000 C 
ENDROOT
BRANCH   8  11
ATOM     11  C   UNL     1      -4.792  13.354  21.003  0.00  0.00    +0.000 A 
ATOM     12  C   UNL     1      -4.397  14.674  21.312  0.00  0.00    +0.000 A 
ATOM     13  C   UNL     1      -4.935  15.378  22.389  0.00  0.00    +0.000 A 
ATOM     14  C   UNL     1      -5.933  14.797  23.152  0.00  0.00    +0.000 A 
ATOM     15  C   UNL     1      -6.405  13.526  22.824  0.00  0.00    +0.000 A 
ATOM     16  C   UNL     1      -5.861  12.801  21.745  0.00  0.00    +0.000 A 
BRANCH  16  17
ATOM     17  O   UNL     1      -6.315  11.545  21.416  0.00  0.00    +0.000 OA
ATOM     18  C   UNL     1      -7.729  11.411  21.282  0.00  0.00    +0.000 C 
ENDBRANCH  16  17
ENDBRANCH   8  11
BRANCH   1  19
ATOM     19  N   UNL     1      -0.169  10.856  18.446  0.00  0.00    +0.000 N 
ATOM     20  H   UNL     1       0.342  11.644  18.069  0.00  0.00    +0.000 HD
BRANCH  19  24
ATOM     21  C   UNL     1       2.336   7.535  19.287  0.00  0.00    +0.000 A 
ATOM     22  C   UNL     1       2.338   8.119  18.025  0.00  0.00    +0.000 A 
ATOM     23  C   UNL     1       1.517   9.213  17.764  0.00  0.00    +0.000 A 
ATOM     24  C   UNL     1       0.679   9.762  18.751  0.00  0.00    +0.000 A 
ATOM     25  C   UNL     1       0.701   9.179  20.036  0.00  0.00    +0.000 A 
ATOM     26  C   UNL     1       1.518   8.066  20.287  0.00  0.00    +0.000 A 
BRANCH  21  28
ATOM     27  C   UNL     1       3.194   5.527  18.349  0.00  0.00    +0.000 C 
ATOM     28  O   UNL     1       3.178   6.465  19.417  0.00  0.00    +0.000 OA
ENDBRANCH  21  28
BRANCH  25  29
ATOM     29  O   UNL     1      -0.114   9.761  20.987  0.00  0.00    +0.000 OA
ATOM     30  C   UNL     1       0.457   9.971  22.276  0.00  0.00    +0.000 C 
ENDBRANCH  25  29
ENDBRANCH  19  24
ENDBRANCH   1  19
TORSDOF 6
ENDMDL
