MODEL 1
REMARK VINA RESULT:      -8.3      0.000      0.000
REMARK  Name = 
REMARK  4 active torsions:
REMARK  status: ('A' for Active; 'I' for Inactive)
REMARK    1  A    between atoms: N_3  and  C_4
REMARK    2  A    between atoms: C_4  and  C_5
REMARK    3  A    between atoms: C_9  and  C_10
REMARK    4  A    between atoms: C_20  and  N_21
REMARK                            x       y       z     vdW  Elec       q    Type
REMARK                         _______ _______ _______ _____ _____    ______ ____
ROOT
ATOM      1  O   UNL     1       3.567   7.322  17.695  0.00  0.00    +0.000 OA
ATOM      2  C   UNL     1       2.900   7.260  18.722  0.00  0.00    +0.000 C 
ATOM      3  N   UNL     1       3.139   6.329  19.704  0.00  0.00    +0.000 N 
ATOM      4  N   UNL     1       1.861   8.114  19.001  0.00  0.00    +0.000 N 
ATOM      5  C   UNL     1       1.431   9.115  18.051  0.00  0.00    +0.000 C 
ATOM      6  C   UNL     1       1.108  10.334  18.894  0.00  0.00    +0.000 C 
ATOM      7  C   UNL     1       0.655   9.779  20.258  0.00  0.00    +0.000 C 
ATOM      8  C   UNL     1       1.349   8.397  20.329  0.00  0.00    +0.000 C 
ATOM      9  H   UNL     1       2.300   5.945  20.107  0.00  0.00    +0.000 HD
ENDROOT
BRANCH   7  10
ATOM     10  N   UNL     1       0.997  10.669  21.390  0.00  0.00    +0.000 NA
ATOM     11  C   UNL     1       0.781  10.064  22.712  0.00  0.00    +0.000 C 
ATOM     12  C   UNL     1      -0.694   9.884  23.064  0.00  0.00    +0.000 C 
ATOM     13  C   UNL     1      -1.502  11.167  22.886  0.00  0.00    +0.000 C 
ATOM     14  C   UNL     1      -1.158  11.923  21.603  0.00  0.00    +0.000 C 
ATOM     15  C   UNL     1       0.347  11.986  21.351  0.00  0.00    +0.000 C 
ENDBRANCH   7  10
BRANCH   3  16
ATOM     16  C   UNL     1       4.249   5.428  19.516  0.00  0.00    +0.000 C 
BRANCH  16  17
ATOM     17  C   UNL     1       3.824   4.084  19.032  0.00  0.00    +0.000 A 
ATOM     18  C   UNL     1       2.962   3.176  19.612  0.00  0.00    +0.000 A 
ATOM     19  N   UNL     1       2.871   2.124  18.757  0.00  0.00    +0.000 N 
ATOM     20  N   UNL     1       3.605   2.267  17.654  0.00  0.00    +0.000 NA
ATOM     21  C   UNL     1       4.237   3.450  17.805  0.00  0.00    +0.000 A 
ATOM     22  H   UNL     1       2.320   1.277  18.857  0.00  0.00    +0.000 HD
BRANCH  21  23
ATOM     23  C   UNL     1       5.170   3.918  16.773  0.00  0.00    +0.000 A 
ATOM     24  C   UNL     1       6.476   4.302  17.117  0.00  0.00    +0.000 A 
ATOM     25  C   UNL     1       7.368   4.763  16.147  0.00  0.00    +0.000 A 
ATOM     26  C   UNL     1       6.964   4.839  14.821  0.00  0.00    +0.000 A 
ATOM     27  F   UNL     1       7.816   5.279  13.889  0.00  0.00    +0.000 F 
ATOM     28  C   UNL     1       5.675   4.475  14.451  0.00  0.00    +0.000 A 
ATOM     29  C   UNL     1       4.779   4.032  15.427  0.00  0.00    +0.000 A 
ENDBRANCH  21  23
ENDBRANCH  16  17
ENDBRANCH   3  16
TORSDOF 4
ENDMDL
MODEL 2
REMARK VINA RESULT:      -7.8      2.480      4.056
REMARK  Name = 
REMARK  4 active torsions:
REMARK  status: ('A' for Active; 'I' for Inactive)
REMARK    1  A    between atoms: N_3  and  C_4
REMARK    2  A    between atoms: C_4  and  C_5
REMARK    3  A    between atoms: C_9  and  C_10
REMARK    4  A    between atoms: C_20  and  N_21
REMARK                            x       y       z     vdW  Elec       q    Type
REMARK                         _______ _______ _______ _____ _____    ______ ____
ROOT
ATOM      1  O   UNL     1       3.832   7.528  17.179  0.00  0.00    +0.000 OA
ATOM      2  C   UNL     1       3.328   7.310  18.275  0.00  0.00    +0.000 C 
ATOM      3  N   UNL     1       3.852   6.399  19.161  0.00  0.00    +0.000 N 
ATOM      4  N   UNL     1       2.205   7.956  18.733  0.00  0.00    +0.000 N 
ATOM      5  C   UNL     1       1.489   8.899  17.906  0.00  0.00    +0.000 C 
ATOM      6  C   UNL     1       1.077  10.009  18.855  0.00  0.00    +0.000 C 
ATOM      7  C   UNL     1       0.912   9.331  20.229  0.00  0.00    +0.000 C 
ATOM      8  C   UNL     1       1.835   8.092  20.129  0.00  0.00    +0.000 C 
ATOM      9  H   UNL     1       3.152   5.858  19.642  0.00  0.00    +0.000 HD
ENDROOT
BRANCH   7  10
ATOM     10  N   UNL     1       1.244  10.224  21.361  0.00  0.00    +0.000 NA
ATOM     11  C   UNL     1       1.087   9.598  22.681  0.00  0.00    +0.000 C 
ATOM     12  C   UNL     1      -0.371   9.353  23.068  0.00  0.00    +0.000 C 
ATOM     13  C   UNL     1      -1.235  10.603  22.923  0.00  0.00    +0.000 C 
ATOM     14  C   UNL     1      -0.956  11.384  21.640  0.00  0.00    +0.000 C 
ATOM     15  C   UNL     1       0.539  11.513  21.352  0.00  0.00    +0.000 C 
ENDBRANCH   7  10
BRANCH   3  16
ATOM     16  C   UNL     1       5.064   5.718  18.783  0.00  0.00    +0.000 C 
BRANCH  16  17
ATOM     17  C   UNL     1       4.816   4.564  17.872  0.00  0.00    +0.000 A 
ATOM     18  C   UNL     1       5.353   4.298  16.628  0.00  0.00    +0.000 A 
ATOM     19  N   UNL     1       4.844   3.103  16.231  0.00  0.00    +0.000 N 
ATOM     20  N   UNL     1       4.012   2.555  17.118  0.00  0.00    +0.000 NA
ATOM     21  C   UNL     1       3.942   3.447  18.129  0.00  0.00    +0.000 A 
ATOM     22  H   UNL     1       5.026   2.595  15.371  0.00  0.00    +0.000 HD
BRANCH  21  23
ATOM     23  C   UNL     1       3.076   3.178  19.282  0.00  0.00    +0.000 A 
ATOM     24  C   UNL     1       1.704   3.476  19.226  0.00  0.00    +0.000 A 
ATOM     25  C   UNL     1       0.872   3.239  20.321  0.00  0.00    +0.000 A 
ATOM     26  C   UNL     1       1.402   2.695  21.483  0.00  0.00    +0.000 A 
ATOM     27  F   UNL     1       0.608   2.465  22.534  0.00  0.00    +0.000 F 
ATOM     28  C   UNL     1       2.757   2.399  21.573  0.00  0.00    +0.000 A 
ATOM     29  C   UNL     1       3.590   2.655  20.482  0.00  0.00    +0.000 A 
ENDBRANCH  21  23
ENDBRANCH  16  17
ENDBRANCH   3  16
TORSDOF 4
ENDMDL
MODEL 3
REMARK VINA RESULT:      -7.8      1.338      2.034
REMARK  Name = 
REMARK  4 active torsions:
REMARK  status: ('A' for Active; 'I' for Inactive)
REMARK    1  A    between atoms: N_3  and  C_4
REMARK    2  A    between atoms: C_4  and  C_5
REMARK    3  A    between atoms: C_9  and  C_10
REMARK    4  A    between atoms: C_20  and  N_21
REMARK                            x       y       z     vdW  Elec       q    Type
REMARK                         _______ _______ _______ _____ _____    ______ ____
ROOT
ATOM      1  O   UNL     1       3.156   7.269  18.616  0.00  0.00    +0.000 OA
ATOM      2  C   UNL     1       2.216   7.535  19.357  0.00  0.00    +0.000 C 
ATOM      3  N   UNL     1       1.834   6.715  20.391  0.00  0.00    +0.000 N 
ATOM      4  N   UNL     1       1.460   8.676  19.237  0.00  0.00    +0.000 N 
ATOM      5  C   UNL     1       1.682   9.620  18.166  0.00  0.00    +0.000 C 
ATOM      6  C   UNL     1       1.504  10.983  18.808  0.00  0.00    +0.000 C 
ATOM      7  C   UNL     1       0.498  10.765  19.955  0.00  0.00    +0.000 C 
ATOM      8  C   UNL     1       0.671   9.267  20.303  0.00  0.00    +0.000 C 
ATOM      9  H   UNL     1       0.836   6.641  20.498  0.00  0.00    +0.000 HD
ENDROOT
BRANCH   7  10
ATOM     10  N   UNL     1       0.725  11.668  21.106  0.00  0.00    +0.000 NA
ATOM     11  C   UNL     1      -0.312  11.586  22.143  0.00  0.00    +0.000 C 
ATOM     12  C   UNL     1      -1.652  12.180  21.710  0.00  0.00    +0.000 C 
ATOM     13  C   UNL     1      -1.514  13.594  21.151  0.00  0.00    +0.000 C 
ATOM     14  C   UNL     1      -0.321  13.758  20.212  0.00  0.00    +0.000 C 
ATOM     15  C   UNL     1       0.938  13.077  20.746  0.00  0.00    +0.000 C 
ENDBRANCH   7  10
BRANCH   3  16
ATOM     16  C   UNL     1       2.611   5.523  20.622  0.00  0.00    +0.000 C 
BRANCH  16  17
ATOM     17  C   UNL     1       2.075   4.337  19.896  0.00  0.00    +0.000 A 
ATOM     18  C   UNL     1       0.909   3.630  20.113  0.00  0.00    +0.000 A 
ATOM     19  N   UNL     1       0.853   2.666  19.157  0.00  0.00    +0.000 N 
ATOM     20  N   UNL     1       1.892   2.683  18.321  0.00  0.00    +0.000 NA
ATOM     21  C   UNL     1       2.686   3.679  18.768  0.00  0.00    +0.000 A 
ATOM     22  H   UNL     1       0.132   1.967  19.008  0.00  0.00    +0.000 HD
BRANCH  21  23
ATOM     23  C   UNL     1       3.956   3.962  18.090  0.00  0.00    +0.000 A 
ATOM     24  C   UNL     1       4.046   3.893  16.690  0.00  0.00    +0.000 A 
ATOM     25  C   UNL     1       5.252   4.145  16.035  0.00  0.00    +0.000 A 
ATOM     26  C   UNL     1       6.380   4.475  16.773  0.00  0.00    +0.000 A 
ATOM     27  F   UNL     1       7.537   4.719  16.148  0.00  0.00    +0.000 F 
ATOM     28  C   UNL     1       6.326   4.542  18.160  0.00  0.00    +0.000 A 
ATOM     29  C   UNL     1       5.122   4.271  18.814  0.00  0.00    +0.000 A 
ENDBRANCH  21  23
ENDBRANCH  16  17
ENDBRANCH   3  16
TORSDOF 4
ENDMDL
MODEL 4
REMARK VINA RESULT:      -7.7      3.861      9.300
REMARK  Name = 
REMARK  4 active torsions:
REMARK  status: ('A' for Active; 'I' for Inactive)
REMARK    1  A    between atoms: N_3  and  C_4
REMARK    2  A    between atoms: C_4  and  C_5
REMARK    3  A    between atoms: C_9  and  C_10
REMARK    4  A    between atoms: C_20  and  N_21
REMARK                            x       y       z     vdW  Elec       q    Type
REMARK                         _______ _______ _______ _____ _____    ______ ____
ROOT
ATOM      1  O   UNL     1       2.335   9.293  17.023  0.00  0.00    +0.000 OA
ATOM      2  C   UNL     1       2.145   8.720  18.091  0.00  0.00    +0.000 C 
ATOM      3  N   UNL     1       1.249   9.178  19.026  0.00  0.00    +0.000 N 
ATOM      4  N   UNL     1       2.793   7.564  18.454  0.00  0.00    +0.000 N 
ATOM      5  C   UNL     1       3.814   6.977  17.617  0.00  0.00    +0.000 C 
ATOM      6  C   UNL     1       3.581   5.481  17.714  0.00  0.00    +0.000 C 
ATOM      7  C   UNL     1       2.972   5.253  19.111  0.00  0.00    +0.000 C 
ATOM      8  C   UNL     1       2.311   6.614  19.439  0.00  0.00    +0.000 C 
ATOM      9  H   UNL     1       1.578   9.092  19.974  0.00  0.00    +0.000 HD
ENDROOT
BRANCH   7  10
ATOM     10  N   UNL     1       2.028   4.114  19.155  0.00  0.00    +0.000 NA
ATOM     11  C   UNL     1       1.226   4.049  20.384  0.00  0.00    +0.000 C 
ATOM     12  C   UNL     1       2.036   3.659  21.619  0.00  0.00    +0.000 C 
ATOM     13  C   UNL     1       2.856   2.389  21.406  0.00  0.00    +0.000 C 
ATOM     14  C   UNL     1       3.553   2.341  20.048  0.00  0.00    +0.000 C 
ATOM     15  C   UNL     1       2.642   2.801  18.911  0.00  0.00    +0.000 C 
ENDBRANCH   7  10
BRANCH   3  16
ATOM     16  C   UNL     1       0.484  10.355  18.700  0.00  0.00    +0.000 C 
BRANCH  16  17
ATOM     17  C   UNL     1       1.143  11.613  19.153  0.00  0.00    +0.000 A 
ATOM     18  C   UNL     1       2.223  12.281  18.610  0.00  0.00    +0.000 A 
ATOM     19  N   UNL     1       2.407  13.399  19.360  0.00  0.00    +0.000 N 
ATOM     20  N   UNL     1       1.531  13.524  20.357  0.00  0.00    +0.000 NA
ATOM     21  C   UNL     1       0.756  12.421  20.283  0.00  0.00    +0.000 A 
ATOM     22  H   UNL     1       3.106  14.126  19.246  0.00  0.00    +0.000 HD
BRANCH  21  23
ATOM     23  C   UNL     1      -0.314  12.211  21.265  0.00  0.00    +0.000 A 
ATOM     24  C   UNL     1      -1.416  13.080  21.314  0.00  0.00    +0.000 A 
ATOM     25  C   UNL     1      -2.432  12.900  22.253  0.00  0.00    +0.000 A 
ATOM     26  C   UNL     1      -2.360  11.843  23.150  0.00  0.00    +0.000 A 
ATOM     27  F   UNL     1      -3.333  11.666  24.051  0.00  0.00    +0.000 F 
ATOM     28  C   UNL     1      -1.278  10.972  23.134  0.00  0.00    +0.000 A 
ATOM     29  C   UNL     1      -0.253  11.166  22.205  0.00  0.00    +0.000 A 
ENDBRANCH  21  23
ENDBRANCH  16  17
ENDBRANCH   3  16
TORSDOF 4
ENDMDL
MODEL 5
REMARK VINA RESULT:      -7.7      0.687      1.210
REMARK  Name = 
REMARK  4 active torsions:
REMARK  status: ('A' for Active; 'I' for Inactive)
REMARK    1  A    between atoms: N_3  and  C_4
REMARK    2  A    between atoms: C_4  and  C_5
REMARK    3  A    between atoms: C_9  and  C_10
REMARK    4  A    between atoms: C_20  and  N_21
REMARK                            x       y       z     vdW  Elec       q    Type
REMARK                         _______ _______ _______ _____ _____    ______ ____
ROOT
ATOM      1  O   UNL     1       3.290   7.596  17.795  0.00  0.00    +0.000 OA
ATOM      2  C   UNL     1       2.541   7.597  18.767  0.00  0.00    +0.000 C 
ATOM      3  N   UNL     1       2.611   6.645  19.755  0.00  0.00    +0.000 N 
ATOM      4  N   UNL     1       1.572   8.549  18.972  0.00  0.00    +0.000 N 
ATOM      5  C   UNL     1       1.318   9.588  18.000  0.00  0.00    +0.000 C 
ATOM      6  C   UNL     1       1.049  10.832  18.827  0.00  0.00    +0.000 C 
ATOM      7  C   UNL     1       0.439  10.321  20.147  0.00  0.00    +0.000 C 
ATOM      8  C   UNL     1       0.987   8.877  20.258  0.00  0.00    +0.000 C 
ATOM      9  H   UNL     1       1.710   6.345  20.088  0.00  0.00    +0.000 HD
ENDROOT
BRANCH   7  10
ATOM     10  N   UNL     1       0.776  11.171  21.310  0.00  0.00    +0.000 NA
ATOM     11  C   UNL     1       0.072  10.799  22.545  0.00  0.00    +0.000 C 
ATOM     12  C   UNL     1      -1.421  11.120  22.514  0.00  0.00    +0.000 C 
ATOM     13  C   UNL     1      -1.703  12.565  22.111  0.00  0.00    +0.000 C 
ATOM     14  C   UNL     1      -0.843  13.044  20.943  0.00  0.00    +0.000 C 
ATOM     15  C   UNL     1       0.617  12.614  21.081  0.00  0.00    +0.000 C 
ENDBRANCH   7  10
BRANCH   3  16
ATOM     16  C   UNL     1       3.639   5.641  19.646  0.00  0.00    +0.000 C 
BRANCH  16  17
ATOM     17  C   UNL     1       3.143   4.372  19.043  0.00  0.00    +0.000 A 
ATOM     18  C   UNL     1       2.111   3.551  19.453  0.00  0.00    +0.000 A 
ATOM     19  N   UNL     1       2.028   2.545  18.545  0.00  0.00    +0.000 N 
ATOM     20  N   UNL     1       2.924   2.638  17.562  0.00  0.00    +0.000 NA
ATOM     21  C   UNL     1       3.654   3.734  17.856  0.00  0.00    +0.000 A 
ATOM     22  H   UNL     1       1.378   1.765  18.526  0.00  0.00    +0.000 HD
BRANCH  21  23
ATOM     23  C   UNL     1       4.770   4.124  16.987  0.00  0.00    +0.000 A 
ATOM     24  C   UNL     1       4.566   4.321  15.611  0.00  0.00    +0.000 A 
ATOM     25  C   UNL     1       5.622   4.677  14.772  0.00  0.00    +0.000 A 
ATOM     26  C   UNL     1       6.894   4.847  15.301  0.00  0.00    +0.000 A 
ATOM     27  F   UNL     1       7.909   5.190  14.500  0.00  0.00    +0.000 F 
ATOM     28  C   UNL     1       7.131   4.650  16.656  0.00  0.00    +0.000 A 
ATOM     29  C   UNL     1       6.075   4.274  17.490  0.00  0.00    +0.000 A 
ENDBRANCH  21  23
ENDBRANCH  16  17
ENDBRANCH   3  16
TORSDOF 4
ENDMDL
MODEL 6
REMARK VINA RESULT:      -7.7      1.727      2.751
REMARK  Name = 
REMARK  4 active torsions:
REMARK  status: ('A' for Active; 'I' for Inactive)
REMARK    1  A    between atoms: N_3  and  C_4
REMARK    2  A    between atoms: C_4  and  C_5
REMARK    3  A    between atoms: C_9  and  C_10
REMARK    4  A    between atoms: C_20  and  N_21
REMARK                            x       y       z     vdW  Elec       q    Type
REMARK                         _______ _______ _______ _____ _____    ______ ____
ROOT
ATOM      1  O   UNL     1       2.176  10.071  17.613  0.00  0.00    +0.000 OA
ATOM      2  C   UNL     1       1.408   9.743  18.511  0.00  0.00    +0.000 C 
ATOM      3  N   UNL     1       1.442   8.500  19.095  0.00  0.00    +0.000 N 
ATOM      4  N   UNL     1       0.449  10.580  19.028  0.00  0.00    +0.000 N 
ATOM      5  C   UNL     1       0.232  11.903  18.488  0.00  0.00    +0.000 C 
ATOM      6  C   UNL     1      -0.035  12.776  19.700  0.00  0.00    +0.000 C 
ATOM      7  C   UNL     1      -0.680  11.841  20.742  0.00  0.00    +0.000 C 
ATOM      8  C   UNL     1      -0.157  10.441  20.339  0.00  0.00    +0.000 C 
ATOM      9  H   UNL     1       0.529   8.121  19.286  0.00  0.00    +0.000 HD
ENDROOT
BRANCH   7  10
ATOM     10  N   UNL     1      -0.354  12.213  22.137  0.00  0.00    +0.000 NA
ATOM     11  C   UNL     1      -1.147  11.498  23.146  0.00  0.00    +0.000 C 
ATOM     12  C   UNL     1      -2.614  11.927  23.183  0.00  0.00    +0.000 C 
ATOM     13  C   UNL     1      -2.780  13.440  23.295  0.00  0.00    +0.000 C 
ATOM     14  C   UNL     1      -1.828  14.220  22.390  0.00  0.00    +0.000 C 
ATOM     15  C   UNL     1      -0.409  13.655  22.415  0.00  0.00    +0.000 C 
ENDBRANCH   7  10
BRANCH   3  16
ATOM     16  C   UNL     1       2.456   7.578  18.650  0.00  0.00    +0.000 C 
BRANCH  16  17
ATOM     17  C   UNL     1       2.585   6.389  19.539  0.00  0.00    +0.000 A 
ATOM     18  C   UNL     1       1.859   6.053  20.664  0.00  0.00    +0.000 A 
ATOM     19  N   UNL     1       2.330   4.852  21.089  0.00  0.00    +0.000 N 
ATOM     20  N   UNL     1       3.311   4.365  20.329  0.00  0.00    +0.000 NA
ATOM     21  C   UNL     1       3.521   5.303  19.383  0.00  0.00    +0.000 A 
ATOM     22  H   UNL     1       2.024   4.301  21.885  0.00  0.00    +0.000 HD
BRANCH  21  23
ATOM     23  C   UNL     1       4.572   5.107  18.378  0.00  0.00    +0.000 A 
ATOM     24  C   UNL     1       4.254   5.087  17.010  0.00  0.00    +0.000 A 
ATOM     25  C   UNL     1       5.243   4.887  16.046  0.00  0.00    +0.000 A 
ATOM     26  C   UNL     1       6.562   4.710  16.439  0.00  0.00    +0.000 A 
ATOM     27  F   UNL     1       7.512   4.520  15.517  0.00  0.00    +0.000 F 
ATOM     28  C   UNL     1       6.907   4.715  17.785  0.00  0.00    +0.000 A 
ATOM     29  C   UNL     1       5.912   4.897  18.749  0.00  0.00    +0.000 A 
ENDBRANCH  21  23
ENDBRANCH  16  17
ENDBRANCH   3  16
TORSDOF 4
ENDMDL
MODEL 7
REMARK VINA RESULT:      -7.6      3.544      8.461
REMARK  Name = 
REMARK  4 active torsions:
REMARK  status: ('A' for Active; 'I' for Inactive)
REMARK    1  A    between atoms: N_3  and  C_4
REMARK    2  A    between atoms: C_4  and  C_5
REMARK    3  A    between atoms: C_9  and  C_10
REMARK    4  A    between atoms: C_20  and  N_21
REMARK                            x       y       z     vdW  Elec       q    Type
REMARK                         _______ _______ _______ _____ _____    ______ ____
ROOT
ATOM      1  O   UNL     1       3.178   8.546  16.868  0.00  0.00    +0.000 OA
ATOM      2  C   UNL     1       2.908   7.952  17.907  0.00  0.00    +0.000 C 
ATOM      3  N   UNL     1       1.954   8.399  18.788  0.00  0.00    +0.000 N 
ATOM      4  N   UNL     1       3.518   6.781  18.287  0.00  0.00    +0.000 N 
ATOM      5  C   UNL     1       4.590   6.202  17.510  0.00  0.00    +0.000 C 
ATOM      6  C   UNL     1       4.336   4.706  17.556  0.00  0.00    +0.000 C 
ATOM      7  C   UNL     1       3.629   4.455  18.903  0.00  0.00    +0.000 C 
ATOM      8  C   UNL     1       2.960   5.815  19.215  0.00  0.00    +0.000 C 
ATOM      9  H   UNL     1       2.215   8.289  19.754  0.00  0.00    +0.000 HD
ENDROOT
BRANCH   7  10
ATOM     10  N   UNL     1       2.673   3.325  18.854  0.00  0.00    +0.000 NA
ATOM     11  C   UNL     1       1.279   3.711  19.112  0.00  0.00    +0.000 C 
ATOM     12  C   UNL     1       1.016   4.107  20.564  0.00  0.00    +0.000 C 
ATOM     13  C   UNL     1       1.510   3.058  21.557  0.00  0.00    +0.000 C 
ATOM     14  C   UNL     1       2.886   2.495  21.206  0.00  0.00    +0.000 C 
ATOM     15  C   UNL     1       3.025   2.188  19.716  0.00  0.00    +0.000 C 
ENDBRANCH   7  10
BRANCH   3  16
ATOM     16  C   UNL     1       1.225   9.592  18.437  0.00  0.00    +0.000 C 
BRANCH  16  17
ATOM     17  C   UNL     1       0.491  10.180  19.593  0.00  0.00    +0.000 A 
ATOM     18  C   UNL     1       0.920  10.393  20.888  0.00  0.00    +0.000 A 
ATOM     19  N   UNL     1      -0.105  10.995  21.545  0.00  0.00    +0.000 N 
ATOM     20  N   UNL     1      -1.181  11.198  20.784  0.00  0.00    +0.000 NA
ATOM     21  C   UNL     1      -0.863  10.675  19.581  0.00  0.00    +0.000 A 
ATOM     22  H   UNL     1      -0.139  11.302  22.512  0.00  0.00    +0.000 HD
BRANCH  21  23
ATOM     23  C   UNL     1      -1.846  10.697  18.492  0.00  0.00    +0.000 A 
ATOM     24  C   UNL     1      -1.670   9.885  17.359  0.00  0.00    +0.000 A 
ATOM     25  C   UNL     1      -2.589   9.908  16.309  0.00  0.00    +0.000 A 
ATOM     26  C   UNL     1      -3.699  10.739  16.384  0.00  0.00    +0.000 A 
ATOM     27  F   UNL     1      -4.583  10.762  15.380  0.00  0.00    +0.000 F 
ATOM     28  C   UNL     1      -3.895  11.561  17.487  0.00  0.00    +0.000 A 
ATOM     29  C   UNL     1      -2.963  11.550  18.527  0.00  0.00    +0.000 A 
ENDBRANCH  21  23
ENDBRANCH  16  17
ENDBRANCH   3  16
TORSDOF 4
ENDMDL
MODEL 8
REMARK VINA RESULT:      -7.6      1.970      3.284
REMARK  Name = 
REMARK  4 active torsions:
REMARK  status: ('A' for Active; 'I' for Inactive)
REMARK    1  A    between atoms: N_3  and  C_4
REMARK    2  A    between atoms: C_4  and  C_5
REMARK    3  A    between atoms: C_9  and  C_10
REMARK    4  A    between atoms: C_20  and  N_21
REMARK                            x       y       z     vdW  Elec       q    Type
REMARK                         _______ _______ _______ _____ _____    ______ ____
ROOT
ATOM      1  O   UNL     1       2.404  11.111  17.785  0.00  0.00    +0.000 OA
ATOM      2  C   UNL     1       1.460  10.765  18.487  0.00  0.00    +0.000 C 
ATOM      3  N   UNL     1       1.198   9.447  18.777  0.00  0.00    +0.000 N 
ATOM      4  N   UNL     1       0.581  11.651  19.060  0.00  0.00    +0.000 N 
ATOM      5  C   UNL     1       0.670  13.071  18.809  0.00  0.00    +0.000 C 
ATOM      6  C   UNL     1       0.360  13.720  20.146  0.00  0.00    +0.000 C 
ATOM      7  C   UNL     1      -0.586  12.739  20.865  0.00  0.00    +0.000 C 
ATOM      8  C   UNL     1      -0.240  11.373  20.224  0.00  0.00    +0.000 C 
ATOM      9  H   UNL     1       0.217   9.221  18.767  0.00  0.00    +0.000 HD
ENDROOT
BRANCH   7  10
ATOM     10  N   UNL     1      -0.430  12.756  22.337  0.00  0.00    +0.000 NA
ATOM     11  C   UNL     1      -1.231  11.740  23.034  0.00  0.00    +0.000 C 
ATOM     12  C   UNL     1      -2.731  12.027  23.010  0.00  0.00    +0.000 C 
ATOM     13  C   UNL     1      -3.067  13.440  23.481  0.00  0.00    +0.000 C 
ATOM     14  C   UNL     1      -2.125  14.503  22.919  0.00  0.00    +0.000 C 
ATOM     15  C   UNL     1      -0.661  14.065  22.963  0.00  0.00    +0.000 C 
ENDBRANCH   7  10
BRANCH   3  16
ATOM     16  C   UNL     1       2.107   8.455  18.261  0.00  0.00    +0.000 C 
BRANCH  16  17
ATOM     17  C   UNL     1       2.317   7.320  19.205  0.00  0.00    +0.000 A 
ATOM     18  C   UNL     1       1.822   7.138  20.481  0.00  0.00    +0.000 A 
ATOM     19  N   UNL     1       2.265   5.925  20.901  0.00  0.00    +0.000 N 
ATOM     20  N   UNL     1       3.013   5.288  20.001  0.00  0.00    +0.000 NA
ATOM     21  C   UNL     1       3.098   6.135  18.953  0.00  0.00    +0.000 A 
ATOM     22  H   UNL     1       2.089   5.463  21.788  0.00  0.00    +0.000 HD
BRANCH  21  23
ATOM     23  C   UNL     1       3.888   5.763  17.774  0.00  0.00    +0.000 A 
ATOM     24  C   UNL     1       3.985   4.419  17.378  0.00  0.00    +0.000 A 
ATOM     25  C   UNL     1       4.745   4.051  16.267  0.00  0.00    +0.000 A 
ATOM     26  C   UNL     1       5.412   5.025  15.536  0.00  0.00    +0.000 A 
ATOM     27  F   UNL     1       6.140   4.676  14.470  0.00  0.00    +0.000 F 
ATOM     28  C   UNL     1       5.343   6.362  15.908  0.00  0.00    +0.000 A 
ATOM     29  C   UNL     1       4.596   6.725  17.032  0.00  0.00    +0.000 A 
ENDBRANCH  21  23
ENDBRANCH  16  17
ENDBRANCH   3  16
TORSDOF 4
ENDMDL
MODEL 9
REMARK VINA RESULT:      -7.6      3.284      8.568
REMARK  Name = 
REMARK  4 active torsions:
REMARK  status: ('A' for Active; 'I' for Inactive)
REMARK    1  A    between atoms: N_3  and  C_4
REMARK    2  A    between atoms: C_4  and  C_5
REMARK    3  A    between atoms: C_9  and  C_10
REMARK    4  A    between atoms: C_20  and  N_21
REMARK                            x       y       z     vdW  Elec       q    Type
REMARK                         _______ _______ _______ _____ _____    ______ ____
ROOT
ATOM      1  O   UNL     1       2.047   9.570  17.290  0.00  0.00    +0.000 OA
ATOM      2  C   UNL     1       1.915   8.927  18.326  0.00  0.00    +0.000 C 
ATOM      3  N   UNL     1       1.038   9.296  19.318  0.00  0.00    +0.000 N 
ATOM      4  N   UNL     1       2.615   7.777  18.596  0.00  0.00    +0.000 N 
ATOM      5  C   UNL     1       3.625   7.279  17.691  0.00  0.00    +0.000 C 
ATOM      6  C   UNL     1       3.448   5.772  17.704  0.00  0.00    +0.000 C 
ATOM      7  C   UNL     1       2.897   5.439  19.105  0.00  0.00    +0.000 C 
ATOM      8  C   UNL     1       2.202   6.753  19.537  0.00  0.00    +0.000 C 
ATOM      9  H   UNL     1       1.404   9.165  20.247  0.00  0.00    +0.000 HD
ENDROOT
BRANCH   7  10
ATOM     10  N   UNL     1       1.996   4.265  19.111  0.00  0.00    +0.000 NA
ATOM     11  C   UNL     1       1.200   4.129  20.339  0.00  0.00    +0.000 C 
ATOM     12  C   UNL     1       2.029   3.726  21.558  0.00  0.00    +0.000 C 
ATOM     13  C   UNL     1       2.893   2.494  21.299  0.00  0.00    +0.000 C 
ATOM     14  C   UNL     1       3.587   2.519  19.938  0.00  0.00    +0.000 C 
ATOM     15  C   UNL     1       2.656   2.985  18.820  0.00  0.00    +0.000 C 
ENDBRANCH   7  10
BRANCH   3  16
ATOM     16  C   UNL     1       0.222  10.462  19.091  0.00  0.00    +0.000 C 
BRANCH  16  17
ATOM     17  C   UNL     1       0.027  11.277  20.323  0.00  0.00    +0.000 A 
ATOM     18  C   UNL     1      -0.651  10.963  21.484  0.00  0.00    +0.000 A 
ATOM     19  N   UNL     1      -0.499  12.020  22.323  0.00  0.00    +0.000 N 
ATOM     20  N   UNL     1       0.230  13.011  21.807  0.00  0.00    +0.000 NA
ATOM     21  C   UNL     1       0.542  12.603  20.559  0.00  0.00    +0.000 A 
ATOM     22  H   UNL     1      -0.858  12.133  23.266  0.00  0.00    +0.000 HD
BRANCH  21  23
ATOM     23  C   UNL     1       1.325  13.477  19.679  0.00  0.00    +0.000 A 
ATOM     24  C   UNL     1       2.465  12.986  19.020  0.00  0.00    +0.000 A 
ATOM     25  C   UNL     1       3.227  13.812  18.192  0.00  0.00    +0.000 A 
ATOM     26  C   UNL     1       2.853  15.136  18.008  0.00  0.00    +0.000 A 
ATOM     27  F   UNL     1       3.580  15.929  17.213  0.00  0.00    +0.000 F 
ATOM     28  C   UNL     1       1.736  15.653  18.653  0.00  0.00    +0.000 A 
ATOM     29  C   UNL     1       0.987  14.830  19.496  0.00  0.00    +0.000 A 
ENDBRANCH  21  23
ENDBRANCH  16  17
ENDBRANCH   3  16
TORSDOF 4
ENDMDL
